MODEL 1
REMARK VINA RESULT:      -7.5      0.000      0.000
REMARK  Name = 
REMARK  7 active torsions:
REMARK  status: ('A' for Active; 'I' for Inactive)
REMARK    1  A    between atoms: N_6  and  C_7
REMARK    2  A    between atoms: C_7  and  C_8
REMARK    3  A    between atoms: C_8  and  C_9
REMARK    4  A    between atoms: C_9  and  O_10
REMARK    5  A    between atoms: O_10  and  C_11
REMARK    6  A    between atoms: C_15  and  C_16
REMARK    7  A    between atoms: C_16  and  N_17
REMARK                            x       y       z     vdW  Elec       q    Type
REMARK                         _______ _______ _______ _____ _____    ______ ____
ROOT
ATOM      1  C   UNL     1       1.804   3.736  18.638  0.00  0.00    +0.000 C 
ENDROOT
BRANCH   1   2
ATOM      2  C   UNL     1       2.418   2.339  18.660  0.00  0.00    +0.000 C 
BRANCH   2   3
ATOM      3  C   UNL     1       3.631   2.320  17.741  0.00  0.00    +0.000 C 
BRANCH   3   9
ATOM      4  O   UNL     1       4.973   6.784  15.245  0.00  0.00    +0.000 OA
ATOM      5  S   UNL     1       5.788   5.614  15.458  0.00  0.00    +0.000 S 
ATOM      6  O   UNL     1       6.809   5.147  14.549  0.00  0.00    +0.000 OA
ATOM      7  N   UNL     1       4.923   4.368  16.108  0.00  0.00    +0.000 NA
ATOM      8  C   UNL     1       5.194   4.157  17.358  0.00  0.00    +0.000 C 
ATOM      9  N   UNL     1       4.675   3.218  18.194  0.00  0.00    +0.000 N 
ATOM     10  C   UNL     1       6.188   5.047  17.890  0.00  0.00    +0.000 A 
ATOM     11  C   UNL     1       6.819   5.246  19.090  0.00  0.00    +0.000 A 
ATOM     12  S   UNL     1       7.958   6.547  18.966  0.00  0.00    +0.000 S 
ATOM     13  C   UNL     1       7.586   6.826  17.302  0.00  0.00    +0.000 A 
ATOM     14  C   UNL     1       6.628   5.942  16.910  0.00  0.00    +0.000 A 
ATOM     15  H   UNL     1       4.869   3.255  19.189  0.00  0.00    +0.000 HD
ENDBRANCH   3   9
ENDBRANCH   2   3
ENDBRANCH   1   2
BRANCH   1  16
ATOM     16  O   UNL     1       2.461   4.580  19.583  0.00  0.00    +0.000 OA
BRANCH  16  17
ATOM     17  C   UNL     1       2.311   5.929  19.364  0.00  0.00    +0.000 A 
ATOM     18  C   UNL     1       2.798   6.399  18.143  0.00  0.00    +0.000 A 
ATOM     19  C   UNL     1       2.709   7.755  17.818  0.00  0.00    +0.000 A 
ATOM     20  C   UNL     1       2.138   8.654  18.719  0.00  0.00    +0.000 A 
ATOM     21  C   UNL     1       1.652   8.202  19.952  0.00  0.00    +0.000 A 
ATOM     22  C   UNL     1       1.731   6.835  20.256  0.00  0.00    +0.000 A 
BRANCH  21  23
ATOM     23  C   UNL     1       1.038   9.158  20.954  0.00  0.00    +0.000 C 
BRANCH  23  24
ATOM     24  N   UNL     1       0.563  10.428  20.359  0.00  0.00    +0.000 NA
ATOM     25  C   UNL     1      -0.558  10.175  19.436  0.00  0.00    +0.000 C 
ATOM     26  C   UNL     1      -1.618  11.235  19.349  0.00  0.00    +0.000 C 
ATOM     27  C   UNL     1      -1.606  12.368  20.060  0.00  0.00    +0.000 C 
ATOM     28  C   UNL     1      -0.488  12.651  21.009  0.00  0.00    +0.000 C 
ATOM     29  C   UNL     1       0.247  11.374  21.443  0.00  0.00    +0.000 C 
ENDBRANCH  23  24
ENDBRANCH  21  23
ENDBRANCH  16  17
ENDBRANCH   1  16
TORSDOF 7
ENDMDL
MODEL 2
REMARK VINA RESULT:      -7.4      1.916      2.655
REMARK  Name = 
REMARK  7 active torsions:
REMARK  status: ('A' for Active; 'I' for Inactive)
REMARK    1  A    between atoms: N_6  and  C_7
REMARK    2  A    between atoms: C_7  and  C_8
REMARK    3  A    between atoms: C_8  and  C_9
REMARK    4  A    between atoms: C_9  and  O_10
REMARK    5  A    between atoms: O_10  and  C_11
REMARK    6  A    between atoms: C_15  and  C_16
REMARK    7  A    between atoms: C_16  and  N_17
REMARK                            x       y       z     vdW  Elec       q    Type
REMARK                         _______ _______ _______ _____ _____    ______ ____
ROOT
ATOM      1  C   UNL     1       2.025   4.924  19.242  0.00  0.00    +0.000 C 
ENDROOT
BRANCH   1   2
ATOM      2  C   UNL     1       2.497   4.027  20.383  0.00  0.00    +0.000 C 
BRANCH   2   3
ATOM      3  C   UNL     1       3.801   3.356  19.974  0.00  0.00    +0.000 C 
BRANCH   3   9
ATOM      4  O   UNL     1       8.677   4.054  18.052  0.00  0.00    +0.000 OA
ATOM      5  S   UNL     1       7.575   4.983  18.019  0.00  0.00    +0.000 S 
ATOM      6  O   UNL     1       7.710   6.421  18.074  0.00  0.00    +0.000 OA
ATOM      7  N   UNL     1       6.289   4.450  18.905  0.00  0.00    +0.000 NA
ATOM      8  C   UNL     1       5.300   4.041  18.172  0.00  0.00    +0.000 C 
ATOM      9  N   UNL     1       4.097   3.546  18.567  0.00  0.00    +0.000 N 
ATOM     10  C   UNL     1       5.545   4.152  16.761  0.00  0.00    +0.000 A 
ATOM     11  C   UNL     1       4.867   3.886  15.600  0.00  0.00    +0.000 A 
ATOM     12  S   UNL     1       5.831   4.313  14.225  0.00  0.00    +0.000 S 
ATOM     13  C   UNL     1       7.146   4.849  15.208  0.00  0.00    +0.000 A 
ATOM     14  C   UNL     1       6.814   4.684  16.517  0.00  0.00    +0.000 A 
ATOM     15  H   UNL     1       3.468   3.128  17.891  0.00  0.00    +0.000 HD
ENDBRANCH   3   9
ENDBRANCH   2   3
ENDBRANCH   1   2
BRANCH   1  16
ATOM     16  O   UNL     1       2.883   6.057  19.114  0.00  0.00    +0.000 OA
BRANCH  16  17
ATOM     17  C   UNL     1       2.257   7.276  19.210  0.00  0.00    +0.000 A 
ATOM     18  C   UNL     1       2.170   8.005  18.022  0.00  0.00    +0.000 A 
ATOM     19  C   UNL     1       1.562   9.263  18.004  0.00  0.00    +0.000 A 
ATOM     20  C   UNL     1       1.045   9.807  19.179  0.00  0.00    +0.000 A 
ATOM     21  C   UNL     1       1.131   9.095  20.383  0.00  0.00    +0.000 A 
ATOM     22  C   UNL     1       1.726   7.824  20.381  0.00  0.00    +0.000 A 
BRANCH  21  23
ATOM     23  C   UNL     1       0.588   9.666  21.675  0.00  0.00    +0.000 C 
BRANCH  23  24
ATOM     24  N   UNL     1      -0.179  10.922  21.503  0.00  0.00    +0.000 NA
ATOM     25  C   UNL     1      -1.106  11.116  22.631  0.00  0.00    +0.000 C 
ATOM     26  C   UNL     1      -1.367  12.532  23.060  0.00  0.00    +0.000 C 
ATOM     27  C   UNL     1      -0.803  13.603  22.491  0.00  0.00    +0.000 C 
ATOM     28  C   UNL     1       0.147  13.440  21.351  0.00  0.00    +0.000 C 
ATOM     29  C   UNL     1       0.765  12.034  21.302  0.00  0.00    +0.000 C 
ENDBRANCH  23  24
ENDBRANCH  21  23
ENDBRANCH  16  17
ENDBRANCH   1  16
TORSDOF 7
ENDMDL
MODEL 3
REMARK VINA RESULT:      -7.4      4.881      9.614
REMARK  Name = 
REMARK  7 active torsions:
REMARK  status: ('A' for Active; 'I' for Inactive)
REMARK    1  A    between atoms: N_6  and  C_7
REMARK    2  A    between atoms: C_7  and  C_8
REMARK    3  A    between atoms: C_8  and  C_9
REMARK    4  A    between atoms: C_9  and  O_10
REMARK    5  A    between atoms: O_10  and  C_11
REMARK    6  A    between atoms: C_15  and  C_16
REMARK    7  A    between atoms: C_16  and  N_17
REMARK                            x       y       z     vdW  Elec       q    Type
REMARK                         _______ _______ _______ _____ _____    ______ ____
ROOT
ATOM      1  C   UNL     1       0.707  11.646  20.971  0.00  0.00    +0.000 C 
ENDROOT
BRANCH   1   2
ATOM      2  C   UNL     1      -0.394  12.629  21.360  0.00  0.00    +0.000 C 
BRANCH   2   3
ATOM      3  C   UNL     1      -1.005  13.211  20.094  0.00  0.00    +0.000 C 
BRANCH   3   9
ATOM      4  O   UNL     1      -3.519   9.257  17.644  0.00  0.00    +0.000 OA
ATOM      5  S   UNL     1      -3.584  10.665  17.341  0.00  0.00    +0.000 S 
ATOM      6  O   UNL     1      -3.775  11.213  16.018  0.00  0.00    +0.000 OA
ATOM      7  N   UNL     1      -2.493  11.538  18.219  0.00  0.00    +0.000 NA
ATOM      8  C   UNL     1      -3.042  12.237  19.163  0.00  0.00    +0.000 C 
ATOM      9  N   UNL     1      -2.446  13.065  20.064  0.00  0.00    +0.000 N 
ATOM     10  C   UNL     1      -4.470  12.100  19.226  0.00  0.00    +0.000 A 
ATOM     11  C   UNL     1      -5.494  12.598  19.988  0.00  0.00    +0.000 A 
ATOM     12  S   UNL     1      -7.015  11.970  19.443  0.00  0.00    +0.000 S 
ATOM     13  C   UNL     1      -6.275  11.036  18.191  0.00  0.00    +0.000 A 
ATOM     14  C   UNL     1      -4.929  11.228  18.234  0.00  0.00    +0.000 A 
ATOM     15  H   UNL     1      -2.976  13.440  20.843  0.00  0.00    +0.000 HD
ENDBRANCH   3   9
ENDBRANCH   2   3
ENDBRANCH   1   2
BRANCH   1  16
ATOM     16  O   UNL     1       0.150  10.360  20.702  0.00  0.00    +0.000 OA
BRANCH  16  17
ATOM     17  C   UNL     1       0.912   9.552  19.893  0.00  0.00    +0.000 A 
ATOM     18  C   UNL     1       1.113  10.019  18.592  0.00  0.00    +0.000 A 
ATOM     19  C   UNL     1       1.864   9.273  17.679  0.00  0.00    +0.000 A 
ATOM     20  C   UNL     1       2.412   8.048  18.059  0.00  0.00    +0.000 A 
ATOM     21  C   UNL     1       2.212   7.559  19.357  0.00  0.00    +0.000 A 
ATOM     22  C   UNL     1       1.473   8.328  20.268  0.00  0.00    +0.000 A 
BRANCH  21  23
ATOM     23  C   UNL     1       2.786   6.228  19.792  0.00  0.00    +0.000 C 
BRANCH  23  24
ATOM     24  N   UNL     1       1.794   5.128  19.826  0.00  0.00    +0.000 NA
ATOM     25  C   UNL     1       1.749   4.438  18.525  0.00  0.00    +0.000 C 
ATOM     26  C   UNL     1       1.466   2.962  18.548  0.00  0.00    +0.000 C 
ATOM     27  C   UNL     1       1.271   2.255  19.666  0.00  0.00    +0.000 C 
ATOM     28  C   UNL     1       1.317   2.923  21.001  0.00  0.00    +0.000 C 
ATOM     29  C   UNL     1       2.099   4.245  20.965  0.00  0.00    +0.000 C 
ENDBRANCH  23  24
ENDBRANCH  21  23
ENDBRANCH  16  17
ENDBRANCH   1  16
TORSDOF 7
ENDMDL
MODEL 4
REMARK VINA RESULT:      -7.3      1.858      2.729
REMARK  Name = 
REMARK  7 active torsions:
REMARK  status: ('A' for Active; 'I' for Inactive)
REMARK    1  A    between atoms: N_6  and  C_7
REMARK    2  A    between atoms: C_7  and  C_8
REMARK    3  A    between atoms: C_8  and  C_9
REMARK    4  A    between atoms: C_9  and  O_10
REMARK    5  A    between atoms: O_10  and  C_11
REMARK    6  A    between atoms: C_15  and  C_16
REMARK    7  A    between atoms: C_16  and  N_17
REMARK                            x       y       z     vdW  Elec       q    Type
REMARK                         _______ _______ _______ _____ _____    ______ ____
ROOT
ATOM      1  C   UNL     1       2.523   5.275  19.756  0.00  0.00    +0.000 C 
ENDROOT
BRANCH   1   2
ATOM      2  C   UNL     1       2.767   4.106  20.706  0.00  0.00    +0.000 C 
BRANCH   2   3
ATOM      3  C   UNL     1       3.838   3.203  20.110  0.00  0.00    +0.000 C 
BRANCH   3   9
ATOM      4  O   UNL     1       8.621   4.063  18.026  0.00  0.00    +0.000 OA
ATOM      5  S   UNL     1       7.512   4.982  18.098  0.00  0.00    +0.000 S 
ATOM      6  O   UNL     1       7.639   6.415  18.236  0.00  0.00    +0.000 OA
ATOM      7  N   UNL     1       6.270   4.383  19.004  0.00  0.00    +0.000 NA
ATOM      8  C   UNL     1       5.252   4.011  18.291  0.00  0.00    +0.000 C 
ATOM      9  N   UNL     1       4.070   3.481  18.707  0.00  0.00    +0.000 N 
ATOM     10  C   UNL     1       5.434   4.211  16.880  0.00  0.00    +0.000 A 
ATOM     11  C   UNL     1       4.707   4.010  15.736  0.00  0.00    +0.000 A 
ATOM     12  S   UNL     1       5.607   4.530  14.349  0.00  0.00    +0.000 S 
ATOM     13  C   UNL     1       6.961   5.017  15.305  0.00  0.00    +0.000 A 
ATOM     14  C   UNL     1       6.687   4.768  16.615  0.00  0.00    +0.000 A 
ATOM     15  H   UNL     1       3.415   3.100  18.034  0.00  0.00    +0.000 HD
ENDBRANCH   3   9
ENDBRANCH   2   3
ENDBRANCH   1   2
BRANCH   1  16
ATOM     16  O   UNL     1       1.935   6.369  20.459  0.00  0.00    +0.000 OA
BRANCH  16  17
ATOM     17  C   UNL     1       1.841   7.538  19.743  0.00  0.00    +0.000 A 
ATOM     18  C   UNL     1       2.402   7.510  18.465  0.00  0.00    +0.000 A 
ATOM     19  C   UNL     1       2.374   8.646  17.652  0.00  0.00    +0.000 A 
ATOM     20  C   UNL     1       1.791   9.825  18.117  0.00  0.00    +0.000 A 
ATOM     21  C   UNL     1       1.232   9.875  19.400  0.00  0.00    +0.000 A 
ATOM     22  C   UNL     1       1.250   8.721  20.197  0.00  0.00    +0.000 A 
BRANCH  21  23
ATOM     23  C   UNL     1       0.603  11.145  19.935  0.00  0.00    +0.000 C 
BRANCH  23  24
ATOM     24  N   UNL     1      -0.875  11.096  20.015  0.00  0.00    +0.000 NA
ATOM     25  C   UNL     1      -1.355  11.900  21.152  0.00  0.00    +0.000 C 
ATOM     26  C   UNL     1      -2.674  12.598  20.983  0.00  0.00    +0.000 C 
ATOM     27  C   UNL     1      -3.415  12.539  19.872  0.00  0.00    +0.000 C 
ATOM     28  C   UNL     1      -2.955  11.739  18.698  0.00  0.00    +0.000 C 
ATOM     29  C   UNL     1      -1.437  11.499  18.714  0.00  0.00    +0.000 C 
ENDBRANCH  23  24
ENDBRANCH  21  23
ENDBRANCH  16  17
ENDBRANCH   1  16
TORSDOF 7
ENDMDL
MODEL 5
REMARK VINA RESULT:      -7.2      5.199      7.850
REMARK  Name = 
REMARK  7 active torsions:
REMARK  status: ('A' for Active; 'I' for Inactive)
REMARK    1  A    between atoms: N_6  and  C_7
REMARK    2  A    between atoms: C_7  and  C_8
REMARK    3  A    between atoms: C_8  and  C_9
REMARK    4  A    between atoms: C_9  and  O_10
REMARK    5  A    between atoms: O_10  and  C_11
REMARK    6  A    between atoms: C_15  and  C_16
REMARK    7  A    between atoms: C_16  and  N_17
REMARK                            x       y       z     vdW  Elec       q    Type
REMARK                         _______ _______ _______ _____ _____    ______ ____
ROOT
ATOM      1  C   UNL     1       7.060   7.469  17.577  0.00  0.00    +0.000 C 
ENDROOT
BRANCH   1   2
ATOM      2  C   UNL     1       8.248   7.836  18.463  0.00  0.00    +0.000 C 
BRANCH   2   3
ATOM      3  C   UNL     1       8.759   9.210  18.055  0.00  0.00    +0.000 C 
BRANCH   3   9
ATOM      4  O   UNL     1      10.256  14.266  17.657  0.00  0.00    +0.000 OA
ATOM      5  S   UNL     1      10.905  13.210  18.393  0.00  0.00    +0.000 S 
ATOM      6  O   UNL     1      12.330  13.111  18.606  0.00  0.00    +0.000 OA
ATOM      7  N   UNL     1      10.223  11.737  18.093  0.00  0.00    +0.000 NA
ATOM      8  C   UNL     1       9.512  11.294  19.082  0.00  0.00    +0.000 C 
ATOM      9  N   UNL     1       8.820  10.126  19.176  0.00  0.00    +0.000 N 
ATOM     10  C   UNL     1       9.483  12.178  20.214  0.00  0.00    +0.000 A 
ATOM     11  C   UNL     1       8.920  12.194  21.462  0.00  0.00    +0.000 A 
ATOM     12  S   UNL     1       9.362  13.642  22.308  0.00  0.00    +0.000 S 
ATOM     13  C   UNL     1      10.303  14.228  20.983  0.00  0.00    +0.000 A 
ATOM     14  C   UNL     1      10.246  13.324  19.967  0.00  0.00    +0.000 A 
ATOM     15  H   UNL     1       8.186   9.968  19.952  0.00  0.00    +0.000 HD
ENDBRANCH   3   9
ENDBRANCH   2   3
ENDBRANCH   1   2
BRANCH   1  16
ATOM     16  O   UNL     1       7.489   6.654  16.487  0.00  0.00    +0.000 OA
BRANCH  16  17
ATOM     17  C   UNL     1       6.684   5.574  16.214  0.00  0.00    +0.000 A 
ATOM     18  C   UNL     1       6.649   5.169  14.879  0.00  0.00    +0.000 A 
ATOM     19  C   UNL     1       5.856   4.087  14.486  0.00  0.00    +0.000 A 
ATOM     20  C   UNL     1       5.083   3.408  15.427  0.00  0.00    +0.000 A 
ATOM     21  C   UNL     1       5.098   3.806  16.770  0.00  0.00    +0.000 A 
ATOM     22  C   UNL     1       5.914   4.880  17.153  0.00  0.00    +0.000 A 
BRANCH  21  23
ATOM     23  C   UNL     1       4.260   3.094  17.811  0.00  0.00    +0.000 C 
BRANCH  23  24
ATOM     24  N   UNL     1       3.156   3.915  18.359  0.00  0.00    +0.000 NA
ATOM     25  C   UNL     1       1.881   3.180  18.280  0.00  0.00    +0.000 C 
ATOM     26  C   UNL     1       0.886   3.426  19.377  0.00  0.00    +0.000 C 
ATOM     27  C   UNL     1       1.097   4.251  20.409  0.00  0.00    +0.000 C 
ATOM     28  C   UNL     1       2.381   5.005  20.523  0.00  0.00    +0.000 C 
ATOM     29  C   UNL     1       3.515   4.350  19.720  0.00  0.00    +0.000 C 
ENDBRANCH  23  24
ENDBRANCH  21  23
ENDBRANCH  16  17
ENDBRANCH   1  16
TORSDOF 7
ENDMDL
MODEL 6
REMARK VINA RESULT:      -7.2      5.994      8.154
REMARK  Name = 
REMARK  7 active torsions:
REMARK  status: ('A' for Active; 'I' for Inactive)
REMARK    1  A    between atoms: N_6  and  C_7
REMARK    2  A    between atoms: C_7  and  C_8
REMARK    3  A    between atoms: C_8  and  C_9
REMARK    4  A    between atoms: C_9  and  O_10
REMARK    5  A    between atoms: O_10  and  C_11
REMARK    6  A    between atoms: C_15  and  C_16
REMARK    7  A    between atoms: C_16  and  N_17
REMARK                            x       y       z     vdW  Elec       q    Type
REMARK                         _______ _______ _______ _____ _____    ______ ____
ROOT
ATOM      1  C   UNL     1       7.840   8.535  17.825  0.00  0.00    +0.000 C 
ENDROOT
BRANCH   1   2
ATOM      2  C   UNL     1       7.576   7.031  17.809  0.00  0.00    +0.000 C 
BRANCH   2   3
ATOM      3  C   UNL     1       6.322   6.761  16.990  0.00  0.00    +0.000 C 
BRANCH   3   9
ATOM      4  O   UNL     1       5.052   2.555  19.932  0.00  0.00    +0.000 OA
ATOM      5  S   UNL     1       4.324   3.101  18.814  0.00  0.00    +0.000 S 
ATOM      6  O   UNL     1       3.534   2.323  17.889  0.00  0.00    +0.000 OA
ATOM      7  N   UNL     1       5.167   4.297  18.052  0.00  0.00    +0.000 NA
ATOM      8  C   UNL     1       4.692   5.482  18.282  0.00  0.00    +0.000 C 
ATOM      9  N   UNL     1       5.134   6.681  17.817  0.00  0.00    +0.000 N 
ATOM     10  C   UNL     1       3.540   5.483  19.141  0.00  0.00    +0.000 A 
ATOM     11  C   UNL     1       2.685   6.413  19.671  0.00  0.00    +0.000 A 
ATOM     12  S   UNL     1       1.472   5.637  20.637  0.00  0.00    +0.000 S 
ATOM     13  C   UNL     1       2.115   4.063  20.330  0.00  0.00    +0.000 A 
ATOM     14  C   UNL     1       3.206   4.182  19.525  0.00  0.00    +0.000 A 
ATOM     15  H   UNL     1       4.759   7.545  18.191  0.00  0.00    +0.000 HD
ENDBRANCH   3   9
ENDBRANCH   2   3
ENDBRANCH   1   2
BRANCH   1  16
ATOM     16  O   UNL     1       8.958   8.832  18.660  0.00  0.00    +0.000 OA
BRANCH  16  17
ATOM     17  C   UNL     1       9.092  10.155  19.006  0.00  0.00    +0.000 A 
ATOM     18  C   UNL     1       9.309  10.404  20.362  0.00  0.00    +0.000 A 
ATOM     19  C   UNL     1       9.449  11.714  20.829  0.00  0.00    +0.000 A 
ATOM     20  C   UNL     1       9.363  12.787  19.942  0.00  0.00    +0.000 A 
ATOM     21  C   UNL     1       9.135  12.556  18.579  0.00  0.00    +0.000 A 
ATOM     22  C   UNL     1       9.017  11.235  18.121  0.00  0.00    +0.000 A 
BRANCH  21  23
ATOM     23  C   UNL     1       9.026  13.702  17.595  0.00  0.00    +0.000 C 
BRANCH  23  24
ATOM     24  N   UNL     1       9.699  14.944  18.041  0.00  0.00    +0.000 NA
ATOM     25  C   UNL     1      10.971  15.124  17.321  0.00  0.00    +0.000 C 
ATOM     26  C   UNL     1      11.390  16.536  17.025  0.00  0.00    +0.000 C 
ATOM     27  C   UNL     1      10.676  17.615  17.362  0.00  0.00    +0.000 C 
ATOM     28  C   UNL     1       9.378  17.467  18.085  0.00  0.00    +0.000 C 
ATOM     29  C   UNL     1       8.762  16.072  17.898  0.00  0.00    +0.000 C 
ENDBRANCH  23  24
ENDBRANCH  21  23
ENDBRANCH  16  17
ENDBRANCH   1  16
TORSDOF 7
ENDMDL
MODEL 7
REMARK VINA RESULT:      -7.2      2.185      3.227
REMARK  Name = 
REMARK  7 active torsions:
REMARK  status: ('A' for Active; 'I' for Inactive)
REMARK    1  A    between atoms: N_6  and  C_7
REMARK    2  A    between atoms: C_7  and  C_8
REMARK    3  A    between atoms: C_8  and  C_9
REMARK    4  A    between atoms: C_9  and  O_10
REMARK    5  A    between atoms: O_10  and  C_11
REMARK    6  A    between atoms: C_15  and  C_16
REMARK    7  A    between atoms: C_16  and  N_17
REMARK                            x       y       z     vdW  Elec       q    Type
REMARK                         _______ _______ _______ _____ _____    ______ ____
ROOT
ATOM      1  C   UNL     1       1.915   5.474  19.064  0.00  0.00    +0.000 C 
ENDROOT
BRANCH   1   2
ATOM      2  C   UNL     1       2.065   4.291  20.016  0.00  0.00    +0.000 C 
BRANCH   2   3
ATOM      3  C   UNL     1       3.444   3.676  19.823  0.00  0.00    +0.000 C 
BRANCH   3   9
ATOM      4  O   UNL     1       8.509   4.313  18.445  0.00  0.00    +0.000 OA
ATOM      5  S   UNL     1       7.414   5.224  18.223  0.00  0.00    +0.000 S 
ATOM      6  O   UNL     1       7.533   6.664  18.201  0.00  0.00    +0.000 OA
ATOM      7  N   UNL     1       6.035   4.731  18.985  0.00  0.00    +0.000 NA
ATOM      8  C   UNL     1       5.142   4.265  18.169  0.00  0.00    +0.000 C 
ATOM      9  N   UNL     1       3.902   3.780  18.452  0.00  0.00    +0.000 N 
ATOM     10  C   UNL     1       5.550   4.290  16.792  0.00  0.00    +0.000 A 
ATOM     11  C   UNL     1       5.015   3.942  15.579  0.00  0.00    +0.000 A 
ATOM     12  S   UNL     1       6.132   4.293  14.301  0.00  0.00    +0.000 S 
ATOM     13  C   UNL     1       7.320   4.908  15.396  0.00  0.00    +0.000 A 
ATOM     14  C   UNL     1       6.836   4.821  16.665  0.00  0.00    +0.000 A 
ATOM     15  H   UNL     1       3.360   3.312  17.734  0.00  0.00    +0.000 HD
ENDBRANCH   3   9
ENDBRANCH   2   3
ENDBRANCH   1   2
BRANCH   1  16
ATOM     16  O   UNL     1       2.640   6.601  19.555  0.00  0.00    +0.000 OA
BRANCH  16  17
ATOM     17  C   UNL     1       1.872   7.691  19.885  0.00  0.00    +0.000 A 
ATOM     18  C   UNL     1       1.326   7.677  21.170  0.00  0.00    +0.000 A 
ATOM     19  C   UNL     1       0.518   8.730  21.609  0.00  0.00    +0.000 A 
ATOM     20  C   UNL     1       0.243   9.802  20.760  0.00  0.00    +0.000 A 
ATOM     21  C   UNL     1       0.774   9.828  19.464  0.00  0.00    +0.000 A 
ATOM     22  C   UNL     1       1.599   8.774  19.044  0.00  0.00    +0.000 A 
BRANCH  21  23
ATOM     23  C   UNL     1       0.481  10.973  18.518  0.00  0.00    +0.000 C 
BRANCH  23  24
ATOM     24  N   UNL     1       0.638  12.313  19.128  0.00  0.00    +0.000 NA
ATOM     25  C   UNL     1       2.048  12.737  19.082  0.00  0.00    +0.000 C 
ATOM     26  C   UNL     1       2.312  14.205  18.908  0.00  0.00    +0.000 C 
ATOM     27  C   UNL     1       1.352  15.128  18.782  0.00  0.00    +0.000 C 
ATOM     28  C   UNL     1      -0.087  14.731  18.817  0.00  0.00    +0.000 C 
ATOM     29  C   UNL     1      -0.292  13.248  18.473  0.00  0.00    +0.000 C 
ENDBRANCH  23  24
ENDBRANCH  21  23
ENDBRANCH  16  17
ENDBRANCH   1  16
TORSDOF 7
ENDMDL
MODEL 8
REMARK VINA RESULT:      -7.2      3.661      8.333
REMARK  Name = 
REMARK  7 active torsions:
REMARK  status: ('A' for Active; 'I' for Inactive)
REMARK    1  A    between atoms: N_6  and  C_7
REMARK    2  A    between atoms: C_7  and  C_8
REMARK    3  A    between atoms: C_8  and  C_9
REMARK    4  A    between atoms: C_9  and  O_10
REMARK    5  A    between atoms: O_10  and  C_11
REMARK    6  A    between atoms: C_15  and  C_16
REMARK    7  A    between atoms: C_16  and  N_17
REMARK                            x       y       z     vdW  Elec       q    Type
REMARK                         _______ _______ _______ _____ _____    ______ ____
ROOT
ATOM      1  C   UNL     1       2.666   8.125  18.044  0.00  0.00    +0.000 C 
ENDROOT
BRANCH   1   2
ATOM      2  C   UNL     1       2.022   9.494  17.839  0.00  0.00    +0.000 C 
BRANCH   2   3
ATOM      3  C   UNL     1       0.509   9.336  17.878  0.00  0.00    +0.000 C 
BRANCH   3   9
ATOM      4  O   UNL     1       1.266   9.728  23.097  0.00  0.00    +0.000 OA
ATOM      5  S   UNL     1       0.038   9.427  22.405  0.00  0.00    +0.000 S 
ATOM      6  O   UNL     1      -1.007   8.571  22.918  0.00  0.00    +0.000 OA
ATOM      7  N   UNL     1       0.278   9.204  20.787  0.00  0.00    +0.000 NA
ATOM      8  C   UNL     1      -0.156  10.192  20.067  0.00  0.00    +0.000 C 
ATOM      9  N   UNL     1      -0.124  10.336  18.715  0.00  0.00    +0.000 N 
ATOM     10  C   UNL     1      -0.752  11.248  20.837  0.00  0.00    +0.000 A 
ATOM     11  C   UNL     1      -1.347  12.457  20.591  0.00  0.00    +0.000 A 
ATOM     12  S   UNL     1      -1.860  13.193  22.074  0.00  0.00    +0.000 S 
ATOM     13  C   UNL     1      -1.273  11.876  23.027  0.00  0.00    +0.000 A 
ATOM     14  C   UNL     1      -0.718  10.947  22.201  0.00  0.00    +0.000 A 
ATOM     15  H   UNL     1      -0.368  11.224  18.289  0.00  0.00    +0.000 HD
ENDBRANCH   3   9
ENDBRANCH   2   3
ENDBRANCH   1   2
BRANCH   1  16
ATOM     16  O   UNL     1       3.790   7.972  17.178  0.00  0.00    +0.000 OA
BRANCH  16  17
ATOM     17  C   UNL     1       4.357   6.720  17.175  0.00  0.00    +0.000 A 
ATOM     18  C   UNL     1       5.006   6.355  15.995  0.00  0.00    +0.000 A 
ATOM     19  C   UNL     1       5.610   5.100  15.875  0.00  0.00    +0.000 A 
ATOM     20  C   UNL     1       5.559   4.196  16.936  0.00  0.00    +0.000 A 
ATOM     21  C   UNL     1       4.904   4.541  18.125  0.00  0.00    +0.000 A 
ATOM     22  C   UNL     1       4.321   5.812  18.238  0.00  0.00    +0.000 A 
BRANCH  21  23
ATOM     23  C   UNL     1       4.825   3.575  19.288  0.00  0.00    +0.000 C 
BRANCH  23  24
ATOM     24  N   UNL     1       3.527   2.869  19.396  0.00  0.00    +0.000 NA
ATOM     25  C   UNL     1       2.979   3.006  20.756  0.00  0.00    +0.000 C 
ATOM     26  C   UNL     1       1.484   3.077  20.883  0.00  0.00    +0.000 C 
ATOM     27  C   UNL     1       0.642   3.036  19.844  0.00  0.00    +0.000 C 
ATOM     28  C   UNL     1       1.165   2.905  18.452  0.00  0.00    +0.000 C 
ATOM     29  C   UNL     1       2.630   3.355  18.334  0.00  0.00    +0.000 C 
ENDBRANCH  23  24
ENDBRANCH  21  23
ENDBRANCH  16  17
ENDBRANCH   1  16
TORSDOF 7
ENDMDL
MODEL 9
REMARK VINA RESULT:      -7.1      1.556      2.167
REMARK  Name = 
REMARK  7 active torsions:
REMARK  status: ('A' for Active; 'I' for Inactive)
REMARK    1  A    between atoms: N_6  and  C_7
REMARK    2  A    between atoms: C_7  and  C_8
REMARK    3  A    between atoms: C_8  and  C_9
REMARK    4  A    between atoms: C_9  and  O_10
REMARK    5  A    between atoms: O_10  and  C_11
REMARK    6  A    between atoms: C_15  and  C_16
REMARK    7  A    between atoms: C_16  and  N_17
REMARK                            x       y       z     vdW  Elec       q    Type
REMARK                         _______ _______ _______ _____ _____    ______ ____
ROOT
ATOM      1  C   UNL     1       1.513   3.579  19.103  0.00  0.00    +0.000 C 
ENDROOT
BRANCH   1   2
ATOM      2  C   UNL     1       2.122   2.205  19.369  0.00  0.00    +0.000 C 
BRANCH   2   3
ATOM      3  C   UNL     1       3.639   2.323  19.327  0.00  0.00    +0.000 C 
BRANCH   3   9
ATOM      4  O   UNL     1       8.345   4.594  18.518  0.00  0.00    +0.000 OA
ATOM      5  S   UNL     1       7.040   5.168  18.302  0.00  0.00    +0.000 S 
ATOM      6  O   UNL     1       6.722   6.568  18.461  0.00  0.00    +0.000 OA
ATOM      7  N   UNL     1       5.834   4.193  18.867  0.00  0.00    +0.000 NA
ATOM      8  C   UNL     1       5.169   3.606  17.921  0.00  0.00    +0.000 C 
ATOM      9  N   UNL     1       4.119   2.747  18.027  0.00  0.00    +0.000 N 
ATOM     10  C   UNL     1       5.626   3.942  16.601  0.00  0.00    +0.000 A 
ATOM     11  C   UNL     1       5.288   3.627  15.311  0.00  0.00    +0.000 A 
ATOM     12  S   UNL     1       6.316   4.464  14.195  0.00  0.00    +0.000 S 
ATOM     13  C   UNL     1       7.202   5.238  15.461  0.00  0.00    +0.000 A 
ATOM     14  C   UNL     1       6.697   4.837  16.660  0.00  0.00    +0.000 A 
ATOM     15  H   UNL     1       3.783   2.247  17.211  0.00  0.00    +0.000 HD
ENDBRANCH   3   9
ENDBRANCH   2   3
ENDBRANCH   1   2
BRANCH   1  16
ATOM     16  O   UNL     1       1.896   4.497  20.127  0.00  0.00    +0.000 OA
BRANCH  16  17
ATOM     17  C   UNL     1       1.946   5.814  19.739  0.00  0.00    +0.000 A 
ATOM     18  C   UNL     1       2.545   6.056  18.502  0.00  0.00    +0.000 A 
ATOM     19  C   UNL     1       2.661   7.360  18.012  0.00  0.00    +0.000 A 
ATOM     20  C   UNL     1       2.185   8.435  18.764  0.00  0.00    +0.000 A 
ATOM     21  C   UNL     1       1.590   8.212  20.012  0.00  0.00    +0.000 A 
ATOM     22  C   UNL     1       1.463   6.896  20.482  0.00  0.00    +0.000 A 
BRANCH  21  23
ATOM     23  C   UNL     1       1.075   9.360  20.855  0.00  0.00    +0.000 C 
BRANCH  23  24
ATOM     24  N   UNL     1       0.676  10.550  20.069  0.00  0.00    +0.000 NA
ATOM     25  C   UNL     1      -0.699  10.395  19.564  0.00  0.00    +0.000 C 
ATOM     26  C   UNL     1      -1.528  11.643  19.454  0.00  0.00    +0.000 C 
ATOM     27  C   UNL     1      -1.095  12.861  19.795  0.00  0.00    +0.000 C 
ATOM     28  C   UNL     1       0.291  13.052  20.317  0.00  0.00    +0.000 C 
ATOM     29  C   UNL     1       0.882  11.756  20.890  0.00  0.00    +0.000 C 
ENDBRANCH  23  24
ENDBRANCH  21  23
ENDBRANCH  16  17
ENDBRANCH   1  16
TORSDOF 7
ENDMDL
