MODEL 1
REMARK VINA RESULT:      -7.3      0.000      0.000
REMARK  Name = 
REMARK  2 active torsions:
REMARK  status: ('A' for Active; 'I' for Inactive)
REMARK    1  A    between atoms: C_2  and  C_3
REMARK    2  A    between atoms: C_11  and  C_12
REMARK                            x       y       z     vdW  Elec       q    Type
REMARK                         _______ _______ _______ _____ _____    ______ ____
ROOT
ATOM      1  C   UNL     1       2.308   4.001  17.990  0.00  0.00    +0.000 A 
ATOM      2  C   UNL     1       2.170   5.344  18.348  0.00  0.00    +0.000 A 
ATOM      3  C   UNL     1       3.189   6.251  18.058  0.00  0.00    +0.000 A 
ATOM      4  C   UNL     1       4.352   5.818  17.408  0.00  0.00    +0.000 A 
ATOM      5  C   UNL     1       4.479   4.474  17.005  0.00  0.00    +0.000 A 
ATOM      6  C   UNL     1       3.457   3.568  17.319  0.00  0.00    +0.000 A 
ATOM      7  C   UNL     1       5.719   3.972  16.301  0.00  0.00    +0.000 C 
ATOM      8  N   UNL     1       6.582   5.048  15.797  0.00  0.00    +0.000 NA
ATOM      9  C   UNL     1       6.803   6.075  16.863  0.00  0.00    +0.000 C 
ATOM     10  C   UNL     1       5.468   6.799  17.130  0.00  0.00    +0.000 C 
ATOM     11  H   UNL     1       6.100   5.492  15.013  0.00  0.00    +0.000 HD
ENDROOT
BRANCH   9  12
ATOM     12  C   UNL     1       7.466   5.626  18.207  0.00  0.00    +0.000 C 
ATOM     13  F   UNL     1       8.189   4.490  18.087  0.00  0.00    +0.000 F 
ATOM     14  F   UNL     1       8.316   6.583  18.653  0.00  0.00    +0.000 F 
ATOM     15  F   UNL     1       6.559   5.417  19.187  0.00  0.00    +0.000 F 
ENDBRANCH   9  12
BRANCH   1  17
ATOM     16  N   UNL     1       0.428   2.309  18.558  0.00  0.00    +0.000 NA
ATOM     17  C   UNL     1       1.269   3.066  18.311  0.00  0.00    +0.000 C 
ENDBRANCH   1  17
TORSDOF 2
ENDMDL
MODEL 2
REMARK VINA RESULT:      -6.9      3.312      5.378
REMARK  Name = 
REMARK  2 active torsions:
REMARK  status: ('A' for Active; 'I' for Inactive)
REMARK    1  A    between atoms: C_2  and  C_3
REMARK    2  A    between atoms: C_11  and  C_12
REMARK                            x       y       z     vdW  Elec       q    Type
REMARK                         _______ _______ _______ _____ _____    ______ ____
ROOT
ATOM      1  C   UNL     1       5.703   5.332  16.591  0.00  0.00    +0.000 A 
ATOM      2  C   UNL     1       4.861   6.438  16.729  0.00  0.00    +0.000 A 
ATOM      3  C   UNL     1       3.814   6.406  17.650  0.00  0.00    +0.000 A 
ATOM      4  C   UNL     1       3.603   5.266  18.436  0.00  0.00    +0.000 A 
ATOM      5  C   UNL     1       4.475   4.164  18.333  0.00  0.00    +0.000 A 
ATOM      6  C   UNL     1       5.512   4.200  17.392  0.00  0.00    +0.000 A 
ATOM      7  C   UNL     1       4.277   2.919  19.167  0.00  0.00    +0.000 C 
ATOM      8  N   UNL     1       3.343   3.104  20.284  0.00  0.00    +0.000 NA
ATOM      9  C   UNL     1       2.095   3.778  19.808  0.00  0.00    +0.000 C 
ATOM     10  C   UNL     1       2.443   5.225  19.405  0.00  0.00    +0.000 C 
ATOM     11  H   UNL     1       3.796   3.708  20.972  0.00  0.00    +0.000 HD
ENDROOT
BRANCH   9  12
ATOM     12  C   UNL     1       1.250   3.082  18.690  0.00  0.00    +0.000 C 
ATOM     13  F   UNL     1       1.879   2.024  18.132  0.00  0.00    +0.000 F 
ATOM     14  F   UNL     1       0.086   2.616  19.204  0.00  0.00    +0.000 F 
ATOM     15  F   UNL     1       0.926   3.926  17.685  0.00  0.00    +0.000 F 
ENDBRANCH   9  12
BRANCH   1  17
ATOM     16  N   UNL     1       7.614   5.376  14.840  0.00  0.00    +0.000 NA
ATOM     17  C   UNL     1       6.765   5.358  15.627  0.00  0.00    +0.000 C 
ENDBRANCH   1  17
TORSDOF 2
ENDMDL
MODEL 3
REMARK VINA RESULT:      -6.9      3.015      5.420
REMARK  Name = 
REMARK  2 active torsions:
REMARK  status: ('A' for Active; 'I' for Inactive)
REMARK    1  A    between atoms: C_2  and  C_3
REMARK    2  A    between atoms: C_11  and  C_12
REMARK                            x       y       z     vdW  Elec       q    Type
REMARK                         _______ _______ _______ _____ _____    ______ ____
ROOT
ATOM      1  C   UNL     1       6.048   4.504  16.673  0.00  0.00    +0.000 A 
ATOM      2  C   UNL     1       6.452   4.816  17.973  0.00  0.00    +0.000 A 
ATOM      3  C   UNL     1       5.701   4.373  19.062  0.00  0.00    +0.000 A 
ATOM      4  C   UNL     1       4.541   3.616  18.854  0.00  0.00    +0.000 A 
ATOM      5  C   UNL     1       4.152   3.260  17.548  0.00  0.00    +0.000 A 
ATOM      6  C   UNL     1       4.903   3.727  16.462  0.00  0.00    +0.000 A 
ATOM      7  C   UNL     1       2.907   2.443  17.288  0.00  0.00    +0.000 C 
ATOM      8  N   UNL     1       2.367   1.799  18.492  0.00  0.00    +0.000 NA
ATOM      9  C   UNL     1       2.281   2.786  19.612  0.00  0.00    +0.000 C 
ATOM     10  C   UNL     1       3.712   3.170  20.038  0.00  0.00    +0.000 C 
ATOM     11  H   UNL     1       3.013   1.055  18.763  0.00  0.00    +0.000 HD
ENDROOT
BRANCH   9  12
ATOM     12  C   UNL     1       1.401   4.065  19.415  0.00  0.00    +0.000 C 
ATOM     13  F   UNL     1       0.967   4.218  18.144  0.00  0.00    +0.000 F 
ATOM     14  F   UNL     1       0.297   4.001  20.198  0.00  0.00    +0.000 F 
ATOM     15  F   UNL     1       2.056   5.200  19.750  0.00  0.00    +0.000 F 
ENDBRANCH   9  12
BRANCH   1  17
ATOM     16  N   UNL     1       7.426   5.375  14.658  0.00  0.00    +0.000 NA
ATOM     17  C   UNL     1       6.808   4.981  15.554  0.00  0.00    +0.000 C 
ENDBRANCH   1  17
TORSDOF 2
ENDMDL
MODEL 4
REMARK VINA RESULT:      -6.9      2.899      5.571
REMARK  Name = 
REMARK  2 active torsions:
REMARK  status: ('A' for Active; 'I' for Inactive)
REMARK    1  A    between atoms: C_2  and  C_3
REMARK    2  A    between atoms: C_11  and  C_12
REMARK                            x       y       z     vdW  Elec       q    Type
REMARK                         _______ _______ _______ _____ _____    ______ ____
ROOT
ATOM      1  C   UNL     1       5.021   5.126  17.182  0.00  0.00    +0.000 A 
ATOM      2  C   UNL     1       4.406   4.023  16.585  0.00  0.00    +0.000 A 
ATOM      3  C   UNL     1       3.211   3.525  17.104  0.00  0.00    +0.000 A 
ATOM      4  C   UNL     1       2.625   4.129  18.224  0.00  0.00    +0.000 A 
ATOM      5  C   UNL     1       3.216   5.269  18.804  0.00  0.00    +0.000 A 
ATOM      6  C   UNL     1       4.426   5.748  18.286  0.00  0.00    +0.000 A 
ATOM      7  C   UNL     1       2.610   5.946  20.012  0.00  0.00    +0.000 C 
ATOM      8  N   UNL     1       1.231   5.526  20.289  0.00  0.00    +0.000 NA
ATOM      9  C   UNL     1       1.128   4.034  20.254  0.00  0.00    +0.000 C 
ATOM     10  C   UNL     1       1.349   3.561  18.803  0.00  0.00    +0.000 C 
ATOM     11  H   UNL     1       0.635   5.910  19.553  0.00  0.00    +0.000 HD
ENDROOT
BRANCH   9  12
ATOM     12  C   UNL     1       2.007   3.201  21.246  0.00  0.00    +0.000 C 
ATOM     13  F   UNL     1       2.494   3.939  22.268  0.00  0.00    +0.000 F 
ATOM     14  F   UNL     1       1.273   2.205  21.799  0.00  0.00    +0.000 F 
ATOM     15  F   UNL     1       3.064   2.620  20.636  0.00  0.00    +0.000 F 
ENDBRANCH   9  12
BRANCH   1  17
ATOM     16  N   UNL     1       7.260   6.033  16.243  0.00  0.00    +0.000 NA
ATOM     17  C   UNL     1       6.262   5.621  16.662  0.00  0.00    +0.000 C 
ENDBRANCH   1  17
TORSDOF 2
ENDMDL
MODEL 5
REMARK VINA RESULT:      -6.9      2.334      2.927
REMARK  Name = 
REMARK  2 active torsions:
REMARK  status: ('A' for Active; 'I' for Inactive)
REMARK    1  A    between atoms: C_2  and  C_3
REMARK    2  A    between atoms: C_11  and  C_12
REMARK                            x       y       z     vdW  Elec       q    Type
REMARK                         _______ _______ _______ _____ _____    ______ ____
ROOT
ATOM      1  C   UNL     1       2.654   3.037  19.802  0.00  0.00    +0.000 A 
ATOM      2  C   UNL     1       2.006   2.765  18.594  0.00  0.00    +0.000 A 
ATOM      3  C   UNL     1       2.637   3.055  17.384  0.00  0.00    +0.000 A 
ATOM      4  C   UNL     1       3.919   3.617  17.377  0.00  0.00    +0.000 A 
ATOM      5  C   UNL     1       4.596   3.853  18.590  0.00  0.00    +0.000 A 
ATOM      6  C   UNL     1       3.945   3.576  19.799  0.00  0.00    +0.000 A 
ATOM      7  C   UNL     1       5.981   4.458  18.619  0.00  0.00    +0.000 C 
ATOM      8  N   UNL     1       6.651   4.451  17.312  0.00  0.00    +0.000 NA
ATOM      9  C   UNL     1       5.729   4.974  16.256  0.00  0.00    +0.000 C 
ATOM     10  C   UNL     1       4.582   3.963  16.062  0.00  0.00    +0.000 C 
ATOM     11  H   UNL     1       6.885   3.482  17.088  0.00  0.00    +0.000 HD
ENDROOT
BRANCH   9  12
ATOM     12  C   UNL     1       5.165   6.426  16.409  0.00  0.00    +0.000 C 
ATOM     13  F   UNL     1       6.011   7.257  17.057  0.00  0.00    +0.000 F 
ATOM     14  F   UNL     1       4.940   6.973  15.190  0.00  0.00    +0.000 F 
ATOM     15  F   UNL     1       3.990   6.456  17.077  0.00  0.00    +0.000 F 
ENDBRANCH   9  12
BRANCH   1  17
ATOM     16  N   UNL     1       1.460   2.550  22.050  0.00  0.00    +0.000 NA
ATOM     17  C   UNL     1       1.993   2.761  21.045  0.00  0.00    +0.000 C 
ENDBRANCH   1  17
TORSDOF 2
ENDMDL
MODEL 6
REMARK VINA RESULT:      -6.8      3.002      5.614
REMARK  Name = 
REMARK  2 active torsions:
REMARK  status: ('A' for Active; 'I' for Inactive)
REMARK    1  A    between atoms: C_2  and  C_3
REMARK    2  A    between atoms: C_11  and  C_12
REMARK                            x       y       z     vdW  Elec       q    Type
REMARK                         _______ _______ _______ _____ _____    ______ ____
ROOT
ATOM      1  C   UNL     1       5.346   5.650  17.757  0.00  0.00    +0.000 A 
ATOM      2  C   UNL     1       5.985   4.582  18.393  0.00  0.00    +0.000 A 
ATOM      3  C   UNL     1       5.239   3.493  18.845  0.00  0.00    +0.000 A 
ATOM      4  C   UNL     1       3.851   3.468  18.664  0.00  0.00    +0.000 A 
ATOM      5  C   UNL     1       3.206   4.520  17.984  0.00  0.00    +0.000 A 
ATOM      6  C   UNL     1       3.963   5.617  17.551  0.00  0.00    +0.000 A 
ATOM      7  C   UNL     1       1.710   4.525  17.770  0.00  0.00    +0.000 C 
ATOM      8  N   UNL     1       1.078   3.224  18.022  0.00  0.00    +0.000 NA
ATOM      9  C   UNL     1       1.552   2.663  19.325  0.00  0.00    +0.000 C 
ATOM     10  C   UNL     1       3.045   2.302  19.190  0.00  0.00    +0.000 C 
ATOM     11  H   UNL     1       1.363   2.589  17.273  0.00  0.00    +0.000 HD
ENDROOT
BRANCH   9  12
ATOM     12  C   UNL     1       1.300   3.489  20.630  0.00  0.00    +0.000 C 
ATOM     13  F   UNL     1       2.398   4.151  21.058  0.00  0.00    +0.000 F 
ATOM     14  F   UNL     1       0.342   4.423  20.416  0.00  0.00    +0.000 F 
ATOM     15  F   UNL     1       0.876   2.718  21.657  0.00  0.00    +0.000 F 
ENDBRANCH   9  12
BRANCH   1  17
ATOM     16  N   UNL     1       6.740   7.685  16.961  0.00  0.00    +0.000 NA
ATOM     17  C   UNL     1       6.112   6.779  17.313  0.00  0.00    +0.000 C 
ENDBRANCH   1  17
TORSDOF 2
ENDMDL
MODEL 7
REMARK VINA RESULT:      -6.8      3.364      5.141
REMARK  Name = 
REMARK  2 active torsions:
REMARK  status: ('A' for Active; 'I' for Inactive)
REMARK    1  A    between atoms: C_2  and  C_3
REMARK    2  A    between atoms: C_11  and  C_12
REMARK                            x       y       z     vdW  Elec       q    Type
REMARK                         _______ _______ _______ _____ _____    ______ ____
ROOT
ATOM      1  C   UNL     1       5.247   4.583  15.891  0.00  0.00    +0.000 A 
ATOM      2  C   UNL     1       4.994   5.892  16.306  0.00  0.00    +0.000 A 
ATOM      3  C   UNL     1       4.408   6.128  17.549  0.00  0.00    +0.000 A 
ATOM      4  C   UNL     1       4.071   5.055  18.383  0.00  0.00    +0.000 A 
ATOM      5  C   UNL     1       4.364   3.734  17.990  0.00  0.00    +0.000 A 
ATOM      6  C   UNL     1       4.936   3.508  16.731  0.00  0.00    +0.000 A 
ATOM      7  C   UNL     1       4.016   2.552  18.866  0.00  0.00    +0.000 C 
ATOM      8  N   UNL     1       3.678   2.924  20.245  0.00  0.00    +0.000 NA
ATOM      9  C   UNL     1       2.697   4.054  20.249  0.00  0.00    +0.000 C 
ATOM     10  C   UNL     1       3.402   5.316  19.714  0.00  0.00    +0.000 C 
ATOM     11  H   UNL     1       4.536   3.237  20.702  0.00  0.00    +0.000 HD
ENDROOT
BRANCH   9  12
ATOM     12  C   UNL     1       1.318   3.850  19.540  0.00  0.00    +0.000 C 
ATOM     13  F   UNL     1       1.017   2.548  19.334  0.00  0.00    +0.000 F 
ATOM     14  F   UNL     1       0.319   4.364  20.299  0.00  0.00    +0.000 F 
ATOM     15  F   UNL     1       1.257   4.466  18.338  0.00  0.00    +0.000 F 
ENDBRANCH   9  12
BRANCH   1  17
ATOM     16  N   UNL     1       6.308   4.152  13.565  0.00  0.00    +0.000 NA
ATOM     17  C   UNL     1       5.828   4.341  14.602  0.00  0.00    +0.000 C 
ENDBRANCH   1  17
TORSDOF 2
ENDMDL
MODEL 8
REMARK VINA RESULT:      -6.7      1.730      1.801
REMARK  Name = 
REMARK  2 active torsions:
REMARK  status: ('A' for Active; 'I' for Inactive)
REMARK    1  A    between atoms: C_2  and  C_3
REMARK    2  A    between atoms: C_11  and  C_12
REMARK                            x       y       z     vdW  Elec       q    Type
REMARK                         _______ _______ _______ _____ _____    ______ ____
ROOT
ATOM      1  C   UNL     1       2.621   4.133  20.185  0.00  0.00    +0.000 A 
ATOM      2  C   UNL     1       2.410   5.513  20.231  0.00  0.00    +0.000 A 
ATOM      3  C   UNL     1       2.976   6.338  19.258  0.00  0.00    +0.000 A 
ATOM      4  C   UNL     1       3.757   5.785  18.235  0.00  0.00    +0.000 A 
ATOM      5  C   UNL     1       3.938   4.390  18.158  0.00  0.00    +0.000 A 
ATOM      6  C   UNL     1       3.380   3.574  19.151  0.00  0.00    +0.000 A 
ATOM      7  C   UNL     1       4.773   3.759  17.067  0.00  0.00    +0.000 C 
ATOM      8  N   UNL     1       5.071   4.672  15.956  0.00  0.00    +0.000 NA
ATOM      9  C   UNL     1       5.562   5.983  16.483  0.00  0.00    +0.000 C 
ATOM     10  C   UNL     1       4.398   6.688  17.206  0.00  0.00    +0.000 C 
ATOM     11  H   UNL     1       4.202   4.832  15.444  0.00  0.00    +0.000 HD
ENDROOT
BRANCH   9  12
ATOM     12  C   UNL     1       6.852   5.997  17.369  0.00  0.00    +0.000 C 
ATOM     13  F   UNL     1       7.618   4.895  17.206  0.00  0.00    +0.000 F 
ATOM     14  F   UNL     1       7.629   7.061  17.051  0.00  0.00    +0.000 F 
ATOM     15  F   UNL     1       6.571   6.094  18.688  0.00  0.00    +0.000 F 
ENDBRANCH   9  12
BRANCH   1  17
ATOM     16  N   UNL     1       1.614   2.610  22.025  0.00  0.00    +0.000 NA
ATOM     17  C   UNL     1       2.058   3.290  21.200  0.00  0.00    +0.000 C 
ENDBRANCH   1  17
TORSDOF 2
ENDMDL
MODEL 9
REMARK VINA RESULT:      -6.7      3.291      5.510
REMARK  Name = 
REMARK  2 active torsions:
REMARK  status: ('A' for Active; 'I' for Inactive)
REMARK    1  A    between atoms: C_2  and  C_3
REMARK    2  A    between atoms: C_11  and  C_12
REMARK                            x       y       z     vdW  Elec       q    Type
REMARK                         _______ _______ _______ _____ _____    ______ ____
ROOT
ATOM      1  C   UNL     1       5.495   5.999  17.697  0.00  0.00    +0.000 A 
ATOM      2  C   UNL     1       4.378   6.837  17.683  0.00  0.00    +0.000 A 
ATOM      3  C   UNL     1       3.204   6.445  18.326  0.00  0.00    +0.000 A 
ATOM      4  C   UNL     1       3.142   5.211  18.986  0.00  0.00    +0.000 A 
ATOM      5  C   UNL     1       4.279   4.380  19.042  0.00  0.00    +0.000 A 
ATOM      6  C   UNL     1       5.446   4.776  18.376  0.00  0.00    +0.000 A 
ATOM      7  C   UNL     1       4.248   3.043  19.746  0.00  0.00    +0.000 C 
ATOM      8  N   UNL     1       3.079   2.867  20.617  0.00  0.00    +0.000 NA
ATOM      9  C   UNL     1       1.830   3.254  19.890  0.00  0.00    +0.000 C 
ATOM     10  C   UNL     1       1.855   4.776  19.648  0.00  0.00    +0.000 C 
ATOM     11  H   UNL     1       3.193   3.488  21.420  0.00  0.00    +0.000 HD
ENDROOT
BRANCH   9  12
ATOM     12  C   UNL     1       1.466   2.492  18.572  0.00  0.00    +0.000 C 
ATOM     13  F   UNL     1       2.235   1.400  18.362  0.00  0.00    +0.000 F 
ATOM     14  F   UNL     1       0.182   2.060  18.619  0.00  0.00    +0.000 F 
ATOM     15  F   UNL     1       1.579   3.274  17.475  0.00  0.00    +0.000 F 
ENDBRANCH   9  12
BRANCH   1  17
ATOM     16  N   UNL     1       7.658   6.724  16.467  0.00  0.00    +0.000 NA
ATOM     17  C   UNL     1       6.694   6.394  17.015  0.00  0.00    +0.000 C 
ENDBRANCH   1  17
TORSDOF 2
ENDMDL
