MODEL 1
REMARK VINA RESULT:      -6.4      0.000      0.000
REMARK  Name = 
REMARK  5 active torsions:
REMARK  status: ('A' for Active; 'I' for Inactive)
REMARK    1  A    between atoms: C_1  and  C_2
REMARK    2  A    between atoms: C_2  and  C_3
REMARK    3  A    between atoms: C_3  and  C_4
REMARK    4  A    between atoms: C_7  and  C_8
REMARK    5  A    between atoms: N_10  and  C_11
REMARK                            x       y       z     vdW  Elec       q    Type
REMARK                         _______ _______ _______ _____ _____    ______ ____
ROOT
ATOM      1  C   UNL     1       5.290   4.660  18.701  0.00  0.00    +0.000 C 
ATOM      2  O   UNL     1       5.623   5.296  19.702  0.00  0.00    +0.000 OA
ATOM      3  N   UNL     1       4.299   3.692  18.715  0.00  0.00    +0.000 N 
ATOM      4  H   UNL     1       4.305   3.008  17.971  0.00  0.00    +0.000 HD
ENDROOT
BRANCH   1   8
ATOM      5  C   UNL     1       6.686   4.754  15.107  0.00  0.00    +0.000 A 
ATOM      6  N   UNL     1       7.510   5.508  15.814  0.00  0.00    +0.000 NA
ATOM      7  C   UNL     1       7.102   5.534  17.137  0.00  0.00    +0.000 A 
ATOM      8  C   UNL     1       5.972   4.800  17.428  0.00  0.00    +0.000 A 
ATOM      9  S   UNL     1       5.415   4.029  16.004  0.00  0.00    +0.000 S 
BRANCH   5  10
ATOM     10  C   UNL     1       6.812   4.502  13.639  0.00  0.00    +0.000 C 
BRANCH  10  12
ATOM     11  C   UNL     1       5.965   2.823  11.965  0.00  0.00    +0.000 C 
ATOM     12  C   UNL     1       5.586   3.782  13.083  0.00  0.00    +0.000 C 
ENDBRANCH  10  12
ENDBRANCH   5  10
ENDBRANCH   1   8
BRANCH   3  13
ATOM     13  C   UNL     1       3.601   3.395  19.858  0.00  0.00    +0.000 A 
ATOM     14  C   UNL     1       3.739   2.471  20.870  0.00  0.00    +0.000 A 
ATOM     15  N   UNL     1       2.740   2.518  21.833  0.00  0.00    +0.000 NA
ATOM     16  N   UNL     1       1.837   3.449  21.558  0.00  0.00    +0.000 NA
ATOM     17  S   UNL     1       2.216   4.334  20.186  0.00  0.00    +0.000 S 
ENDBRANCH   3  13
TORSDOF 4
ENDMDL
MODEL 2
REMARK VINA RESULT:      -6.3      1.006      1.147
REMARK  Name = 
REMARK  5 active torsions:
REMARK  status: ('A' for Active; 'I' for Inactive)
REMARK    1  A    between atoms: C_1  and  C_2
REMARK    2  A    between atoms: C_2  and  C_3
REMARK    3  A    between atoms: C_3  and  C_4
REMARK    4  A    between atoms: C_7  and  C_8
REMARK    5  A    between atoms: N_10  and  C_11
REMARK                            x       y       z     vdW  Elec       q    Type
REMARK                         _______ _______ _______ _____ _____    ______ ____
ROOT
ATOM      1  C   UNL     1       5.410   4.498  18.313  0.00  0.00    +0.000 C 
ATOM      2  O   UNL     1       6.056   4.400  19.357  0.00  0.00    +0.000 OA
ATOM      3  N   UNL     1       4.036   4.335  18.256  0.00  0.00    +0.000 N 
ATOM      4  H   UNL     1       3.629   4.110  17.358  0.00  0.00    +0.000 HD
ENDROOT
BRANCH   1   8
ATOM      5  C   UNL     1       6.670   4.764  14.678  0.00  0.00    +0.000 A 
ATOM      6  N   UNL     1       7.507   5.502  15.385  0.00  0.00    +0.000 NA
ATOM      7  C   UNL     1       7.149   5.467  16.722  0.00  0.00    +0.000 A 
ATOM      8  C   UNL     1       6.042   4.702  17.024  0.00  0.00    +0.000 A 
ATOM      9  S   UNL     1       5.445   3.980  15.590  0.00  0.00    +0.000 S 
BRANCH   5  10
ATOM     10  C   UNL     1       6.746   4.574  13.197  0.00  0.00    +0.000 C 
BRANCH  10  12
ATOM     11  C   UNL     1       4.938   3.422  11.877  0.00  0.00    +0.000 C 
ATOM     12  C   UNL     1       6.155   3.234  12.769  0.00  0.00    +0.000 C 
ENDBRANCH  10  12
ENDBRANCH   5  10
ENDBRANCH   1   8
BRANCH   3  13
ATOM     13  C   UNL     1       3.296   4.073  19.382  0.00  0.00    +0.000 A 
ATOM     14  C   UNL     1       2.746   4.840  20.384  0.00  0.00    +0.000 A 
ATOM     15  N   UNL     1       2.092   4.114  21.372  0.00  0.00    +0.000 NA
ATOM     16  N   UNL     1       2.154   2.810  21.144  0.00  0.00    +0.000 NA
ATOM     17  S   UNL     1       2.927   2.440  19.703  0.00  0.00    +0.000 S 
ENDBRANCH   3  13
TORSDOF 4
ENDMDL
MODEL 3
REMARK VINA RESULT:      -6.1      1.004      1.016
REMARK  Name = 
REMARK  5 active torsions:
REMARK  status: ('A' for Active; 'I' for Inactive)
REMARK    1  A    between atoms: C_1  and  C_2
REMARK    2  A    between atoms: C_2  and  C_3
REMARK    3  A    between atoms: C_3  and  C_4
REMARK    4  A    between atoms: C_7  and  C_8
REMARK    5  A    between atoms: N_10  and  C_11
REMARK                            x       y       z     vdW  Elec       q    Type
REMARK                         _______ _______ _______ _____ _____    ______ ____
ROOT
ATOM      1  C   UNL     1       4.415   4.826  18.410  0.00  0.00    +0.000 C 
ATOM      2  O   UNL     1       4.752   5.541  19.354  0.00  0.00    +0.000 OA
ATOM      3  N   UNL     1       3.574   3.735  18.548  0.00  0.00    +0.000 N 
ATOM      4  H   UNL     1       3.601   3.029  17.826  0.00  0.00    +0.000 HD
ENDROOT
BRANCH   1   8
ATOM      5  C   UNL     1       5.860   4.763  14.835  0.00  0.00    +0.000 A 
ATOM      6  N   UNL     1       5.557   6.030  15.059  0.00  0.00    +0.000 NA
ATOM      7  C   UNL     1       5.035   6.168  16.333  0.00  0.00    +0.000 A 
ATOM      8  C   UNL     1       4.944   5.007  17.071  0.00  0.00    +0.000 A 
ATOM      9  S   UNL     1       5.558   3.701  16.148  0.00  0.00    +0.000 S 
BRANCH   5  10
ATOM     10  C   UNL     1       6.441   4.241  13.559  0.00  0.00    +0.000 C 
BRANCH  10  12
ATOM     11  C   UNL     1       5.879   2.548  11.782  0.00  0.00    +0.000 C 
ATOM     12  C   UNL     1       5.359   3.700  12.628  0.00  0.00    +0.000 C 
ENDBRANCH  10  12
ENDBRANCH   5  10
ENDBRANCH   1   8
BRANCH   3  13
ATOM     13  C   UNL     1       3.038   3.391  19.765  0.00  0.00    +0.000 A 
ATOM     14  C   UNL     1       3.469   2.654  20.844  0.00  0.00    +0.000 A 
ATOM     15  N   UNL     1       2.542   2.541  21.871  0.00  0.00    +0.000 NA
ATOM     16  N   UNL     1       1.409   3.164  21.581  0.00  0.00    +0.000 NA
ATOM     17  S   UNL     1       1.469   3.962  20.108  0.00  0.00    +0.000 S 
ENDBRANCH   3  13
TORSDOF 4
ENDMDL
MODEL 4
REMARK VINA RESULT:      -6.0      1.429      1.582
REMARK  Name = 
REMARK  5 active torsions:
REMARK  status: ('A' for Active; 'I' for Inactive)
REMARK    1  A    between atoms: C_1  and  C_2
REMARK    2  A    between atoms: C_2  and  C_3
REMARK    3  A    between atoms: C_3  and  C_4
REMARK    4  A    between atoms: C_7  and  C_8
REMARK    5  A    between atoms: N_10  and  C_11
REMARK                            x       y       z     vdW  Elec       q    Type
REMARK                         _______ _______ _______ _____ _____    ______ ____
ROOT
ATOM      1  C   UNL     1       3.970   5.054  18.443  0.00  0.00    +0.000 C 
ATOM      2  O   UNL     1       4.026   5.817  19.408  0.00  0.00    +0.000 OA
ATOM      3  N   UNL     1       3.293   3.846  18.470  0.00  0.00    +0.000 N 
ATOM      4  H   UNL     1       3.553   3.149  17.786  0.00  0.00    +0.000 HD
ENDROOT
BRANCH   1   8
ATOM      5  C   UNL     1       5.936   5.184  15.127  0.00  0.00    +0.000 A 
ATOM      6  N   UNL     1       5.587   6.436  15.367  0.00  0.00    +0.000 NA
ATOM      7  C   UNL     1       4.877   6.505  16.554  0.00  0.00    +0.000 A 
ATOM      8  C   UNL     1       4.692   5.306  17.210  0.00  0.00    +0.000 A 
ATOM      9  S   UNL     1       5.454   4.054  16.325  0.00  0.00    +0.000 S 
BRANCH   5  10
ATOM     10  C   UNL     1       6.708   4.732  13.929  0.00  0.00    +0.000 C 
BRANCH  10  12
ATOM     11  C   UNL     1       5.253   3.631  12.193  0.00  0.00    +0.000 C 
ATOM     12  C   UNL     1       6.176   3.410  13.382  0.00  0.00    +0.000 C 
ENDBRANCH  10  12
ENDBRANCH   5  10
ENDBRANCH   1   8
BRANCH   3  13
ATOM     13  C   UNL     1       2.611   3.431  19.587  0.00  0.00    +0.000 A 
ATOM     14  C   UNL     1       1.317   3.557  20.039  0.00  0.00    +0.000 A 
ATOM     15  N   UNL     1       1.084   2.989  21.284  0.00  0.00    +0.000 NA
ATOM     16  N   UNL     1       2.184   2.451  21.791  0.00  0.00    +0.000 NA
ATOM     17  S   UNL     1       3.492   2.548  20.748  0.00  0.00    +0.000 S 
ENDBRANCH   3  13
TORSDOF 4
ENDMDL
MODEL 5
REMARK VINA RESULT:      -5.8      2.290      6.980
REMARK  Name = 
REMARK  5 active torsions:
REMARK  status: ('A' for Active; 'I' for Inactive)
REMARK    1  A    between atoms: C_1  and  C_2
REMARK    2  A    between atoms: C_2  and  C_3
REMARK    3  A    between atoms: C_3  and  C_4
REMARK    4  A    between atoms: C_7  and  C_8
REMARK    5  A    between atoms: N_10  and  C_11
REMARK                            x       y       z     vdW  Elec       q    Type
REMARK                         _______ _______ _______ _____ _____    ______ ____
ROOT
ATOM      1  C   UNL     1       4.998   4.364  16.688  0.00  0.00    +0.000 C 
ATOM      2  O   UNL     1       4.782   5.560  16.491  0.00  0.00    +0.000 OA
ATOM      3  N   UNL     1       5.823   3.600  15.881  0.00  0.00    +0.000 N 
ATOM      4  H   UNL     1       5.700   2.597  15.903  0.00  0.00    +0.000 HD
ENDROOT
BRANCH   1   8
ATOM      5  C   UNL     1       3.315   2.810  19.791  0.00  0.00    +0.000 A 
ATOM      6  N   UNL     1       3.088   1.951  18.813  0.00  0.00    +0.000 NA
ATOM      7  C   UNL     1       3.666   2.412  17.642  0.00  0.00    +0.000 A 
ATOM      8  C   UNL     1       4.329   3.617  17.737  0.00  0.00    +0.000 A 
ATOM      9  S   UNL     1       4.249   4.181  19.352  0.00  0.00    +0.000 S 
BRANCH   5  10
ATOM     10  C   UNL     1       2.834   2.644  21.198  0.00  0.00    +0.000 C 
BRANCH  10  12
ATOM     11  C   UNL     1       0.862   4.023  20.458  0.00  0.00    +0.000 C 
ATOM     12  C   UNL     1       1.325   2.848  21.304  0.00  0.00    +0.000 C 
ENDBRANCH  10  12
ENDBRANCH   5  10
ENDBRANCH   1   8
BRANCH   3  13
ATOM     13  C   UNL     1       6.481   4.145  14.806  0.00  0.00    +0.000 A 
ATOM     14  C   UNL     1       7.456   5.103  14.648  0.00  0.00    +0.000 A 
ATOM     15  N   UNL     1       7.798   5.364  13.327  0.00  0.00    +0.000 NA
ATOM     16  N   UNL     1       7.085   4.633  12.483  0.00  0.00    +0.000 NA
ATOM     17  S   UNL     1       6.053   3.566  13.261  0.00  0.00    +0.000 S 
ENDBRANCH   3  13
TORSDOF 4
ENDMDL
MODEL 6
REMARK VINA RESULT:      -5.8      3.384      4.140
REMARK  Name = 
REMARK  5 active torsions:
REMARK  status: ('A' for Active; 'I' for Inactive)
REMARK    1  A    between atoms: C_1  and  C_2
REMARK    2  A    between atoms: C_2  and  C_3
REMARK    3  A    between atoms: C_3  and  C_4
REMARK    4  A    between atoms: C_7  and  C_8
REMARK    5  A    between atoms: N_10  and  C_11
REMARK                            x       y       z     vdW  Elec       q    Type
REMARK                         _______ _______ _______ _____ _____    ______ ____
ROOT
ATOM      1  C   UNL     1       4.973   4.284  19.148  0.00  0.00    +0.000 C 
ATOM      2  O   UNL     1       5.188   3.168  19.622  0.00  0.00    +0.000 OA
ATOM      3  N   UNL     1       3.713   4.714  18.766  0.00  0.00    +0.000 N 
ATOM      4  H   UNL     1       3.660   5.479  18.108  0.00  0.00    +0.000 HD
ENDROOT
BRANCH   1   8
ATOM      5  C   UNL     1       7.465   6.998  18.010  0.00  0.00    +0.000 A 
ATOM      6  N   UNL     1       8.057   6.394  19.026  0.00  0.00    +0.000 NA
ATOM      7  C   UNL     1       7.244   5.383  19.508  0.00  0.00    +0.000 A 
ATOM      8  C   UNL     1       6.039   5.224  18.857  0.00  0.00    +0.000 A 
ATOM      9  S   UNL     1       5.931   6.360  17.581  0.00  0.00    +0.000 S 
BRANCH   5  10
ATOM     10  C   UNL     1       8.047   8.144  17.246  0.00  0.00    +0.000 C 
BRANCH  10  12
ATOM     11  C   UNL     1       9.104   9.857  18.759  0.00  0.00    +0.000 C 
ATOM     12  C   UNL     1       7.856   9.468  17.982  0.00  0.00    +0.000 C 
ENDBRANCH  10  12
ENDBRANCH   5  10
ENDBRANCH   1   8
BRANCH   3  13
ATOM     13  C   UNL     1       2.606   3.916  18.917  0.00  0.00    +0.000 A 
ATOM     14  C   UNL     1       1.979   2.966  18.144  0.00  0.00    +0.000 A 
ATOM     15  N   UNL     1       0.828   2.431  18.708  0.00  0.00    +0.000 NA
ATOM     16  N   UNL     1       0.563   2.974  19.887  0.00  0.00    +0.000 NA
ATOM     17  S   UNL     1       1.731   4.074  20.371  0.00  0.00    +0.000 S 
ENDBRANCH   3  13
TORSDOF 4
ENDMDL
MODEL 7
REMARK VINA RESULT:      -5.7      2.442      6.988
REMARK  Name = 
REMARK  5 active torsions:
REMARK  status: ('A' for Active; 'I' for Inactive)
REMARK    1  A    between atoms: C_1  and  C_2
REMARK    2  A    between atoms: C_2  and  C_3
REMARK    3  A    between atoms: C_3  and  C_4
REMARK    4  A    between atoms: C_7  and  C_8
REMARK    5  A    between atoms: N_10  and  C_11
REMARK                            x       y       z     vdW  Elec       q    Type
REMARK                         _______ _______ _______ _____ _____    ______ ____
ROOT
ATOM      1  C   UNL     1       4.469   5.094  16.698  0.00  0.00    +0.000 C 
ATOM      2  O   UNL     1       4.667   6.303  16.579  0.00  0.00    +0.000 OA
ATOM      3  N   UNL     1       5.160   4.138  15.972  0.00  0.00    +0.000 N 
ATOM      4  H   UNL     1       4.737   3.225  15.880  0.00  0.00    +0.000 HD
ENDROOT
BRANCH   1   8
ATOM      5  C   UNL     1       1.798   4.079  19.289  0.00  0.00    +0.000 A 
ATOM      6  N   UNL     1       1.617   3.257  18.271  0.00  0.00    +0.000 NA
ATOM      7  C   UNL     1       2.541   3.530  17.278  0.00  0.00    +0.000 A 
ATOM      8  C   UNL     1       3.421   4.557  17.546  0.00  0.00    +0.000 A 
ATOM      9  S   UNL     1       3.097   5.186  19.105  0.00  0.00    +0.000 S 
BRANCH   5  10
ATOM     10  C   UNL     1       0.977   4.080  20.539  0.00  0.00    +0.000 C 
BRANCH  10  12
ATOM     11  C   UNL     1       2.694   2.577  21.602  0.00  0.00    +0.000 C 
ATOM     12  C   UNL     1       1.211   2.820  21.368  0.00  0.00    +0.000 C 
ENDBRANCH  10  12
ENDBRANCH   5  10
ENDBRANCH   1   8
BRANCH   3  13
ATOM     13  C   UNL     1       6.141   4.487  15.078  0.00  0.00    +0.000 A 
ATOM     14  C   UNL     1       7.289   5.245  15.140  0.00  0.00    +0.000 A 
ATOM     15  N   UNL     1       7.973   5.354  13.937  0.00  0.00    +0.000 NA
ATOM     16  N   UNL     1       7.352   4.708  12.960  0.00  0.00    +0.000 NA
ATOM     17  S   UNL     1       5.985   3.894  13.487  0.00  0.00    +0.000 S 
ENDBRANCH   3  13
TORSDOF 4
ENDMDL
MODEL 8
REMARK VINA RESULT:      -5.6      2.431      6.915
REMARK  Name = 
REMARK  5 active torsions:
REMARK  status: ('A' for Active; 'I' for Inactive)
REMARK    1  A    between atoms: C_1  and  C_2
REMARK    2  A    between atoms: C_2  and  C_3
REMARK    3  A    between atoms: C_3  and  C_4
REMARK    4  A    between atoms: C_7  and  C_8
REMARK    5  A    between atoms: N_10  and  C_11
REMARK                            x       y       z     vdW  Elec       q    Type
REMARK                         _______ _______ _______ _____ _____    ______ ____
ROOT
ATOM      1  C   UNL     1       5.156   4.677  16.257  0.00  0.00    +0.000 C 
ATOM      2  O   UNL     1       4.936   5.849  15.952  0.00  0.00    +0.000 OA
ATOM      3  N   UNL     1       5.960   3.836  15.504  0.00  0.00    +0.000 N 
ATOM      4  H   UNL     1       5.837   2.840  15.626  0.00  0.00    +0.000 HD
ENDROOT
BRANCH   1   8
ATOM      5  C   UNL     1       3.043   2.867  18.927  0.00  0.00    +0.000 A 
ATOM      6  N   UNL     1       4.198   3.118  19.518  0.00  0.00    +0.000 NA
ATOM      7  C   UNL     1       5.037   3.784  18.641  0.00  0.00    +0.000 A 
ATOM      8  C   UNL     1       4.516   4.035  17.390  0.00  0.00    +0.000 A 
ATOM      9  S   UNL     1       2.911   3.442  17.316  0.00  0.00    +0.000 S 
BRANCH   5  10
ATOM     10  C   UNL     1       1.896   2.155  19.571  0.00  0.00    +0.000 C 
BRANCH  10  12
ATOM     11  C   UNL     1       1.134   4.340  20.563  0.00  0.00    +0.000 C 
ATOM     12  C   UNL     1       0.712   3.090  19.806  0.00  0.00    +0.000 C 
ENDBRANCH  10  12
ENDBRANCH   5  10
ENDBRANCH   1   8
BRANCH   3  13
ATOM     13  C   UNL     1       6.589   4.274  14.366  0.00  0.00    +0.000 A 
ATOM     14  C   UNL     1       7.547   5.222  14.088  0.00  0.00    +0.000 A 
ATOM     15  N   UNL     1       7.859   5.348  12.740  0.00  0.00    +0.000 NA
ATOM     16  N   UNL     1       7.140   4.524  11.992  0.00  0.00    +0.000 NA
ATOM     17  S   UNL     1       6.138   3.533  12.899  0.00  0.00    +0.000 S 
ENDBRANCH   3  13
TORSDOF 4
ENDMDL
MODEL 9
REMARK VINA RESULT:      -5.6      2.392      7.014
REMARK  Name = 
REMARK  5 active torsions:
REMARK  status: ('A' for Active; 'I' for Inactive)
REMARK    1  A    between atoms: C_1  and  C_2
REMARK    2  A    between atoms: C_2  and  C_3
REMARK    3  A    between atoms: C_3  and  C_4
REMARK    4  A    between atoms: C_7  and  C_8
REMARK    5  A    between atoms: N_10  and  C_11
REMARK                            x       y       z     vdW  Elec       q    Type
REMARK                         _______ _______ _______ _____ _____    ______ ____
ROOT
ATOM      1  C   UNL     1       5.310   5.466  16.264  0.00  0.00    +0.000 C 
ATOM      2  O   UNL     1       5.258   6.610  15.813  0.00  0.00    +0.000 OA
ATOM      3  N   UNL     1       5.950   4.423  15.614  0.00  0.00    +0.000 N 
ATOM      4  H   UNL     1       5.683   3.481  15.866  0.00  0.00    +0.000 HD
ENDROOT
BRANCH   1   8
ATOM      5  C   UNL     1       3.121   4.823  19.374  0.00  0.00    +0.000 A 
ATOM      6  N   UNL     1       4.039   3.874  19.400  0.00  0.00    +0.000 NA
ATOM      7  C   UNL     1       4.895   4.019  18.321  0.00  0.00    +0.000 A 
ATOM      8  C   UNL     1       4.622   5.078  17.482  0.00  0.00    +0.000 A 
ATOM      9  S   UNL     1       3.265   5.937  18.076  0.00  0.00    +0.000 S 
BRANCH   5  10
ATOM     10  C   UNL     1       2.025   4.975  20.380  0.00  0.00    +0.000 C 
BRANCH  10  12
ATOM     11  C   UNL     1       1.440   2.797  21.501  0.00  0.00    +0.000 C 
ATOM     12  C   UNL     1       1.091   3.767  20.382  0.00  0.00    +0.000 C 
ENDBRANCH  10  12
ENDBRANCH   5  10
ENDBRANCH   1   8
BRANCH   3  13
ATOM     13  C   UNL     1       6.595   4.612  14.417  0.00  0.00    +0.000 A 
ATOM     14  C   UNL     1       7.604   5.439  13.976  0.00  0.00    +0.000 A 
ATOM     15  N   UNL     1       7.914   5.301  12.630  0.00  0.00    +0.000 NA
ATOM     16  N   UNL     1       7.145   4.397  12.040  0.00  0.00    +0.000 NA
ATOM     17  S   UNL     1       6.095   3.643  13.107  0.00  0.00    +0.000 S 
ENDBRANCH   3  13
TORSDOF 4
ENDMDL
