MODEL 1
REMARK VINA RESULT:      -8.3      0.000      0.000
REMARK  Name = 
REMARK  6 active torsions:
REMARK  status: ('A' for Active; 'I' for Inactive)
REMARK    1  A    between atoms: C_2  and  C_3
REMARK    2  A    between atoms: C_3  and  C_4
REMARK    3  A    between atoms: C_7  and  C_8
REMARK    4  A    between atoms: C_8  and  C_9
REMARK    5  A    between atoms: C_14  and  C_15
REMARK    6  A    between atoms: N_25  and  C_26
REMARK                            x       y       z     vdW  Elec       q    Type
REMARK                         _______ _______ _______ _____ _____    ______ ____
ROOT
ATOM      1  C   UNL     1       2.296   8.401  17.874  0.00  0.00    +0.000 C 
ENDROOT
BRANCH   1   2
ATOM      2  C   UNL     1       1.447   8.995  18.954  0.00  0.00    +0.000 A 
ATOM      3  N   UNL     1       1.416   8.553  20.195  0.00  0.00    +0.000 NA
ATOM      4  C   UNL     1       0.622   9.383  20.971  0.00  0.00    +0.000 A 
ATOM      5  C   UNL     1       0.374   9.240  22.346  0.00  0.00    +0.000 A 
ATOM      6  C   UNL     1      -0.427  10.181  23.011  0.00  0.00    +0.000 A 
ATOM      7  C   UNL     1      -0.988  11.286  22.347  0.00  0.00    +0.000 A 
ATOM      8  C   UNL     1      -0.754  11.409  20.962  0.00  0.00    +0.000 A 
ATOM      9  C   UNL     1       0.042  10.456  20.299  0.00  0.00    +0.000 A 
ATOM     10  S   UNL     1       0.484  10.382  18.637  0.00  0.00    +0.000 S 
BRANCH   7  11
ATOM     11  C   UNL     1      -1.783  12.302  23.081  0.00  0.00    +0.000 A 
ATOM     12  C   UNL     1      -3.092  12.030  23.526  0.00  0.00    +0.000 A 
ATOM     13  C   UNL     1      -3.840  12.981  24.228  0.00  0.00    +0.000 A 
ATOM     14  C   UNL     1      -3.291  14.226  24.515  0.00  0.00    +0.000 A 
ATOM     15  C   UNL     1      -1.999  14.522  24.094  0.00  0.00    +0.000 A 
ATOM     16  C   UNL     1      -1.259  13.574  23.379  0.00  0.00    +0.000 A 
ENDBRANCH   7  11
ENDBRANCH   1   2
BRANCH   1  20
ATOM     17  C   UNL     1       4.193   5.527  18.719  0.00  0.00    +0.000 A 
ATOM     18  N   UNL     1       3.056   4.916  18.487  0.00  0.00    +0.000 NA
ATOM     19  N   UNL     1       2.143   5.896  18.137  0.00  0.00    +0.000 NA
ATOM     20  C   UNL     1       2.788   7.043  18.198  0.00  0.00    +0.000 A 
ATOM     21  O   UNL     1       4.106   6.889  18.558  0.00  0.00    +0.000 OA
BRANCH  17  22
ATOM     22  C   UNL     1       5.467   4.967  19.223  0.00  0.00    +0.000 C 
BRANCH  22  24
ATOM     23  O   UNL     1       7.587   4.402  18.232  0.00  0.00    +0.000 OA
ATOM     24  C   UNL     1       6.382   4.567  18.079  0.00  0.00    +0.000 C 
ATOM     25  N   UNL     1       5.762   4.489  16.846  0.00  0.00    +0.000 N 
ATOM     26  H   UNL     1       4.751   4.586  16.846  0.00  0.00    +0.000 HD
BRANCH  25  27
ATOM     27  C   UNL     1       6.395   4.020  15.591  0.00  0.00    +0.000 C 
ATOM     28  C   UNL     1       5.484   4.171  14.362  0.00  0.00    +0.000 C 
ATOM     29  O   UNL     1       6.613   4.583  13.550  0.00  0.00    +0.000 OA
ATOM     30  C   UNL     1       7.343   4.913  14.774  0.00  0.00    +0.000 C 
ENDBRANCH  25  27
ENDBRANCH  22  24
ENDBRANCH  17  22
ENDBRANCH   1  20
TORSDOF 6
ENDMDL
MODEL 2
REMARK VINA RESULT:      -8.2      4.647      9.808
REMARK  Name = 
REMARK  6 active torsions:
REMARK  status: ('A' for Active; 'I' for Inactive)
REMARK    1  A    between atoms: C_2  and  C_3
REMARK    2  A    between atoms: C_3  and  C_4
REMARK    3  A    between atoms: C_7  and  C_8
REMARK    4  A    between atoms: C_8  and  C_9
REMARK    5  A    between atoms: C_14  and  C_15
REMARK    6  A    between atoms: N_25  and  C_26
REMARK                            x       y       z     vdW  Elec       q    Type
REMARK                         _______ _______ _______ _____ _____    ______ ____
ROOT
ATOM      1  C   UNL     1      -0.750  11.728  22.757  0.00  0.00    +0.000 C 
ENDROOT
BRANCH   1   2
ATOM      2  C   UNL     1      -0.161  10.831  21.713  0.00  0.00    +0.000 A 
ATOM      3  N   UNL     1       0.043  11.191  20.462  0.00  0.00    +0.000 NA
ATOM      4  C   UNL     1       0.701  10.177  19.783  0.00  0.00    +0.000 A 
ATOM      5  C   UNL     1       1.107  10.213  18.438  0.00  0.00    +0.000 A 
ATOM      6  C   UNL     1       1.797   9.121  17.891  0.00  0.00    +0.000 A 
ATOM      7  C   UNL     1       2.118   7.983  18.650  0.00  0.00    +0.000 A 
ATOM      8  C   UNL     1       1.686   7.946  19.992  0.00  0.00    +0.000 A 
ATOM      9  C   UNL     1       0.985   9.040  20.533  0.00  0.00    +0.000 A 
ATOM     10  S   UNL     1       0.364   9.248  22.125  0.00  0.00    +0.000 S 
BRANCH   7  11
ATOM     11  C   UNL     1       2.902   6.865  18.069  0.00  0.00    +0.000 A 
ATOM     12  C   UNL     1       4.128   7.091  17.412  0.00  0.00    +0.000 A 
ATOM     13  C   UNL     1       4.876   6.039  16.873  0.00  0.00    +0.000 A 
ATOM     14  C   UNL     1       4.423   4.730  16.992  0.00  0.00    +0.000 A 
ATOM     15  C   UNL     1       3.220   4.474  17.641  0.00  0.00    +0.000 A 
ATOM     16  C   UNL     1       2.467   5.530  18.165  0.00  0.00    +0.000 A 
ENDBRANCH   7  11
ENDBRANCH   1   2
BRANCH   1  20
ATOM     17  C   UNL     1      -3.927  12.677  21.498  0.00  0.00    +0.000 A 
ATOM     18  N   UNL     1      -4.310  12.378  22.717  0.00  0.00    +0.000 NA
ATOM     19  N   UNL     1      -3.179  11.961  23.397  0.00  0.00    +0.000 NA
ATOM     20  C   UNL     1      -2.185  12.018  22.536  0.00  0.00    +0.000 A 
ATOM     21  O   UNL     1      -2.582  12.472  21.301  0.00  0.00    +0.000 OA
BRANCH  17  22
ATOM     22  C   UNL     1      -4.747  13.076  20.333  0.00  0.00    +0.000 C 
BRANCH  22  24
ATOM     23  O   UNL     1      -5.389  11.340  18.794  0.00  0.00    +0.000 OA
ATOM     24  C   UNL     1      -4.531  12.135  19.161  0.00  0.00    +0.000 C 
ATOM     25  N   UNL     1      -3.269  12.190  18.602  0.00  0.00    +0.000 N 
ATOM     26  H   UNL     1      -2.659  12.927  18.946  0.00  0.00    +0.000 HD
BRANCH  25  27
ATOM     27  C   UNL     1      -2.829  11.461  17.390  0.00  0.00    +0.000 C 
ATOM     28  C   UNL     1      -2.567   9.967  17.645  0.00  0.00    +0.000 C 
ATOM     29  O   UNL     1      -3.159   9.624  16.366  0.00  0.00    +0.000 OA
ATOM     30  C   UNL     1      -3.829  10.924  16.354  0.00  0.00    +0.000 C 
ENDBRANCH  25  27
ENDBRANCH  22  24
ENDBRANCH  17  22
ENDBRANCH   1  20
TORSDOF 6
ENDMDL
MODEL 3
REMARK VINA RESULT:      -7.9      4.690     10.075
REMARK  Name = 
REMARK  6 active torsions:
REMARK  status: ('A' for Active; 'I' for Inactive)
REMARK    1  A    between atoms: C_2  and  C_3
REMARK    2  A    between atoms: C_3  and  C_4
REMARK    3  A    between atoms: C_7  and  C_8
REMARK    4  A    between atoms: C_8  and  C_9
REMARK    5  A    between atoms: C_14  and  C_15
REMARK    6  A    between atoms: N_25  and  C_26
REMARK                            x       y       z     vdW  Elec       q    Type
REMARK                         _______ _______ _______ _____ _____    ______ ____
ROOT
ATOM      1  C   UNL     1      -0.468  11.223  22.582  0.00  0.00    +0.000 C 
ENDROOT
BRANCH   1   2
ATOM      2  C   UNL     1       0.125  10.337  21.532  0.00  0.00    +0.000 A 
ATOM      3  N   UNL     1       0.200  10.654  20.255  0.00  0.00    +0.000 NA
ATOM      4  C   UNL     1       0.901   9.675  19.567  0.00  0.00    +0.000 A 
ATOM      5  C   UNL     1       1.199   9.684  18.194  0.00  0.00    +0.000 A 
ATOM      6  C   UNL     1       1.950   8.637  17.639  0.00  0.00    +0.000 A 
ATOM      7  C   UNL     1       2.435   7.571  18.416  0.00  0.00    +0.000 A 
ATOM      8  C   UNL     1       2.111   7.558  19.789  0.00  0.00    +0.000 A 
ATOM      9  C   UNL     1       1.349   8.606  20.338  0.00  0.00    +0.000 A 
ATOM     10  S   UNL     1       0.831   8.832  21.964  0.00  0.00    +0.000 S 
BRANCH   7  11
ATOM     11  C   UNL     1       3.279   6.505  17.821  0.00  0.00    +0.000 A 
ATOM     12  C   UNL     1       4.493   6.806  17.172  0.00  0.00    +0.000 A 
ATOM     13  C   UNL     1       5.297   5.803  16.620  0.00  0.00    +0.000 A 
ATOM     14  C   UNL     1       4.913   4.470  16.716  0.00  0.00    +0.000 A 
ATOM     15  C   UNL     1       3.723   4.142  17.356  0.00  0.00    +0.000 A 
ATOM     16  C   UNL     1       2.914   5.148  17.894  0.00  0.00    +0.000 A 
ENDBRANCH   7  11
ENDBRANCH   1   2
BRANCH   1  20
ATOM     17  C   UNL     1      -2.789  13.473  21.123  0.00  0.00    +0.000 A 
ATOM     18  N   UNL     1      -1.779  14.306  21.213  0.00  0.00    +0.000 NA
ATOM     19  N   UNL     1      -0.735  13.603  21.787  0.00  0.00    +0.000 NA
ATOM     20  C   UNL     1      -1.189  12.390  22.023  0.00  0.00    +0.000 A 
ATOM     21  O   UNL     1      -2.493  12.227  21.621  0.00  0.00    +0.000 OA
BRANCH  17  22
ATOM     22  C   UNL     1      -4.177  13.733  20.679  0.00  0.00    +0.000 C 
BRANCH  22  24
ATOM     23  O   UNL     1      -5.830  12.075  20.120  0.00  0.00    +0.000 OA
ATOM     24  C   UNL     1      -4.729  12.560  19.888  0.00  0.00    +0.000 C 
ATOM     25  N   UNL     1      -3.859  12.038  18.950  0.00  0.00    +0.000 N 
ATOM     26  H   UNL     1      -2.997  12.555  18.801  0.00  0.00    +0.000 HD
BRANCH  25  27
ATOM     27  C   UNL     1      -4.181  10.968  17.977  0.00  0.00    +0.000 C 
ATOM     28  C   UNL     1      -4.128  11.444  16.516  0.00  0.00    +0.000 C 
ATOM     29  O   UNL     1      -3.520  10.192  16.108  0.00  0.00    +0.000 OA
ATOM     30  C   UNL     1      -3.126   9.958  17.497  0.00  0.00    +0.000 C 
ENDBRANCH  25  27
ENDBRANCH  22  24
ENDBRANCH  17  22
ENDBRANCH   1  20
TORSDOF 6
ENDMDL
MODEL 4
REMARK VINA RESULT:      -7.8      4.429     10.850
REMARK  Name = 
REMARK  6 active torsions:
REMARK  status: ('A' for Active; 'I' for Inactive)
REMARK    1  A    between atoms: C_2  and  C_3
REMARK    2  A    between atoms: C_3  and  C_4
REMARK    3  A    between atoms: C_7  and  C_8
REMARK    4  A    between atoms: C_8  and  C_9
REMARK    5  A    between atoms: C_14  and  C_15
REMARK    6  A    between atoms: N_25  and  C_26
REMARK                            x       y       z     vdW  Elec       q    Type
REMARK                         _______ _______ _______ _____ _____    ______ ____
ROOT
ATOM      1  C   UNL     1      -0.158  10.064  20.482  0.00  0.00    +0.000 C 
ENDROOT
BRANCH   1   2
ATOM      2  C   UNL     1       0.902   9.139  19.971  0.00  0.00    +0.000 A 
ATOM      3  N   UNL     1       1.288   8.044  20.594  0.00  0.00    +0.000 NA
ATOM      4  C   UNL     1       2.200   7.353  19.811  0.00  0.00    +0.000 A 
ATOM      5  C   UNL     1       2.810   6.130  20.138  0.00  0.00    +0.000 A 
ATOM      6  C   UNL     1       3.692   5.528  19.228  0.00  0.00    +0.000 A 
ATOM      7  C   UNL     1       3.983   6.101  17.978  0.00  0.00    +0.000 A 
ATOM      8  C   UNL     1       3.385   7.340  17.669  0.00  0.00    +0.000 A 
ATOM      9  C   UNL     1       2.508   7.944  18.589  0.00  0.00    +0.000 A 
ATOM     10  S   UNL     1       1.651   9.431  18.453  0.00  0.00    +0.000 S 
BRANCH   7  11
ATOM     11  C   UNL     1       4.871   5.417  17.006  0.00  0.00    +0.000 A 
ATOM     12  C   UNL     1       4.559   4.142  16.496  0.00  0.00    +0.000 A 
ATOM     13  C   UNL     1       5.388   3.499  15.570  0.00  0.00    +0.000 A 
ATOM     14  C   UNL     1       6.544   4.124  15.119  0.00  0.00    +0.000 A 
ATOM     15  C   UNL     1       6.876   5.387  15.598  0.00  0.00    +0.000 A 
ATOM     16  C   UNL     1       6.053   6.020  16.536  0.00  0.00    +0.000 A 
ENDBRANCH   7  11
ENDBRANCH   1   2
BRANCH   1  20
ATOM     17  C   UNL     1      -2.046  11.304  17.748  0.00  0.00    +0.000 A 
ATOM     18  N   UNL     1      -1.343  12.388  17.973  0.00  0.00    +0.000 NA
ATOM     19  N   UNL     1      -0.517  12.109  19.048  0.00  0.00    +0.000 NA
ATOM     20  C   UNL     1      -0.789  10.874  19.415  0.00  0.00    +0.000 A 
ATOM     21  O   UNL     1      -1.753  10.290  18.628  0.00  0.00    +0.000 OA
BRANCH  17  22
ATOM     22  C   UNL     1      -3.147  11.090  16.782  0.00  0.00    +0.000 C 
BRANCH  22  24
ATOM     23  O   UNL     1      -5.302  12.135  16.539  0.00  0.00    +0.000 OA
ATOM     24  C   UNL     1      -4.449  11.680  17.294  0.00  0.00    +0.000 C 
ATOM     25  N   UNL     1      -4.553  11.739  18.670  0.00  0.00    +0.000 N 
ATOM     26  H   UNL     1      -3.815  11.280  19.195  0.00  0.00    +0.000 HD
BRANCH  25  27
ATOM     27  C   UNL     1      -5.753  12.168  19.427  0.00  0.00    +0.000 C 
ATOM     28  C   UNL     1      -6.725  11.015  19.724  0.00  0.00    +0.000 C 
ATOM     29  O   UNL     1      -6.983  11.547  21.048  0.00  0.00    +0.000 OA
ATOM     30  C   UNL     1      -5.743  12.315  20.957  0.00  0.00    +0.000 C 
ENDBRANCH  25  27
ENDBRANCH  22  24
ENDBRANCH  17  22
ENDBRANCH   1  20
TORSDOF 6
ENDMDL
MODEL 5
REMARK VINA RESULT:      -7.7      3.432      4.694
REMARK  Name = 
REMARK  6 active torsions:
REMARK  status: ('A' for Active; 'I' for Inactive)
REMARK    1  A    between atoms: C_2  and  C_3
REMARK    2  A    between atoms: C_3  and  C_4
REMARK    3  A    between atoms: C_7  and  C_8
REMARK    4  A    between atoms: C_8  and  C_9
REMARK    5  A    between atoms: C_14  and  C_15
REMARK    6  A    between atoms: N_25  and  C_26
REMARK                            x       y       z     vdW  Elec       q    Type
REMARK                         _______ _______ _______ _____ _____    ______ ____
ROOT
ATOM      1  C   UNL     1       3.796   5.359  17.405  0.00  0.00    +0.000 C 
ENDROOT
BRANCH   1   2
ATOM      2  C   UNL     1       3.142   6.538  18.055  0.00  0.00    +0.000 A 
ATOM      3  N   UNL     1       2.948   7.696  17.458  0.00  0.00    +0.000 NA
ATOM      4  C   UNL     1       2.222   8.537  18.287  0.00  0.00    +0.000 A 
ATOM      5  C   UNL     1       1.807   9.844  17.978  0.00  0.00    +0.000 A 
ATOM      6  C   UNL     1       1.044  10.569  18.906  0.00  0.00    +0.000 A 
ATOM      7  C   UNL     1       0.660  10.026  20.144  0.00  0.00    +0.000 A 
ATOM      8  C   UNL     1       1.101   8.723  20.455  0.00  0.00    +0.000 A 
ATOM      9  C   UNL     1       1.875   8.004  19.525  0.00  0.00    +0.000 A 
ATOM     10  S   UNL     1       2.523   6.415  19.653  0.00  0.00    +0.000 S 
BRANCH   7  11
ATOM     11  C   UNL     1      -0.198  10.787  21.086  0.00  0.00    +0.000 A 
ATOM     12  C   UNL     1      -0.834  11.983  20.698  0.00  0.00    +0.000 A 
ATOM     13  C   UNL     1      -1.653  12.697  21.578  0.00  0.00    +0.000 A 
ATOM     14  C   UNL     1      -1.869  12.224  22.867  0.00  0.00    +0.000 A 
ATOM     15  C   UNL     1      -1.261  11.043  23.278  0.00  0.00    +0.000 A 
ATOM     16  C   UNL     1      -0.430  10.339  22.400  0.00  0.00    +0.000 A 
ENDBRANCH   7  11
ENDBRANCH   1   2
BRANCH   1  20
ATOM     17  C   UNL     1       7.176   5.763  18.400  0.00  0.00    +0.000 A 
ATOM     18  N   UNL     1       7.217   4.470  18.182  0.00  0.00    +0.000 NA
ATOM     19  N   UNL     1       5.947   4.095  17.779  0.00  0.00    +0.000 NA
ATOM     20  C   UNL     1       5.214   5.188  17.796  0.00  0.00    +0.000 A 
ATOM     21  O   UNL     1       5.929   6.298  18.177  0.00  0.00    +0.000 OA
BRANCH  17  22
ATOM     22  C   UNL     1       8.227   6.653  18.942  0.00  0.00    +0.000 C 
BRANCH  22  24
ATOM     23  O   UNL     1       7.767   8.157  17.119  0.00  0.00    +0.000 OA
ATOM     24  C   UNL     1       8.213   8.005  18.252  0.00  0.00    +0.000 C 
ATOM     25  N   UNL     1       8.815   9.023  18.966  0.00  0.00    +0.000 N 
ATOM     26  H   UNL     1       9.096   8.798  19.916  0.00  0.00    +0.000 HD
BRANCH  25  27
ATOM     27  C   UNL     1       8.846  10.451  18.573  0.00  0.00    +0.000 C 
ATOM     28  C   UNL     1       9.248  11.387  19.725  0.00  0.00    +0.000 C 
ATOM     29  O   UNL     1      10.036  12.198  18.817  0.00  0.00    +0.000 OA
ATOM     30  C   UNL     1      10.064  11.079  17.876  0.00  0.00    +0.000 C 
ENDBRANCH  25  27
ENDBRANCH  22  24
ENDBRANCH  17  22
ENDBRANCH   1  20
TORSDOF 6
ENDMDL
MODEL 6
REMARK VINA RESULT:      -7.7      4.387     10.980
REMARK  Name = 
REMARK  6 active torsions:
REMARK  status: ('A' for Active; 'I' for Inactive)
REMARK    1  A    between atoms: C_2  and  C_3
REMARK    2  A    between atoms: C_3  and  C_4
REMARK    3  A    between atoms: C_7  and  C_8
REMARK    4  A    between atoms: C_8  and  C_9
REMARK    5  A    between atoms: C_14  and  C_15
REMARK    6  A    between atoms: N_25  and  C_26
REMARK                            x       y       z     vdW  Elec       q    Type
REMARK                         _______ _______ _______ _____ _____    ______ ____
ROOT
ATOM      1  C   UNL     1      -0.002  10.043  20.618  0.00  0.00    +0.000 C 
ENDROOT
BRANCH   1   2
ATOM      2  C   UNL     1       1.000   9.106  20.020  0.00  0.00    +0.000 A 
ATOM      3  N   UNL     1       1.414   7.999  20.601  0.00  0.00    +0.000 NA
ATOM      4  C   UNL     1       2.252   7.302  19.744  0.00  0.00    +0.000 A 
ATOM      5  C   UNL     1       2.864   6.065  20.013  0.00  0.00    +0.000 A 
ATOM      6  C   UNL     1       3.664   5.458  19.033  0.00  0.00    +0.000 A 
ATOM      7  C   UNL     1       3.868   6.040  17.770  0.00  0.00    +0.000 A 
ATOM      8  C   UNL     1       3.270   7.291  17.518  0.00  0.00    +0.000 A 
ATOM      9  C   UNL     1       2.476   7.901  18.508  0.00  0.00    +0.000 A 
ATOM     10  S   UNL     1       1.637   9.402  18.451  0.00  0.00    +0.000 S 
BRANCH   7  11
ATOM     11  C   UNL     1       4.669   5.352  16.726  0.00  0.00    +0.000 A 
ATOM     12  C   UNL     1       5.290   6.070  15.685  0.00  0.00    +0.000 A 
ATOM     13  C   UNL     1       6.055   5.427  14.706  0.00  0.00    +0.000 A 
ATOM     14  C   UNL     1       6.230   4.049  14.753  0.00  0.00    +0.000 A 
ATOM     15  C   UNL     1       5.635   3.314  15.772  0.00  0.00    +0.000 A 
ATOM     16  C   UNL     1       4.858   3.958  16.741  0.00  0.00    +0.000 A 
ENDBRANCH   7  11
ENDBRANCH   1   2
BRANCH   1  20
ATOM     17  C   UNL     1      -1.939  11.423  17.987  0.00  0.00    +0.000 A 
ATOM     18  N   UNL     1      -1.268  12.509  18.290  0.00  0.00    +0.000 NA
ATOM     19  N   UNL     1      -0.429  12.176  19.340  0.00  0.00    +0.000 NA
ATOM     20  C   UNL     1      -0.662  10.910  19.615  0.00  0.00    +0.000 A 
ATOM     21  O   UNL     1      -1.612  10.356  18.789  0.00  0.00    +0.000 OA
BRANCH  17  22
ATOM     22  C   UNL     1      -3.037  11.247  17.011  0.00  0.00    +0.000 C 
BRANCH  22  24
ATOM     23  O   UNL     1      -5.343  11.924  16.866  0.00  0.00    +0.000 OA
ATOM     24  C   UNL     1      -4.357  11.744  17.573  0.00  0.00    +0.000 C 
ATOM     25  N   UNL     1      -4.329  12.055  18.918  0.00  0.00    +0.000 N 
ATOM     26  H   UNL     1      -3.478  11.811  19.417  0.00  0.00    +0.000 HD
BRANCH  25  27
ATOM     27  C   UNL     1      -5.498  12.458  19.735  0.00  0.00    +0.000 C 
ATOM     28  C   UNL     1      -5.123  12.861  21.171  0.00  0.00    +0.000 C 
ATOM     29  O   UNL     1      -6.089  13.942  21.141  0.00  0.00    +0.000 OA
ATOM     30  C   UNL     1      -6.081  13.880  19.680  0.00  0.00    +0.000 C 
ENDBRANCH  25  27
ENDBRANCH  22  24
ENDBRANCH  17  22
ENDBRANCH   1  20
TORSDOF 6
ENDMDL
MODEL 7
REMARK VINA RESULT:      -7.7      4.533      9.662
REMARK  Name = 
REMARK  6 active torsions:
REMARK  status: ('A' for Active; 'I' for Inactive)
REMARK    1  A    between atoms: C_2  and  C_3
REMARK    2  A    between atoms: C_3  and  C_4
REMARK    3  A    between atoms: C_7  and  C_8
REMARK    4  A    between atoms: C_8  and  C_9
REMARK    5  A    between atoms: C_14  and  C_15
REMARK    6  A    between atoms: N_25  and  C_26
REMARK                            x       y       z     vdW  Elec       q    Type
REMARK                         _______ _______ _______ _____ _____    ______ ____
ROOT
ATOM      1  C   UNL     1      -0.730  11.634  22.692  0.00  0.00    +0.000 C 
ENDROOT
BRANCH   1   2
ATOM      2  C   UNL     1      -0.117  10.749  21.652  0.00  0.00    +0.000 A 
ATOM      3  N   UNL     1       0.133  11.127  20.415  0.00  0.00    +0.000 NA
ATOM      4  C   UNL     1       0.801  10.117  19.740  0.00  0.00    +0.000 A 
ATOM      5  C   UNL     1       1.251  10.170  18.409  0.00  0.00    +0.000 A 
ATOM      6  C   UNL     1       1.947   9.080  17.866  0.00  0.00    +0.000 A 
ATOM      7  C   UNL     1       2.228   7.925  18.616  0.00  0.00    +0.000 A 
ATOM      8  C   UNL     1       1.753   7.871  19.943  0.00  0.00    +0.000 A 
ATOM      9  C   UNL     1       1.047   8.963  20.479  0.00  0.00    +0.000 A 
ATOM     10  S   UNL     1       0.376   9.152  22.053  0.00  0.00    +0.000 S 
BRANCH   7  11
ATOM     11  C   UNL     1       3.019   6.808  18.042  0.00  0.00    +0.000 A 
ATOM     12  C   UNL     1       2.563   5.476  18.107  0.00  0.00    +0.000 A 
ATOM     13  C   UNL     1       3.299   4.422  17.557  0.00  0.00    +0.000 A 
ATOM     14  C   UNL     1       4.504   4.675  16.912  0.00  0.00    +0.000 A 
ATOM     15  C   UNL     1       4.977   5.980  16.826  0.00  0.00    +0.000 A 
ATOM     16  C   UNL     1       4.246   7.031  17.390  0.00  0.00    +0.000 A 
ENDBRANCH   7  11
ENDBRANCH   1   2
BRANCH   1  20
ATOM     17  C   UNL     1      -3.458  13.074  20.942  0.00  0.00    +0.000 A 
ATOM     18  N   UNL     1      -3.115  14.139  21.626  0.00  0.00    +0.000 NA
ATOM     19  N   UNL     1      -2.033  13.776  22.410  0.00  0.00    +0.000 NA
ATOM     20  C   UNL     1      -1.803  12.504  22.160  0.00  0.00    +0.000 A 
ATOM     21  O   UNL     1      -2.669  11.985  21.227  0.00  0.00    +0.000 OA
BRANCH  17  22
ATOM     22  C   UNL     1      -4.609  12.880  20.032  0.00  0.00    +0.000 C 
BRANCH  22  24
ATOM     23  O   UNL     1      -5.034  11.130  18.434  0.00  0.00    +0.000 OA
ATOM     24  C   UNL     1      -4.248  11.959  18.880  0.00  0.00    +0.000 C 
ATOM     25  N   UNL     1      -2.945  12.074  18.436  0.00  0.00    +0.000 N 
ATOM     26  H   UNL     1      -2.401  12.834  18.836  0.00  0.00    +0.000 HD
BRANCH  25  27
ATOM     27  C   UNL     1      -2.368  11.376  17.264  0.00  0.00    +0.000 C 
ATOM     28  C   UNL     1      -2.265   9.854  17.458  0.00  0.00    +0.000 C 
ATOM     29  O   UNL     1      -2.662   9.631  16.081  0.00  0.00    +0.000 OA
ATOM     30  C   UNL     1      -3.221  10.982  16.047  0.00  0.00    +0.000 C 
ENDBRANCH  25  27
ENDBRANCH  22  24
ENDBRANCH  17  22
ENDBRANCH   1  20
TORSDOF 6
ENDMDL
MODEL 8
REMARK VINA RESULT:      -7.7      1.429      1.794
REMARK  Name = 
REMARK  6 active torsions:
REMARK  status: ('A' for Active; 'I' for Inactive)
REMARK    1  A    between atoms: C_2  and  C_3
REMARK    2  A    between atoms: C_3  and  C_4
REMARK    3  A    between atoms: C_7  and  C_8
REMARK    4  A    between atoms: C_8  and  C_9
REMARK    5  A    between atoms: C_14  and  C_15
REMARK    6  A    between atoms: N_25  and  C_26
REMARK                            x       y       z     vdW  Elec       q    Type
REMARK                         _______ _______ _______ _____ _____    ______ ____
ROOT
ATOM      1  C   UNL     1       1.789   8.956  17.830  0.00  0.00    +0.000 C 
ENDROOT
BRANCH   1   2
ATOM      2  C   UNL     1       0.974   9.518  18.952  0.00  0.00    +0.000 A 
ATOM      3  N   UNL     1       0.910   8.987  20.156  0.00  0.00    +0.000 NA
ATOM      4  C   UNL     1       0.164   9.804  20.992  0.00  0.00    +0.000 A 
ATOM      5  C   UNL     1      -0.099   9.573  22.353  0.00  0.00    +0.000 A 
ATOM      6  C   UNL     1      -0.844  10.508  23.086  0.00  0.00    +0.000 A 
ATOM      7  C   UNL     1      -1.333  11.692  22.508  0.00  0.00    +0.000 A 
ATOM      8  C   UNL     1      -1.085  11.905  21.136  0.00  0.00    +0.000 A 
ATOM      9  C   UNL     1      -0.345  10.958  20.403  0.00  0.00    +0.000 A 
ATOM     10  S   UNL     1       0.100  10.982  18.741  0.00  0.00    +0.000 S 
BRANCH   7  11
ATOM     11  C   UNL     1      -2.067  12.698  23.316  0.00  0.00    +0.000 A 
ATOM     12  C   UNL     1      -1.467  13.914  23.697  0.00  0.00    +0.000 A 
ATOM     13  C   UNL     1      -2.159  14.870  24.449  0.00  0.00    +0.000 A 
ATOM     14  C   UNL     1      -3.477  14.638  24.825  0.00  0.00    +0.000 A 
ATOM     15  C   UNL     1      -4.099  13.450  24.459  0.00  0.00    +0.000 A 
ATOM     16  C   UNL     1      -3.399  12.490  23.720  0.00  0.00    +0.000 A 
ENDBRANCH   7  11
ENDBRANCH   1   2
BRANCH   1  20
ATOM     17  C   UNL     1       2.595   5.520  18.173  0.00  0.00    +0.000 A 
ATOM     18  N   UNL     1       3.546   5.993  18.943  0.00  0.00    +0.000 NA
ATOM     19  N   UNL     1       3.410   7.371  18.937  0.00  0.00    +0.000 NA
ATOM     20  C   UNL     1       2.392   7.641  18.148  0.00  0.00    +0.000 A 
ATOM     21  O   UNL     1       1.814   6.509  17.625  0.00  0.00    +0.000 OA
BRANCH  17  22
ATOM     22  C   UNL     1       2.345   4.123  17.751  0.00  0.00    +0.000 C 
BRANCH  22  24
ATOM     23  O   UNL     1       3.899   2.287  17.645  0.00  0.00    +0.000 OA
ATOM     24  C   UNL     1       3.632   3.440  17.323  0.00  0.00    +0.000 C 
ATOM     25  N   UNL     1       4.506   4.246  16.620  0.00  0.00    +0.000 N 
ATOM     26  H   UNL     1       4.157   5.164  16.358  0.00  0.00    +0.000 HD
BRANCH  25  27
ATOM     27  C   UNL     1       5.776   3.805  15.997  0.00  0.00    +0.000 C 
ATOM     28  C   UNL     1       6.047   4.471  14.638  0.00  0.00    +0.000 C 
ATOM     29  O   UNL     1       7.457   4.591  14.956  0.00  0.00    +0.000 OA
ATOM     30  C   UNL     1       7.129   4.432  16.372  0.00  0.00    +0.000 C 
ENDBRANCH  25  27
ENDBRANCH  22  24
ENDBRANCH  17  22
ENDBRANCH   1  20
TORSDOF 6
ENDMDL
MODEL 9
REMARK VINA RESULT:      -7.6      4.149      9.985
REMARK  Name = 
REMARK  6 active torsions:
REMARK  status: ('A' for Active; 'I' for Inactive)
REMARK    1  A    between atoms: C_2  and  C_3
REMARK    2  A    between atoms: C_3  and  C_4
REMARK    3  A    between atoms: C_7  and  C_8
REMARK    4  A    between atoms: C_8  and  C_9
REMARK    5  A    between atoms: C_14  and  C_15
REMARK    6  A    between atoms: N_25  and  C_26
REMARK                            x       y       z     vdW  Elec       q    Type
REMARK                         _______ _______ _______ _____ _____    ______ ____
ROOT
ATOM      1  C   UNL     1      -0.089   8.756  21.674  0.00  0.00    +0.000 C 
ENDROOT
BRANCH   1   2
ATOM      2  C   UNL     1       0.930   8.001  20.878  0.00  0.00    +0.000 A 
ATOM      3  N   UNL     1       1.325   6.776  21.159  0.00  0.00    +0.000 NA
ATOM      4  C   UNL     1       2.187   6.321  20.173  0.00  0.00    +0.000 A 
ATOM      5  C   UNL     1       2.790   5.053  20.123  0.00  0.00    +0.000 A 
ATOM      6  C   UNL     1       3.617   4.717  19.041  0.00  0.00    +0.000 A 
ATOM      7  C   UNL     1       3.858   5.608  17.981  0.00  0.00    +0.000 A 
ATOM      8  C   UNL     1       3.268   6.887  18.051  0.00  0.00    +0.000 A 
ATOM      9  C   UNL     1       2.448   7.222  19.144  0.00  0.00    +0.000 A 
ATOM     10  S   UNL     1       1.612   8.693  19.461  0.00  0.00    +0.000 S 
BRANCH   7  11
ATOM     11  C   UNL     1       4.688   5.212  16.815  0.00  0.00    +0.000 A 
ATOM     12  C   UNL     1       5.024   3.865  16.577  0.00  0.00    +0.000 A 
ATOM     13  C   UNL     1       5.795   3.486  15.474  0.00  0.00    +0.000 A 
ATOM     14  C   UNL     1       6.238   4.446  14.571  0.00  0.00    +0.000 A 
ATOM     15  C   UNL     1       5.917   5.783  14.775  0.00  0.00    +0.000 A 
ATOM     16  C   UNL     1       5.158   6.161  15.888  0.00  0.00    +0.000 A 
ENDBRANCH   7  11
ENDBRANCH   1   2
BRANCH   1  20
ATOM     17  C   UNL     1      -0.585  12.142  20.744  0.00  0.00    +0.000 A 
ATOM     18  N   UNL     1       0.557  12.305  21.369  0.00  0.00    +0.000 NA
ATOM     19  N   UNL     1       0.934  11.057  21.835  0.00  0.00    +0.000 NA
ATOM     20  C   UNL     1      -0.017  10.221  21.473  0.00  0.00    +0.000 A 
ATOM     21  O   UNL     1      -1.021  10.839  20.766  0.00  0.00    +0.000 OA
BRANCH  17  22
ATOM     22  C   UNL     1      -1.475  13.163  20.147  0.00  0.00    +0.000 C 
BRANCH  22  24
ATOM     23  O   UNL     1      -3.761  12.457  19.877  0.00  0.00    +0.000 OA
ATOM     24  C   UNL     1      -2.631  12.516  19.405  0.00  0.00    +0.000 C 
ATOM     25  N   UNL     1      -2.288  11.931  18.201  0.00  0.00    +0.000 N 
ATOM     26  H   UNL     1      -1.338  12.092  17.879  0.00  0.00    +0.000 HD
BRANCH  25  27
ATOM     27  C   UNL     1      -3.235  11.329  17.234  0.00  0.00    +0.000 C 
ATOM     28  C   UNL     1      -2.573  10.938  15.902  0.00  0.00    +0.000 C 
ATOM     29  O   UNL     1      -3.365   9.725  15.841  0.00  0.00    +0.000 OA
ATOM     30  C   UNL     1      -3.609   9.838  17.278  0.00  0.00    +0.000 C 
ENDBRANCH  25  27
ENDBRANCH  22  24
ENDBRANCH  17  22
ENDBRANCH   1  20
TORSDOF 6
ENDMDL
