MODEL 1
REMARK VINA RESULT:      -7.3      0.000      0.000
REMARK  Name = 
REMARK  6 active torsions:
REMARK  status: ('A' for Active; 'I' for Inactive)
REMARK    1  A    between atoms: C_1  and  C_2
REMARK    2  A    between atoms: C_2  and  C_3
REMARK    3  A    between atoms: C_3  and  C_4
REMARK    4  A    between atoms: N_6  and  C_7
REMARK    5  A    between atoms: C_17  and  C_18
REMARK    6  A    between atoms: C_19  and  C_20
REMARK                            x       y       z     vdW  Elec       q    Type
REMARK                         _______ _______ _______ _____ _____    ______ ____
ROOT
ATOM      1  C   UNL     1       6.109   6.889  17.058  0.00  0.00    +0.000 A 
ATOM      2  N   UNL     1       6.560   5.756  16.510  0.00  0.00    +0.000 NA
ATOM      3  N   UNL     1       5.549   4.875  16.715  0.00  0.00    +0.000 N 
ATOM      4  C   UNL     1       5.697   3.563  16.133  0.00  0.00    +0.000 C 
ATOM      5  C   UNL     1       4.498   5.382  17.442  0.00  0.00    +0.000 A 
ATOM      6  C   UNL     1       3.262   4.906  17.911  0.00  0.00    +0.000 A 
ATOM      7  N   UNL     1       2.814   3.615  17.694  0.00  0.00    +0.000 N 
ATOM      8  C   UNL     1       1.369   3.379  17.541  0.00  0.00    +0.000 C 
ATOM      9  C   UNL     1       0.774   2.590  18.716  0.00  0.00    +0.000 C 
ATOM     10  O   UNL     1       1.526   1.399  18.990  0.00  0.00    +0.000 OA
ATOM     11  C   UNL     1       2.859   1.758  19.369  0.00  0.00    +0.000 C 
ATOM     12  C   UNL     1       3.587   2.490  18.240  0.00  0.00    +0.000 C 
ATOM     13  N   UNL     1       2.467   5.823  18.541  0.00  0.00    +0.000 NA
ATOM     14  C   UNL     1       2.907   7.094  18.704  0.00  0.00    +0.000 A 
ATOM     15  N   UNL     1       4.070   7.593  18.284  0.00  0.00    +0.000 NA
ATOM     16  C   UNL     1       4.842   6.704  17.645  0.00  0.00    +0.000 A 
ENDROOT
BRANCH  14  17
ATOM     17  C   UNL     1       2.096   8.090  19.409  0.00  0.00    +0.000 C 
ATOM     18  C   UNL     1       1.499   7.978  20.609  0.00  0.00    +0.000 C 
BRANCH  18  19
ATOM     19  C   UNL     1       0.717   9.069  21.219  0.00  0.00    +0.000 A 
ATOM     20  C   UNL     1       0.011   9.954  20.402  0.00  0.00    +0.000 A 
ATOM     21  C   UNL     1      -0.724  10.997  20.967  0.00  0.00    +0.000 A 
ATOM     22  C   UNL     1      -0.725  11.132  22.345  0.00  0.00    +0.000 A 
ATOM     23  N   UNL     1      -0.050  10.312  23.175  0.00  0.00    +0.000 NA
ATOM     24  C   UNL     1       0.655   9.307  22.594  0.00  0.00    +0.000 A 
ENDBRANCH  18  19
ENDBRANCH  14  17
BRANCH   1  25
ATOM     25  C   UNL     1       6.894   8.153  17.005  0.00  0.00    +0.000 C 
BRANCH  25  27
ATOM     26  C   UNL     1       8.559   9.583  18.325  0.00  0.00    +0.000 C 
ATOM     27  C   UNL     1       8.094   8.178  17.956  0.00  0.00    +0.000 C 
ENDBRANCH  25  27
ENDBRANCH   1  25
TORSDOF 4
ENDMDL
MODEL 2
REMARK VINA RESULT:      -7.2      1.966      2.120
REMARK  Name = 
REMARK  6 active torsions:
REMARK  status: ('A' for Active; 'I' for Inactive)
REMARK    1  A    between atoms: C_1  and  C_2
REMARK    2  A    between atoms: C_2  and  C_3
REMARK    3  A    between atoms: C_3  and  C_4
REMARK    4  A    between atoms: N_6  and  C_7
REMARK    5  A    between atoms: C_17  and  C_18
REMARK    6  A    between atoms: C_19  and  C_20
REMARK                            x       y       z     vdW  Elec       q    Type
REMARK                         _______ _______ _______ _____ _____    ______ ____
ROOT
ATOM      1  C   UNL     1       6.672   7.531  17.533  0.00  0.00    +0.000 A 
ATOM      2  N   UNL     1       7.421   6.424  17.565  0.00  0.00    +0.000 NA
ATOM      3  N   UNL     1       6.510   5.422  17.644  0.00  0.00    +0.000 N 
ATOM      4  C   UNL     1       7.016   4.072  17.589  0.00  0.00    +0.000 C 
ATOM      5  C   UNL     1       5.207   5.851  17.741  0.00  0.00    +0.000 A 
ATOM      6  C   UNL     1       3.942   5.247  17.844  0.00  0.00    +0.000 A 
ATOM      7  N   UNL     1       3.757   3.877  17.885  0.00  0.00    +0.000 N 
ATOM      8  C   UNL     1       2.537   3.305  17.293  0.00  0.00    +0.000 C 
ATOM      9  C   UNL     1       1.592   2.713  18.347  0.00  0.00    +0.000 C 
ATOM     10  O   UNL     1       2.278   1.813  19.230  0.00  0.00    +0.000 OA
ATOM     11  C   UNL     1       3.292   2.531  19.941  0.00  0.00    +0.000 C 
ATOM     12  C   UNL     1       4.344   3.110  18.993  0.00  0.00    +0.000 C 
ATOM     13  N   UNL     1       2.870   6.096  17.824  0.00  0.00    +0.000 NA
ATOM     14  C   UNL     1       3.074   7.432  17.739  0.00  0.00    +0.000 A 
ATOM     15  N   UNL     1       4.249   8.054  17.645  0.00  0.00    +0.000 NA
ATOM     16  C   UNL     1       5.301   7.225  17.640  0.00  0.00    +0.000 A 
ENDROOT
BRANCH  14  17
ATOM     17  C   UNL     1       1.947   8.370  17.756  0.00  0.00    +0.000 C 
ATOM     18  C   UNL     1       1.757   9.427  18.564  0.00  0.00    +0.000 C 
BRANCH  18  19
ATOM     19  C   UNL     1       0.578  10.308  18.467  0.00  0.00    +0.000 A 
ATOM     20  C   UNL     1      -0.601   9.824  17.898  0.00  0.00    +0.000 A 
ATOM     21  C   UNL     1      -1.721  10.652  17.790  0.00  0.00    +0.000 A 
ATOM     22  C   UNL     1      -1.624  11.953  18.249  0.00  0.00    +0.000 A 
ATOM     23  N   UNL     1      -0.505  12.471  18.794  0.00  0.00    +0.000 NA
ATOM     24  C   UNL     1       0.566  11.641  18.886  0.00  0.00    +0.000 A 
ENDBRANCH  18  19
ENDBRANCH  14  17
BRANCH   1  25
ATOM     25  C   UNL     1       7.277   8.885  17.388  0.00  0.00    +0.000 C 
BRANCH  25  27
ATOM     26  C   UNL     1       8.952  10.566  18.347  0.00  0.00    +0.000 C 
ATOM     27  C   UNL     1       8.514   9.109  18.263  0.00  0.00    +0.000 C 
ENDBRANCH  25  27
ENDBRANCH   1  25
TORSDOF 4
ENDMDL
MODEL 3
REMARK VINA RESULT:      -7.2      2.538      7.127
REMARK  Name = 
REMARK  6 active torsions:
REMARK  status: ('A' for Active; 'I' for Inactive)
REMARK    1  A    between atoms: C_1  and  C_2
REMARK    2  A    between atoms: C_2  and  C_3
REMARK    3  A    between atoms: C_3  and  C_4
REMARK    4  A    between atoms: N_6  and  C_7
REMARK    5  A    between atoms: C_17  and  C_18
REMARK    6  A    between atoms: C_19  and  C_20
REMARK                            x       y       z     vdW  Elec       q    Type
REMARK                         _______ _______ _______ _____ _____    ______ ____
ROOT
ATOM      1  C   UNL     1       1.995   9.303  18.630  0.00  0.00    +0.000 A 
ATOM      2  N   UNL     1       1.260   9.222  19.744  0.00  0.00    +0.000 NA
ATOM      3  N   UNL     1       1.479   7.958  20.183  0.00  0.00    +0.000 N 
ATOM      4  C   UNL     1       0.891   7.595  21.449  0.00  0.00    +0.000 C 
ATOM      5  C   UNL     1       2.267   7.200  19.349  0.00  0.00    +0.000 A 
ATOM      6  C   UNL     1       2.771   5.888  19.340  0.00  0.00    +0.000 A 
ATOM      7  N   UNL     1       2.506   4.967  20.337  0.00  0.00    +0.000 N 
ATOM      8  C   UNL     1       3.532   3.966  20.672  0.00  0.00    +0.000 C 
ATOM      9  C   UNL     1       3.116   2.542  20.279  0.00  0.00    +0.000 C 
ATOM     10  O   UNL     1       1.809   2.214  20.774  0.00  0.00    +0.000 OA
ATOM     11  C   UNL     1       0.847   3.100  20.191  0.00  0.00    +0.000 C 
ATOM     12  C   UNL     1       1.115   4.556  20.578  0.00  0.00    +0.000 C 
ATOM     13  N   UNL     1       3.621   5.580  18.313  0.00  0.00    +0.000 NA
ATOM     14  C   UNL     1       3.901   6.513  17.372  0.00  0.00    +0.000 A 
ATOM     15  N   UNL     1       3.446   7.765  17.331  0.00  0.00    +0.000 NA
ATOM     16  C   UNL     1       2.633   8.079  18.348  0.00  0.00    +0.000 A 
ENDROOT
BRANCH  14  17
ATOM     17  C   UNL     1       4.776   6.201  16.237  0.00  0.00    +0.000 C 
ATOM     18  C   UNL     1       5.095   4.994  15.741  0.00  0.00    +0.000 C 
BRANCH  18  19
ATOM     19  C   UNL     1       5.982   4.815  14.576  0.00  0.00    +0.000 A 
ATOM     20  C   UNL     1       5.640   3.895  13.582  0.00  0.00    +0.000 A 
ATOM     21  C   UNL     1       6.477   3.708  12.481  0.00  0.00    +0.000 A 
ATOM     22  C   UNL     1       7.646   4.446  12.408  0.00  0.00    +0.000 A 
ATOM     23  N   UNL     1       8.025   5.336  13.347  0.00  0.00    +0.000 NA
ATOM     24  C   UNL     1       7.190   5.495  14.406  0.00  0.00    +0.000 A 
ENDBRANCH  18  19
ENDBRANCH  14  17
BRANCH   1  25
ATOM     25  C   UNL     1       2.094  10.564  17.843  0.00  0.00    +0.000 C 
BRANCH  25  27
ATOM     26  C   UNL     1       2.576  13.045  18.248  0.00  0.00    +0.000 C 
ATOM     27  C   UNL     1       1.756  11.824  18.646  0.00  0.00    +0.000 C 
ENDBRANCH  25  27
ENDBRANCH   1  25
TORSDOF 4
ENDMDL
MODEL 4
REMARK VINA RESULT:      -7.0      2.814      5.205
REMARK  Name = 
REMARK  6 active torsions:
REMARK  status: ('A' for Active; 'I' for Inactive)
REMARK    1  A    between atoms: C_1  and  C_2
REMARK    2  A    between atoms: C_2  and  C_3
REMARK    3  A    between atoms: C_3  and  C_4
REMARK    4  A    between atoms: N_6  and  C_7
REMARK    5  A    between atoms: C_17  and  C_18
REMARK    6  A    between atoms: C_19  and  C_20
REMARK                            x       y       z     vdW  Elec       q    Type
REMARK                         _______ _______ _______ _____ _____    ______ ____
ROOT
ATOM      1  C   UNL     1       1.865   3.031  18.647  0.00  0.00    +0.000 A 
ATOM      2  N   UNL     1       2.546   1.944  18.270  0.00  0.00    +0.000 NA
ATOM      3  N   UNL     1       3.691   2.447  17.744  0.00  0.00    +0.000 N 
ATOM      4  C   UNL     1       4.696   1.496  17.336  0.00  0.00    +0.000 C 
ATOM      5  C   UNL     1       3.734   3.821  17.701  0.00  0.00    +0.000 A 
ATOM      6  C   UNL     1       4.650   4.796  17.270  0.00  0.00    +0.000 A 
ATOM      7  N   UNL     1       5.875   4.490  16.706  0.00  0.00    +0.000 N 
ATOM      8  C   UNL     1       7.011   5.398  16.934  0.00  0.00    +0.000 C 
ATOM      9  C   UNL     1       7.446   6.130  15.657  0.00  0.00    +0.000 C 
ATOM     10  O   UNL     1       7.647   5.220  14.566  0.00  0.00    +0.000 OA
ATOM     11  C   UNL     1       6.412   4.563  14.264  0.00  0.00    +0.000 C 
ATOM     12  C   UNL     1       5.912   3.731  15.447  0.00  0.00    +0.000 C 
ATOM     13  N   UNL     1       4.298   6.095  17.512  0.00  0.00    +0.000 NA
ATOM     14  C   UNL     1       3.113   6.370  18.107  0.00  0.00    +0.000 A 
ATOM     15  N   UNL     1       2.209   5.486  18.528  0.00  0.00    +0.000 NA
ATOM     16  C   UNL     1       2.561   4.210  18.315  0.00  0.00    +0.000 A 
ENDROOT
BRANCH  14  17
ATOM     17  C   UNL     1       2.689   7.754  18.344  0.00  0.00    +0.000 C 
ATOM     18  C   UNL     1       1.639   8.404  17.815  0.00  0.00    +0.000 C 
BRANCH  18  19
ATOM     19  C   UNL     1       1.310   9.802  18.150  0.00  0.00    +0.000 A 
ATOM     20  C   UNL     1       2.314  10.773  18.125  0.00  0.00    +0.000 A 
ATOM     21  C   UNL     1       2.018  12.098  18.450  0.00  0.00    +0.000 A 
ATOM     22  C   UNL     1       0.718  12.415  18.804  0.00  0.00    +0.000 A 
ATOM     23  N   UNL     1      -0.282  11.512  18.855  0.00  0.00    +0.000 NA
ATOM     24  C   UNL     1       0.038  10.233  18.532  0.00  0.00    +0.000 A 
ENDBRANCH  18  19
ENDBRANCH  14  17
BRANCH   1  25
ATOM     25  C   UNL     1       0.550   2.933  19.339  0.00  0.00    +0.000 C 
BRANCH  25  27
ATOM     26  C   UNL     1       1.697   2.611  21.604  0.00  0.00    +0.000 C 
ATOM     27  C   UNL     1       0.598   3.318  20.820  0.00  0.00    +0.000 C 
ENDBRANCH  25  27
ENDBRANCH   1  25
TORSDOF 4
ENDMDL
MODEL 5
REMARK VINA RESULT:      -7.0      7.337     10.620
REMARK  Name = 
REMARK  6 active torsions:
REMARK  status: ('A' for Active; 'I' for Inactive)
REMARK    1  A    between atoms: C_1  and  C_2
REMARK    2  A    between atoms: C_2  and  C_3
REMARK    3  A    between atoms: C_3  and  C_4
REMARK    4  A    between atoms: N_6  and  C_7
REMARK    5  A    between atoms: C_17  and  C_18
REMARK    6  A    between atoms: C_19  and  C_20
REMARK                            x       y       z     vdW  Elec       q    Type
REMARK                         _______ _______ _______ _____ _____    ______ ____
ROOT
ATOM      1  C   UNL     1       9.479  10.775  18.815  0.00  0.00    +0.000 A 
ATOM      2  N   UNL     1      10.076  11.249  17.716  0.00  0.00    +0.000 NA
ATOM      3  N   UNL     1      10.456  12.501  18.071  0.00  0.00    +0.000 N 
ATOM      4  C   UNL     1      11.233  13.245  17.110  0.00  0.00    +0.000 C 
ATOM      5  C   UNL     1      10.057  12.875  19.333  0.00  0.00    +0.000 A 
ATOM      6  C   UNL     1      10.185  14.016  20.143  0.00  0.00    +0.000 A 
ATOM      7  N   UNL     1      10.841  15.165  19.739  0.00  0.00    +0.000 N 
ATOM      8  C   UNL     1      11.551  15.972  20.745  0.00  0.00    +0.000 C 
ATOM      9  C   UNL     1      10.884  17.333  20.985  0.00  0.00    +0.000 C 
ATOM     10  O   UNL     1      10.643  18.031  19.755  0.00  0.00    +0.000 OA
ATOM     11  C   UNL     1       9.740  17.267  18.948  0.00  0.00    +0.000 C 
ATOM     12  C   UNL     1      10.331  15.906  18.576  0.00  0.00    +0.000 C 
ATOM     13  N   UNL     1       9.688  13.907  21.413  0.00  0.00    +0.000 NA
ATOM     14  C   UNL     1       9.089  12.757  21.802  0.00  0.00    +0.000 A 
ATOM     15  N   UNL     1       8.937  11.651  21.073  0.00  0.00    +0.000 NA
ATOM     16  C   UNL     1       9.445  11.745  19.836  0.00  0.00    +0.000 A 
ENDROOT
BRANCH  14  17
ATOM     17  C   UNL     1       8.511  12.622  23.143  0.00  0.00    +0.000 C 
ATOM     18  C   UNL     1       7.522  11.804  23.544  0.00  0.00    +0.000 C 
BRANCH  18  19
ATOM     19  C   UNL     1       7.039  11.754  24.936  0.00  0.00    +0.000 A 
ATOM     20  C   UNL     1       5.847  11.088  25.230  0.00  0.00    +0.000 A 
ATOM     21  C   UNL     1       5.373  11.042  26.542  0.00  0.00    +0.000 A 
ATOM     22  C   UNL     1       6.105  11.678  27.530  0.00  0.00    +0.000 A 
ATOM     23  N   UNL     1       7.253  12.344  27.295  0.00  0.00    +0.000 NA
ATOM     24  C   UNL     1       7.688  12.370  26.009  0.00  0.00    +0.000 A 
ENDBRANCH  18  19
ENDBRANCH  14  17
BRANCH   1  25
ATOM     25  C   UNL     1       8.953   9.384  18.886  0.00  0.00    +0.000 C 
BRANCH  25  27
ATOM     26  C   UNL     1       7.677   7.541  17.648  0.00  0.00    +0.000 C 
ATOM     27  C   UNL     1       7.977   9.032  17.760  0.00  0.00    +0.000 C 
ENDBRANCH  25  27
ENDBRANCH   1  25
TORSDOF 4
ENDMDL
MODEL 6
REMARK VINA RESULT:      -6.9      1.607      1.734
REMARK  Name = 
REMARK  6 active torsions:
REMARK  status: ('A' for Active; 'I' for Inactive)
REMARK    1  A    between atoms: C_1  and  C_2
REMARK    2  A    between atoms: C_2  and  C_3
REMARK    3  A    between atoms: C_3  and  C_4
REMARK    4  A    between atoms: N_6  and  C_7
REMARK    5  A    between atoms: C_17  and  C_18
REMARK    6  A    between atoms: C_19  and  C_20
REMARK                            x       y       z     vdW  Elec       q    Type
REMARK                         _______ _______ _______ _____ _____    ______ ____
ROOT
ATOM      1  C   UNL     1       6.350   7.095  17.217  0.00  0.00    +0.000 A 
ATOM      2  N   UNL     1       6.925   5.929  16.908  0.00  0.00    +0.000 NA
ATOM      3  N   UNL     1       5.925   5.026  17.064  0.00  0.00    +0.000 N 
ATOM      4  C   UNL     1       6.214   3.661  16.697  0.00  0.00    +0.000 C 
ATOM      5  C   UNL     1       4.750   5.562  17.536  0.00  0.00    +0.000 A 
ATOM      6  C   UNL     1       3.469   5.080  17.858  0.00  0.00    +0.000 A 
ATOM      7  N   UNL     1       3.110   3.749  17.748  0.00  0.00    +0.000 N 
ATOM      8  C   UNL     1       1.720   3.414  17.396  0.00  0.00    +0.000 C 
ATOM      9  C   UNL     1       0.963   2.749  18.555  0.00  0.00    +0.000 C 
ATOM     10  O   UNL     1       1.699   1.647  19.106  0.00  0.00    +0.000 OA
ATOM     11  C   UNL     1       2.936   2.127  19.644  0.00  0.00    +0.000 C 
ATOM     12  C   UNL     1       3.818   2.749  18.559  0.00  0.00    +0.000 C 
ATOM     13  N   UNL     1       2.549   6.024  18.220  0.00  0.00    +0.000 NA
ATOM     14  C   UNL     1       2.911   7.328  18.279  0.00  0.00    +0.000 A 
ATOM     15  N   UNL     1       4.110   7.835  17.989  0.00  0.00    +0.000 NA
ATOM     16  C   UNL     1       5.009   6.916  17.610  0.00  0.00    +0.000 A 
ENDROOT
BRANCH  14  17
ATOM     17  C   UNL     1       1.959   8.359  18.702  0.00  0.00    +0.000 C 
ATOM     18  C   UNL     1       1.647   9.509  18.079  0.00  0.00    +0.000 C 
BRANCH  18  19
ATOM     19  C   UNL     1       0.652  10.461  18.605  0.00  0.00    +0.000 A 
ATOM     20  C   UNL     1       1.077  11.557  19.359  0.00  0.00    +0.000 A 
ATOM     21  C   UNL     1       0.143  12.460  19.873  0.00  0.00    +0.000 A 
ATOM     22  C   UNL     1      -1.199  12.234  19.624  0.00  0.00    +0.000 A 
ATOM     23  N   UNL     1      -1.659  11.184  18.913  0.00  0.00    +0.000 NA
ATOM     24  C   UNL     1      -0.727  10.325  18.427  0.00  0.00    +0.000 A 
ENDBRANCH  18  19
ENDBRANCH  14  17
BRANCH   1  25
ATOM     25  C   UNL     1       7.088   8.385  17.122  0.00  0.00    +0.000 C 
BRANCH  25  27
ATOM     26  C   UNL     1       8.750   9.955  18.275  0.00  0.00    +0.000 C 
ATOM     27  C   UNL     1       8.213   8.533  18.150  0.00  0.00    +0.000 C 
ENDBRANCH  25  27
ENDBRANCH   1  25
TORSDOF 4
ENDMDL
MODEL 7
REMARK VINA RESULT:      -6.9      2.019      2.234
REMARK  Name = 
REMARK  6 active torsions:
REMARK  status: ('A' for Active; 'I' for Inactive)
REMARK    1  A    between atoms: C_1  and  C_2
REMARK    2  A    between atoms: C_2  and  C_3
REMARK    3  A    between atoms: C_3  and  C_4
REMARK    4  A    between atoms: N_6  and  C_7
REMARK    5  A    between atoms: C_17  and  C_18
REMARK    6  A    between atoms: C_19  and  C_20
REMARK                            x       y       z     vdW  Elec       q    Type
REMARK                         _______ _______ _______ _____ _____    ______ ____
ROOT
ATOM      1  C   UNL     1       6.228   6.645  17.569  0.00  0.00    +0.000 A 
ATOM      2  N   UNL     1       6.728   5.429  17.811  0.00  0.00    +0.000 NA
ATOM      3  N   UNL     1       5.648   4.709  18.206  0.00  0.00    +0.000 N 
ATOM      4  C   UNL     1       5.852   3.301  18.442  0.00  0.00    +0.000 C 
ATOM      5  C   UNL     1       4.487   5.441  18.299  0.00  0.00    +0.000 A 
ATOM      6  C   UNL     1       3.150   5.186  18.650  0.00  0.00    +0.000 A 
ATOM      7  N   UNL     1       2.692   3.940  19.039  0.00  0.00    +0.000 N 
ATOM      8  C   UNL     1       1.312   3.553  18.705  0.00  0.00    +0.000 C 
ATOM      9  C   UNL     1       0.414   3.445  19.945  0.00  0.00    +0.000 C 
ATOM     10  O   UNL     1       1.010   2.627  20.963  0.00  0.00    +0.000 OA
ATOM     11  C   UNL     1       2.236   3.227  21.393  0.00  0.00    +0.000 C 
ATOM     12  C   UNL     1       3.250   3.321  20.250  0.00  0.00    +0.000 C 
ATOM     13  N   UNL     1       2.285   6.235  18.509  0.00  0.00    +0.000 NA
ATOM     14  C   UNL     1       2.747   7.435  18.083  0.00  0.00    +0.000 A 
ATOM     15  N   UNL     1       4.002   7.730  17.745  0.00  0.00    +0.000 NA
ATOM     16  C   UNL     1       4.850   6.697  17.858  0.00  0.00    +0.000 A 
ENDROOT
BRANCH  14  17
ATOM     17  C   UNL     1       1.852   8.590  17.960  0.00  0.00    +0.000 C 
ATOM     18  C   UNL     1       1.317   9.335  18.942  0.00  0.00    +0.000 C 
BRANCH  18  19
ATOM     19  C   UNL     1       0.437  10.489  18.683  0.00  0.00    +0.000 A 
ATOM     20  C   UNL     1      -0.855  10.277  18.196  0.00  0.00    +0.000 A 
ATOM     21  C   UNL     1      -1.694  11.362  17.936  0.00  0.00    +0.000 A 
ATOM     22  C   UNL     1      -1.211  12.639  18.164  0.00  0.00    +0.000 A 
ATOM     23  N   UNL     1       0.031  12.896  18.621  0.00  0.00    +0.000 NA
ATOM     24  C   UNL     1       0.823  11.819  18.864  0.00  0.00    +0.000 A 
ENDBRANCH  18  19
ENDBRANCH  14  17
BRANCH   1  25
ATOM     25  C   UNL     1       7.075   7.754  17.049  0.00  0.00    +0.000 C 
BRANCH  25  27
ATOM     26  C   UNL     1       8.391   9.687  18.089  0.00  0.00    +0.000 C 
ATOM     27  C   UNL     1       8.196   8.178  18.002  0.00  0.00    +0.000 C 
ENDBRANCH  25  27
ENDBRANCH   1  25
TORSDOF 4
ENDMDL
MODEL 8
REMARK VINA RESULT:      -6.6      2.686      3.162
REMARK  Name = 
REMARK  6 active torsions:
REMARK  status: ('A' for Active; 'I' for Inactive)
REMARK    1  A    between atoms: C_1  and  C_2
REMARK    2  A    between atoms: C_2  and  C_3
REMARK    3  A    between atoms: C_3  and  C_4
REMARK    4  A    between atoms: N_6  and  C_7
REMARK    5  A    between atoms: C_17  and  C_18
REMARK    6  A    between atoms: C_19  and  C_20
REMARK                            x       y       z     vdW  Elec       q    Type
REMARK                         _______ _______ _______ _____ _____    ______ ____
ROOT
ATOM      1  C   UNL     1       5.255   4.808  16.026  0.00  0.00    +0.000 A 
ATOM      2  N   UNL     1       5.401   3.480  16.082  0.00  0.00    +0.000 NA
ATOM      3  N   UNL     1       4.525   3.100  17.045  0.00  0.00    +0.000 N 
ATOM      4  C   UNL     1       4.373   1.683  17.269  0.00  0.00    +0.000 C 
ATOM      5  C   UNL     1       3.877   4.146  17.662  0.00  0.00    +0.000 A 
ATOM      6  C   UNL     1       2.917   4.289  18.678  0.00  0.00    +0.000 A 
ATOM      7  N   UNL     1       2.370   3.219  19.362  0.00  0.00    +0.000 N 
ATOM      8  C   UNL     1       0.978   3.311  19.832  0.00  0.00    +0.000 C 
ATOM      9  C   UNL     1       0.876   3.378  21.362  0.00  0.00    +0.000 C 
ATOM     10  O   UNL     1       1.627   2.329  21.990  0.00  0.00    +0.000 OA
ATOM     11  C   UNL     1       3.013   2.478  21.663  0.00  0.00    +0.000 C 
ATOM     12  C   UNL     1       3.252   2.352  20.156  0.00  0.00    +0.000 C 
ATOM     13  N   UNL     1       2.481   5.564  18.913  0.00  0.00    +0.000 NA
ATOM     14  C   UNL     1       3.000   6.593  18.201  0.00  0.00    +0.000 A 
ATOM     15  N   UNL     1       3.913   6.511  17.233  0.00  0.00    +0.000 NA
ATOM     16  C   UNL     1       4.325   5.261  16.983  0.00  0.00    +0.000 A 
ENDROOT
BRANCH  14  17
ATOM     17  C   UNL     1       2.582   7.975  18.456  0.00  0.00    +0.000 C 
ATOM     18  C   UNL     1       1.667   8.703  17.793  0.00  0.00    +0.000 C 
BRANCH  18  19
ATOM     19  C   UNL     1       1.325  10.088  18.162  0.00  0.00    +0.000 A 
ATOM     20  C   UNL     1       0.027  10.390  18.582  0.00  0.00    +0.000 A 
ATOM     21  C   UNL     1      -0.313  11.701  18.924  0.00  0.00    +0.000 A 
ATOM     22  C   UNL     1       0.659  12.681  18.827  0.00  0.00    +0.000 A 
ATOM     23  N   UNL     1       1.920  12.442  18.416  0.00  0.00    +0.000 NA
ATOM     24  C   UNL     1       2.220  11.158  18.091  0.00  0.00    +0.000 A 
ENDBRANCH  18  19
ENDBRANCH  14  17
BRANCH   1  25
ATOM     25  C   UNL     1       6.001   5.640  15.041  0.00  0.00    +0.000 C 
BRANCH  25  27
ATOM     26  C   UNL     1       6.477   4.083  13.065  0.00  0.00    +0.000 C 
ATOM     27  C   UNL     1       7.051   4.862  14.243  0.00  0.00    +0.000 C 
ENDBRANCH  25  27
ENDBRANCH   1  25
TORSDOF 4
ENDMDL
MODEL 9
REMARK VINA RESULT:      -6.6      2.338      4.973
REMARK  Name = 
REMARK  6 active torsions:
REMARK  status: ('A' for Active; 'I' for Inactive)
REMARK    1  A    between atoms: C_1  and  C_2
REMARK    2  A    between atoms: C_2  and  C_3
REMARK    3  A    between atoms: C_3  and  C_4
REMARK    4  A    between atoms: N_6  and  C_7
REMARK    5  A    between atoms: C_17  and  C_18
REMARK    6  A    between atoms: C_19  and  C_20
REMARK                            x       y       z     vdW  Elec       q    Type
REMARK                         _______ _______ _______ _____ _____    ______ ____
ROOT
ATOM      1  C   UNL     1       1.847   2.851  18.680  0.00  0.00    +0.000 A 
ATOM      2  N   UNL     1       2.557   1.804  18.248  0.00  0.00    +0.000 NA
ATOM      3  N   UNL     1       3.695   2.363  17.766  0.00  0.00    +0.000 N 
ATOM      4  C   UNL     1       4.726   1.461  17.315  0.00  0.00    +0.000 C 
ATOM      5  C   UNL     1       3.706   3.737  17.803  0.00  0.00    +0.000 A 
ATOM      6  C   UNL     1       4.603   4.757  17.439  0.00  0.00    +0.000 A 
ATOM      7  N   UNL     1       5.841   4.512  16.872  0.00  0.00    +0.000 N 
ATOM      8  C   UNL     1       6.953   5.431  17.165  0.00  0.00    +0.000 C 
ATOM      9  C   UNL     1       7.383   6.245  15.937  0.00  0.00    +0.000 C 
ATOM     10  O   UNL     1       7.617   5.404  14.797  0.00  0.00    +0.000 OA
ATOM     11  C   UNL     1       6.400   4.738  14.444  0.00  0.00    +0.000 C 
ATOM     12  C   UNL     1       5.908   3.828  15.572  0.00  0.00    +0.000 C 
ATOM     13  N   UNL     1       4.219   6.031  17.752  0.00  0.00    +0.000 NA
ATOM     14  C   UNL     1       3.021   6.244  18.347  0.00  0.00    +0.000 A 
ATOM     15  N   UNL     1       2.134   5.316  18.706  0.00  0.00    +0.000 NA
ATOM     16  C   UNL     1       2.518   4.063  18.424  0.00  0.00    +0.000 A 
ENDROOT
BRANCH  14  17
ATOM     17  C   UNL     1       2.563   7.602  18.659  0.00  0.00    +0.000 C 
ATOM     18  C   UNL     1       1.697   7.989  19.611  0.00  0.00    +0.000 C 
BRANCH  18  19
ATOM     19  C   UNL     1       1.328   9.399  19.833  0.00  0.00    +0.000 A 
ATOM     20  C   UNL     1       1.266  10.276  18.748  0.00  0.00    +0.000 A 
ATOM     21  C   UNL     1       0.929  11.616  18.947  0.00  0.00    +0.000 A 
ATOM     22  C   UNL     1       0.671  12.047  20.236  0.00  0.00    +0.000 A 
ATOM     23  N   UNL     1       0.730  11.243  21.317  0.00  0.00    +0.000 NA
ATOM     24  C   UNL     1       1.060   9.945  21.091  0.00  0.00    +0.000 A 
ENDBRANCH  18  19
ENDBRANCH  14  17
BRANCH   1  25
ATOM     25  C   UNL     1       0.527   2.683  19.350  0.00  0.00    +0.000 C 
BRANCH  25  27
ATOM     26  C   UNL     1       1.771   2.578  21.585  0.00  0.00    +0.000 C 
ATOM     27  C   UNL     1       0.534   3.057  20.835  0.00  0.00    +0.000 C 
ENDBRANCH  25  27
ENDBRANCH   1  25
TORSDOF 4
ENDMDL
