MODEL 1
REMARK VINA RESULT:      -9.4      0.000      0.000
REMARK  Name = 
REMARK  6 active torsions:
REMARK  status: ('A' for Active; 'I' for Inactive)
REMARK    1  A    between atoms: C_2  and  C_26
REMARK    2  A    between atoms: N_3  and  C_4
REMARK    3  A    between atoms: C_4  and  C_5
REMARK    4  A    between atoms: C_8  and  S_9
REMARK    5  A    between atoms: S_9  and  C_12
REMARK    6  A    between atoms: C_16  and  N_17
REMARK                            x       y       z     vdW  Elec       q    Type
REMARK                         _______ _______ _______ _____ _____    ______ ____
ROOT
ATOM      1  C   UNL     1       1.268   7.954  20.379  0.00  0.00    +0.000 A 
ATOM      2  C   UNL     1       1.646   8.548  19.172  0.00  0.00    +0.000 A 
ATOM      3  C   UNL     1       1.128   9.800  18.829  0.00  0.00    +0.000 A 
ATOM      4  C   UNL     1       0.251  10.422  19.716  0.00  0.00    +0.000 A 
ATOM      5  C   UNL     1      -0.087   9.766  20.888  0.00  0.00    +0.000 A 
ATOM      6  N   UNL     1       0.419   8.560  21.250  0.00  0.00    +0.000 NA
ENDROOT
BRANCH   4   7
ATOM      7  S   UNL     1      -0.547  11.946  19.334  0.00  0.00    +0.000 S 
ATOM      8  O   UNL     1      -0.987  12.525  20.590  0.00  0.00    +0.000 OA
ATOM      9  O   UNL     1       0.352  12.695  18.471  0.00  0.00    +0.000 OA
BRANCH   7  10
ATOM     10  C   UNL     1      -1.997  11.589  18.369  0.00  0.00    +0.000 A 
ATOM     11  C   UNL     1      -1.871  11.157  17.050  0.00  0.00    +0.000 A 
ATOM     12  C   UNL     1      -3.025  10.932  16.303  0.00  0.00    +0.000 A 
ATOM     13  C   UNL     1      -4.282  11.142  16.874  0.00  0.00    +0.000 A 
ATOM     14  C   UNL     1      -4.433  11.600  18.191  0.00  0.00    +0.000 A 
ATOM     15  C   UNL     1      -3.259  11.830  18.926  0.00  0.00    +0.000 A 
BRANCH  14  16
ATOM     16  N   UNL     1      -5.673  11.815  18.752  0.00  0.00    +0.000 N 
ATOM     17  C   UNL     1      -5.929  12.879  19.734  0.00  0.00    +0.000 C 
ATOM     18  C   UNL     1      -6.385  12.280  21.071  0.00  0.00    +0.000 C 
ATOM     19  O   UNL     1      -7.518  11.413  20.901  0.00  0.00    +0.000 OA
ATOM     20  C   UNL     1      -7.187  10.329  20.016  0.00  0.00    +0.000 C 
ATOM     21  C   UNL     1      -6.764  10.833  18.623  0.00  0.00    +0.000 C 
ENDBRANCH  14  16
ENDBRANCH   7  10
ENDBRANCH   4   7
BRANCH   1  22
ATOM     22  C   UNL     1       1.818   6.599  20.770  0.00  0.00    +0.000 C 
BRANCH  22  25
ATOM     23  O   UNL     1       2.036   4.844  18.579  0.00  0.00    +0.000 OA
ATOM     24  C   UNL     1       3.038   5.426  18.979  0.00  0.00    +0.000 C 
ATOM     25  N   UNL     1       3.039   6.279  20.062  0.00  0.00    +0.000 N 
ATOM     26  H   UNL     1       3.880   6.742  20.377  0.00  0.00    +0.000 HD
BRANCH  24  27
ATOM     27  C   UNL     1       4.329   5.224  18.288  0.00  0.00    +0.000 A 
ATOM     28  C   UNL     1       5.446   4.813  19.017  0.00  0.00    +0.000 A 
ATOM     29  N   UNL     1       6.683   4.565  18.503  0.00  0.00    +0.000 NA
ATOM     30  C   UNL     1       6.727   4.739  17.167  0.00  0.00    +0.000 A 
ATOM     31  N   UNL     1       7.806   4.545  16.353  0.00  0.00    +0.000 N 
ATOM     32  N   UNL     1       7.553   4.788  15.047  0.00  0.00    +0.000 NA
ATOM     33  C   UNL     1       6.264   5.141  15.044  0.00  0.00    +0.000 A 
ATOM     34  C   UNL     1       5.693   5.132  16.332  0.00  0.00    +0.000 A 
ATOM     35  C   UNL     1       4.441   5.388  16.903  0.00  0.00    +0.000 A 
ATOM     36  H   UNL     1       8.732   4.242  16.629  0.00  0.00    +0.000 HD
ENDBRANCH  24  27
ENDBRANCH  22  25
ENDBRANCH   1  22
TORSDOF 6
ENDMDL
MODEL 2
REMARK VINA RESULT:      -9.2      2.559      3.664
REMARK  Name = 
REMARK  6 active torsions:
REMARK  status: ('A' for Active; 'I' for Inactive)
REMARK    1  A    between atoms: C_2  and  C_26
REMARK    2  A    between atoms: N_3  and  C_4
REMARK    3  A    between atoms: C_4  and  C_5
REMARK    4  A    between atoms: C_8  and  S_9
REMARK    5  A    between atoms: S_9  and  C_12
REMARK    6  A    between atoms: C_16  and  N_17
REMARK                            x       y       z     vdW  Elec       q    Type
REMARK                         _______ _______ _______ _____ _____    ______ ____
ROOT
ATOM      1  C   UNL     1       2.255   5.537  19.463  0.00  0.00    +0.000 A 
ATOM      2  C   UNL     1       2.562   6.770  18.883  0.00  0.00    +0.000 A 
ATOM      3  C   UNL     1       2.144   7.948  19.508  0.00  0.00    +0.000 A 
ATOM      4  C   UNL     1       1.436   7.849  20.705  0.00  0.00    +0.000 A 
ATOM      5  C   UNL     1       1.159   6.592  21.213  0.00  0.00    +0.000 A 
ATOM      6  N   UNL     1       1.572   5.436  20.633  0.00  0.00    +0.000 NA
ENDROOT
BRANCH   4   7
ATOM      7  S   UNL     1       0.766   9.262  21.518  0.00  0.00    +0.000 S 
ATOM      8  O   UNL     1      -0.370   8.806  22.298  0.00  0.00    +0.000 OA
ATOM      9  O   UNL     1       1.869   9.939  22.180  0.00  0.00    +0.000 OA
BRANCH   7  10
ATOM     10  C   UNL     1       0.153  10.379  20.279  0.00  0.00    +0.000 A 
ATOM     11  C   UNL     1       0.693  11.659  20.164  0.00  0.00    +0.000 A 
ATOM     12  C   UNL     1       0.160  12.530  19.216  0.00  0.00    +0.000 A 
ATOM     13  C   UNL     1      -0.899  12.120  18.403  0.00  0.00    +0.000 A 
ATOM     14  C   UNL     1      -1.474  10.846  18.518  0.00  0.00    +0.000 A 
ATOM     15  C   UNL     1      -0.930   9.985  19.484  0.00  0.00    +0.000 A 
BRANCH  14  16
ATOM     16  N   UNL     1      -2.523  10.444  17.721  0.00  0.00    +0.000 N 
ATOM     17  C   UNL     1      -2.329   9.798  16.415  0.00  0.00    +0.000 C 
ATOM     18  C   UNL     1      -2.936  10.653  15.294  0.00  0.00    +0.000 C 
ATOM     19  O   UNL     1      -4.317  10.954  15.552  0.00  0.00    +0.000 OA
ATOM     20  C   UNL     1      -4.446  11.679  16.787  0.00  0.00    +0.000 C 
ATOM     21  C   UNL     1      -3.907  10.875  17.985  0.00  0.00    +0.000 C 
ENDBRANCH  14  16
ENDBRANCH   7  10
ENDBRANCH   4   7
BRANCH   1  22
ATOM     22  C   UNL     1       2.699   4.250  18.801  0.00  0.00    +0.000 C 
BRANCH  22  25
ATOM     23  O   UNL     1       5.513   4.357  18.782  0.00  0.00    +0.000 OA
ATOM     24  C   UNL     1       4.904   4.494  17.727  0.00  0.00    +0.000 C 
ATOM     25  N   UNL     1       3.528   4.488  17.639  0.00  0.00    +0.000 N 
ATOM     26  H   UNL     1       3.048   4.610  16.758  0.00  0.00    +0.000 HD
BRANCH  24  27
ATOM     27  C   UNL     1       5.652   4.677  16.466  0.00  0.00    +0.000 A 
ATOM     28  C   UNL     1       6.757   5.530  16.436  0.00  0.00    +0.000 A 
ATOM     29  N   UNL     1       7.548   5.767  15.353  0.00  0.00    +0.000 NA
ATOM     30  C   UNL     1       7.164   5.058  14.273  0.00  0.00    +0.000 A 
ATOM     31  N   UNL     1       7.763   5.050  13.045  0.00  0.00    +0.000 N 
ATOM     32  N   UNL     1       7.163   4.231  12.153  0.00  0.00    +0.000 NA
ATOM     33  C   UNL     1       6.154   3.701  12.851  0.00  0.00    +0.000 A 
ATOM     34  C   UNL     1       6.099   4.176  14.177  0.00  0.00    +0.000 A 
ATOM     35  C   UNL     1       5.305   3.969  15.310  0.00  0.00    +0.000 A 
ATOM     36  H   UNL     1       8.583   5.574  12.763  0.00  0.00    +0.000 HD
ENDBRANCH  24  27
ENDBRANCH  22  25
ENDBRANCH   1  22
TORSDOF 6
ENDMDL
MODEL 3
REMARK VINA RESULT:      -9.1      1.535      2.103
REMARK  Name = 
REMARK  6 active torsions:
REMARK  status: ('A' for Active; 'I' for Inactive)
REMARK    1  A    between atoms: C_2  and  C_26
REMARK    2  A    between atoms: N_3  and  C_4
REMARK    3  A    between atoms: C_4  and  C_5
REMARK    4  A    between atoms: C_8  and  S_9
REMARK    5  A    between atoms: S_9  and  C_12
REMARK    6  A    between atoms: C_16  and  N_17
REMARK                            x       y       z     vdW  Elec       q    Type
REMARK                         _______ _______ _______ _____ _____    ______ ____
ROOT
ATOM      1  C   UNL     1       2.150   7.742  19.327  0.00  0.00    +0.000 A 
ATOM      2  C   UNL     1       2.105   8.501  18.154  0.00  0.00    +0.000 A 
ATOM      3  C   UNL     1       1.358   9.681  18.128  0.00  0.00    +0.000 A 
ATOM      4  C   UNL     1       0.685  10.069  19.285  0.00  0.00    +0.000 A 
ATOM      5  C   UNL     1       0.768   9.260  20.406  0.00  0.00    +0.000 A 
ATOM      6  N   UNL     1       1.503   8.120  20.460  0.00  0.00    +0.000 NA
ENDROOT
BRANCH   4   7
ATOM      7  S   UNL     1      -0.373  11.477  19.329  0.00  0.00    +0.000 S 
ATOM      8  O   UNL     1      -0.722  11.706  20.719  0.00  0.00    +0.000 OA
ATOM      9  O   UNL     1       0.281  12.529  18.568  0.00  0.00    +0.000 OA
BRANCH   7  10
ATOM     10  C   UNL     1      -1.870  11.076  18.458  0.00  0.00    +0.000 A 
ATOM     11  C   UNL     1      -1.836  10.194  17.380  0.00  0.00    +0.000 A 
ATOM     12  C   UNL     1      -3.017   9.936  16.686  0.00  0.00    +0.000 A 
ATOM     13  C   UNL     1      -4.207  10.558  17.069  0.00  0.00    +0.000 A 
ATOM     14  C   UNL     1      -4.259  11.468  18.136  0.00  0.00    +0.000 A 
ATOM     15  C   UNL     1      -3.059  11.722  18.817  0.00  0.00    +0.000 A 
BRANCH  14  16
ATOM     16  N   UNL     1      -5.431  12.088  18.509  0.00  0.00    +0.000 N 
ATOM     17  C   UNL     1      -6.486  12.443  17.547  0.00  0.00    +0.000 C 
ATOM     18  C   UNL     1      -6.703  13.962  17.521  0.00  0.00    +0.000 C 
ATOM     19  O   UNL     1      -6.969  14.478  18.835  0.00  0.00    +0.000 OA
ATOM     20  C   UNL     1      -5.865  14.200  19.713  0.00  0.00    +0.000 C 
ATOM     21  C   UNL     1      -5.601  12.688  19.844  0.00  0.00    +0.000 C 
ENDBRANCH  14  16
ENDBRANCH   7  10
ENDBRANCH   4   7
BRANCH   1  22
ATOM     22  C   UNL     1       2.954   6.460  19.377  0.00  0.00    +0.000 C 
BRANCH  22  25
ATOM     23  O   UNL     1       5.452   5.170  19.210  0.00  0.00    +0.000 OA
ATOM     24  C   UNL     1       4.917   5.571  18.182  0.00  0.00    +0.000 C 
ATOM     25  N   UNL     1       3.712   6.241  18.165  0.00  0.00    +0.000 N 
ATOM     26  H   UNL     1       3.295   6.568  17.304  0.00  0.00    +0.000 HD
BRANCH  24  27
ATOM     27  C   UNL     1       5.572   5.341  16.877  0.00  0.00    +0.000 A 
ATOM     28  C   UNL     1       6.858   5.837  16.653  0.00  0.00    +0.000 A 
ATOM     29  N   UNL     1       7.583   5.674  15.512  0.00  0.00    +0.000 NA
ATOM     30  C   UNL     1       6.929   4.942  14.588  0.00  0.00    +0.000 A 
ATOM     31  N   UNL     1       7.392   4.578  13.356  0.00  0.00    +0.000 N 
ATOM     32  N   UNL     1       6.517   3.831  12.645  0.00  0.00    +0.000 NA
ATOM     33  C   UNL     1       5.470   3.718  13.467  0.00  0.00    +0.000 A 
ATOM     34  C   UNL     1       5.663   4.388  14.692  0.00  0.00    +0.000 A 
ATOM     35  C   UNL     1       4.946   4.589  15.877  0.00  0.00    +0.000 A 
ATOM     36  H   UNL     1       8.293   4.802  12.952  0.00  0.00    +0.000 HD
ENDBRANCH  24  27
ENDBRANCH  22  25
ENDBRANCH   1  22
TORSDOF 6
ENDMDL
MODEL 4
REMARK VINA RESULT:      -9.1      1.782      2.647
REMARK  Name = 
REMARK  6 active torsions:
REMARK  status: ('A' for Active; 'I' for Inactive)
REMARK    1  A    between atoms: C_2  and  C_26
REMARK    2  A    between atoms: N_3  and  C_4
REMARK    3  A    between atoms: C_4  and  C_5
REMARK    4  A    between atoms: C_8  and  S_9
REMARK    5  A    between atoms: S_9  and  C_12
REMARK    6  A    between atoms: C_16  and  N_17
REMARK                            x       y       z     vdW  Elec       q    Type
REMARK                         _______ _______ _______ _____ _____    ______ ____
ROOT
ATOM      1  C   UNL     1       1.382   8.098  20.684  0.00  0.00    +0.000 A 
ATOM      2  C   UNL     1       1.470   8.763  19.458  0.00  0.00    +0.000 A 
ATOM      3  C   UNL     1       1.174  10.127  19.393  0.00  0.00    +0.000 A 
ATOM      4  C   UNL     1       0.808  10.785  20.567  0.00  0.00    +0.000 A 
ATOM      5  C   UNL     1       0.733  10.056  21.742  0.00  0.00    +0.000 A 
ATOM      6  N   UNL     1       1.034   8.736  21.832  0.00  0.00    +0.000 NA
ENDROOT
BRANCH   4   7
ATOM      7  S   UNL     1       0.308  12.475  20.579  0.00  0.00    +0.000 S 
ATOM      8  O   UNL     1       0.501  12.966  21.931  0.00  0.00    +0.000 OA
ATOM      9  O   UNL     1       0.983  13.129  19.471  0.00  0.00    +0.000 OA
BRANCH   7  10
ATOM     10  C   UNL     1      -1.433  12.542  20.226  0.00  0.00    +0.000 A 
ATOM     11  C   UNL     1      -2.278  13.318  21.017  0.00  0.00    +0.000 A 
ATOM     12  C   UNL     1      -3.645  13.313  20.746  0.00  0.00    +0.000 A 
ATOM     13  C   UNL     1      -4.150  12.539  19.700  0.00  0.00    +0.000 A 
ATOM     14  C   UNL     1      -3.321  11.731  18.906  0.00  0.00    +0.000 A 
ATOM     15  C   UNL     1      -1.949  11.742  19.199  0.00  0.00    +0.000 A 
BRANCH  14  16
ATOM     16  N   UNL     1      -3.821  10.961  17.879  0.00  0.00    +0.000 N 
ATOM     17  C   UNL     1      -3.297   9.625  17.558  0.00  0.00    +0.000 C 
ATOM     18  C   UNL     1      -2.714   9.600  16.139  0.00  0.00    +0.000 C 
ATOM     19  O   UNL     1      -3.671  10.056  15.169  0.00  0.00    +0.000 OA
ATOM     20  C   UNL     1      -4.073  11.405  15.462  0.00  0.00    +0.000 C 
ATOM     21  C   UNL     1      -4.721  11.522  16.855  0.00  0.00    +0.000 C 
ENDBRANCH  14  16
ENDBRANCH   7  10
ENDBRANCH   4   7
BRANCH   1  22
ATOM     22  C   UNL     1       1.698   6.620  20.776  0.00  0.00    +0.000 C 
BRANCH  22  25
ATOM     23  O   UNL     1       1.946   4.976  18.503  0.00  0.00    +0.000 OA
ATOM     24  C   UNL     1       2.952   5.489  18.981  0.00  0.00    +0.000 C 
ATOM     25  N   UNL     1       2.937   6.282  20.108  0.00  0.00    +0.000 N 
ATOM     26  H   UNL     1       3.782   6.689  20.487  0.00  0.00    +0.000 HD
BRANCH  24  27
ATOM     27  C   UNL     1       4.265   5.266  18.339  0.00  0.00    +0.000 A 
ATOM     28  C   UNL     1       5.341   4.817  19.107  0.00  0.00    +0.000 A 
ATOM     29  N   UNL     1       6.591   4.546  18.639  0.00  0.00    +0.000 NA
ATOM     30  C   UNL     1       6.694   4.737  17.310  0.00  0.00    +0.000 A 
ATOM     31  N   UNL     1       7.801   4.529  16.537  0.00  0.00    +0.000 N 
ATOM     32  N   UNL     1       7.607   4.796  15.226  0.00  0.00    +0.000 NA
ATOM     33  C   UNL     1       6.328   5.180  15.175  0.00  0.00    +0.000 A 
ATOM     34  C   UNL     1       5.704   5.167  16.440  0.00  0.00    +0.000 A 
ATOM     35  C   UNL     1       4.437   5.445  16.963  0.00  0.00    +0.000 A 
ATOM     36  H   UNL     1       8.707   4.199  16.846  0.00  0.00    +0.000 HD
ENDBRANCH  24  27
ENDBRANCH  22  25
ENDBRANCH   1  22
TORSDOF 6
ENDMDL
MODEL 5
REMARK VINA RESULT:      -9.1      1.227      1.528
REMARK  Name = 
REMARK  6 active torsions:
REMARK  status: ('A' for Active; 'I' for Inactive)
REMARK    1  A    between atoms: C_2  and  C_26
REMARK    2  A    between atoms: N_3  and  C_4
REMARK    3  A    between atoms: C_4  and  C_5
REMARK    4  A    between atoms: C_8  and  S_9
REMARK    5  A    between atoms: S_9  and  C_12
REMARK    6  A    between atoms: C_16  and  N_17
REMARK                            x       y       z     vdW  Elec       q    Type
REMARK                         _______ _______ _______ _____ _____    ______ ____
ROOT
ATOM      1  C   UNL     1       1.561   8.135  19.766  0.00  0.00    +0.000 A 
ATOM      2  C   UNL     1       0.759   8.574  20.823  0.00  0.00    +0.000 A 
ATOM      3  C   UNL     1      -0.058   9.694  20.646  0.00  0.00    +0.000 A 
ATOM      4  C   UNL     1      -0.052  10.333  19.408  0.00  0.00    +0.000 A 
ATOM      5  C   UNL     1       0.778   9.847  18.412  0.00  0.00    +0.000 A 
ATOM      6  N   UNL     1       1.564   8.749  18.555  0.00  0.00    +0.000 NA
ENDROOT
BRANCH   4   7
ATOM      7  S   UNL     1      -0.957  11.817  19.112  0.00  0.00    +0.000 S 
ATOM      8  O   UNL     1      -1.560  12.207  20.372  0.00  0.00    +0.000 OA
ATOM      9  O   UNL     1      -0.062  12.734  18.427  0.00  0.00    +0.000 OA
BRANCH   7  10
ATOM     10  C   UNL     1      -2.274  11.448  17.977  0.00  0.00    +0.000 A 
ATOM     11  C   UNL     1      -1.987  11.144  16.647  0.00  0.00    +0.000 A 
ATOM     12  C   UNL     1      -3.042  10.908  15.768  0.00  0.00    +0.000 A 
ATOM     13  C   UNL     1      -4.361  10.980  16.221  0.00  0.00    +0.000 A 
ATOM     14  C   UNL     1      -4.675  11.307  17.548  0.00  0.00    +0.000 A 
ATOM     15  C   UNL     1      -3.599  11.551  18.417  0.00  0.00    +0.000 A 
BRANCH  14  16
ATOM     16  N   UNL     1      -5.976  11.386  17.993  0.00  0.00    +0.000 N 
ATOM     17  C   UNL     1      -6.805  12.588  17.821  0.00  0.00    +0.000 C 
ATOM     18  C   UNL     1      -7.217  13.159  19.185  0.00  0.00    +0.000 C 
ATOM     19  O   UNL     1      -7.861  12.166  19.999  0.00  0.00    +0.000 OA
ATOM     20  C   UNL     1      -6.974  11.059  20.228  0.00  0.00    +0.000 C 
ATOM     21  C   UNL     1      -6.544  10.383  18.912  0.00  0.00    +0.000 C 
ENDBRANCH  14  16
ENDBRANCH   7  10
ENDBRANCH   4   7
BRANCH   1  22
ATOM     22  C   UNL     1       2.453   6.923  19.936  0.00  0.00    +0.000 C 
BRANCH  22  25
ATOM     23  O   UNL     1       4.398   4.901  19.701  0.00  0.00    +0.000 OA
ATOM     24  C   UNL     1       4.287   5.728  18.803  0.00  0.00    +0.000 C 
ATOM     25  N   UNL     1       3.387   6.773  18.841  0.00  0.00    +0.000 N 
ATOM     26  H   UNL     1       3.318   7.446  18.090  0.00  0.00    +0.000 HD
BRANCH  24  27
ATOM     27  C   UNL     1       5.145   5.631  17.605  0.00  0.00    +0.000 A 
ATOM     28  C   UNL     1       6.380   6.284  17.584  0.00  0.00    +0.000 A 
ATOM     29  N   UNL     1       7.276   6.254  16.559  0.00  0.00    +0.000 NA
ATOM     30  C   UNL     1       6.857   5.488  15.533  0.00  0.00    +0.000 A 
ATOM     31  N   UNL     1       7.534   5.232  14.375  0.00  0.00    +0.000 N 
ATOM     32  N   UNL     1       6.869   4.416  13.526  0.00  0.00    +0.000 NA
ATOM     33  C   UNL     1       5.736   4.146  14.181  0.00  0.00    +0.000 A 
ATOM     34  C   UNL     1       5.667   4.785  15.436  0.00  0.00    +0.000 A 
ATOM     35  C   UNL     1       4.768   4.851  16.506  0.00  0.00    +0.000 A 
ATOM     36  H   UNL     1       8.449   5.577  14.114  0.00  0.00    +0.000 HD
ENDBRANCH  24  27
ENDBRANCH  22  25
ENDBRANCH   1  22
TORSDOF 6
ENDMDL
MODEL 6
REMARK VINA RESULT:      -9.0      1.286      1.703
REMARK  Name = 
REMARK  6 active torsions:
REMARK  status: ('A' for Active; 'I' for Inactive)
REMARK    1  A    between atoms: C_2  and  C_26
REMARK    2  A    between atoms: N_3  and  C_4
REMARK    3  A    between atoms: C_4  and  C_5
REMARK    4  A    between atoms: C_8  and  S_9
REMARK    5  A    between atoms: S_9  and  C_12
REMARK    6  A    between atoms: C_16  and  N_17
REMARK                            x       y       z     vdW  Elec       q    Type
REMARK                         _______ _______ _______ _____ _____    ______ ____
ROOT
ATOM      1  C   UNL     1       2.070   7.694  19.613  0.00  0.00    +0.000 A 
ATOM      2  C   UNL     1       1.343   8.066  20.747  0.00  0.00    +0.000 A 
ATOM      3  C   UNL     1       0.580   9.235  20.722  0.00  0.00    +0.000 A 
ATOM      4  C   UNL     1       0.563   9.993  19.552  0.00  0.00    +0.000 A 
ATOM      5  C   UNL     1       1.318   9.567  18.472  0.00  0.00    +0.000 A 
ATOM      6  N   UNL     1       2.050   8.424  18.468  0.00  0.00    +0.000 NA
ENDROOT
BRANCH   4   7
ATOM      7  S   UNL     1      -0.274  11.540  19.447  0.00  0.00    +0.000 S 
ATOM      8  O   UNL     1      -0.564  11.962  20.805  0.00  0.00    +0.000 OA
ATOM      9  O   UNL     1       0.517  12.397  18.580  0.00  0.00    +0.000 OA
BRANCH   7  10
ATOM     10  C   UNL     1      -1.827  11.279  18.622  0.00  0.00    +0.000 A 
ATOM     11  C   UNL     1      -1.882  10.505  17.465  0.00  0.00    +0.000 A 
ATOM     12  C   UNL     1      -3.105  10.357  16.812  0.00  0.00    +0.000 A 
ATOM     13  C   UNL     1      -4.249  10.981  17.316  0.00  0.00    +0.000 A 
ATOM     14  C   UNL     1      -4.212  11.784  18.465  0.00  0.00    +0.000 A 
ATOM     15  C   UNL     1      -2.970  11.929  19.104  0.00  0.00    +0.000 A 
BRANCH  14  16
ATOM     16  N   UNL     1      -5.338  12.406  18.957  0.00  0.00    +0.000 N 
ATOM     17  C   UNL     1      -5.305  13.314  20.113  0.00  0.00    +0.000 C 
ATOM     18  C   UNL     1      -6.163  12.761  21.259  0.00  0.00    +0.000 C 
ATOM     19  O   UNL     1      -7.504  12.481  20.825  0.00  0.00    +0.000 OA
ATOM     20  C   UNL     1      -7.491  11.509  19.767  0.00  0.00    +0.000 C 
ATOM     21  C   UNL     1      -6.693  11.999  18.544  0.00  0.00    +0.000 C 
ENDBRANCH  14  16
ENDBRANCH   7  10
ENDBRANCH   4   7
BRANCH   1  22
ATOM     22  C   UNL     1       2.903   6.429  19.620  0.00  0.00    +0.000 C 
BRANCH  22  25
ATOM     23  O   UNL     1       4.788   4.394  19.135  0.00  0.00    +0.000 OA
ATOM     24  C   UNL     1       4.646   5.285  18.306  0.00  0.00    +0.000 C 
ATOM     25  N   UNL     1       3.773   6.341  18.467  0.00  0.00    +0.000 N 
ATOM     26  H   UNL     1       3.680   7.068  17.771  0.00  0.00    +0.000 HD
BRANCH  24  27
ATOM     27  C   UNL     1       5.437   5.259  17.058  0.00  0.00    +0.000 A 
ATOM     28  C   UNL     1       6.592   6.036  16.955  0.00  0.00    +0.000 A 
ATOM     29  N   UNL     1       7.424   6.084  15.878  0.00  0.00    +0.000 NA
ATOM     30  C   UNL     1       7.027   5.262  14.887  0.00  0.00    +0.000 A 
ATOM     31  N   UNL     1       7.656   5.059  13.692  0.00  0.00    +0.000 N 
ATOM     32  N   UNL     1       7.032   4.165  12.893  0.00  0.00    +0.000 NA
ATOM     33  C   UNL     1       5.975   3.789  13.619  0.00  0.00    +0.000 A 
ATOM     34  C   UNL     1       5.914   4.436  14.870  0.00  0.00    +0.000 A 
ATOM     35  C   UNL     1       5.079   4.426  15.993  0.00  0.00    +0.000 A 
ATOM     36  H   UNL     1       8.513   5.493  13.372  0.00  0.00    +0.000 HD
ENDBRANCH  24  27
ENDBRANCH  22  25
ENDBRANCH   1  22
TORSDOF 6
ENDMDL
MODEL 7
REMARK VINA RESULT:      -9.0      1.051      1.498
REMARK  Name = 
REMARK  6 active torsions:
REMARK  status: ('A' for Active; 'I' for Inactive)
REMARK    1  A    between atoms: C_2  and  C_26
REMARK    2  A    between atoms: N_3  and  C_4
REMARK    3  A    between atoms: C_4  and  C_5
REMARK    4  A    between atoms: C_8  and  S_9
REMARK    5  A    between atoms: S_9  and  C_12
REMARK    6  A    between atoms: C_16  and  N_17
REMARK                            x       y       z     vdW  Elec       q    Type
REMARK                         _______ _______ _______ _____ _____    ______ ____
ROOT
ATOM      1  C   UNL     1       1.073   8.278  20.716  0.00  0.00    +0.000 A 
ATOM      2  C   UNL     1       0.186   8.927  21.578  0.00  0.00    +0.000 A 
ATOM      3  C   UNL     1      -0.441  10.104  21.160  0.00  0.00    +0.000 A 
ATOM      4  C   UNL     1      -0.163  10.588  19.883  0.00  0.00    +0.000 A 
ATOM      5  C   UNL     1       0.736   9.896  19.090  0.00  0.00    +0.000 A 
ATOM      6  N   UNL     1       1.341   8.741  19.468  0.00  0.00    +0.000 NA
ENDROOT
BRANCH   4   7
ATOM      7  S   UNL     1      -0.811  12.120  19.298  0.00  0.00    +0.000 S 
ATOM      8  O   UNL     1      -1.097  12.935  20.464  0.00  0.00    +0.000 OA
ATOM      9  O   UNL     1       0.106  12.611  18.282  0.00  0.00    +0.000 OA
BRANCH   7  10
ATOM     10  C   UNL     1      -2.353  11.795  18.477  0.00  0.00    +0.000 A 
ATOM     11  C   UNL     1      -2.362  11.340  17.159  0.00  0.00    +0.000 A 
ATOM     12  C   UNL     1      -3.586  11.140  16.525  0.00  0.00    +0.000 A 
ATOM     13  C   UNL     1      -4.779  11.399  17.205  0.00  0.00    +0.000 A 
ATOM     14  C   UNL     1      -4.794  11.881  18.522  0.00  0.00    +0.000 A 
ATOM     15  C   UNL     1      -3.551  12.084  19.142  0.00  0.00    +0.000 A 
BRANCH  14  16
ATOM     16  N   UNL     1      -5.970  12.143  19.190  0.00  0.00    +0.000 N 
ATOM     17  C   UNL     1      -6.071  13.144  20.262  0.00  0.00    +0.000 C 
ATOM     18  C   UNL     1      -6.476  12.481  21.584  0.00  0.00    +0.000 C 
ATOM     19  O   UNL     1      -7.683  11.715  21.441  0.00  0.00    +0.000 OA
ATOM     20  C   UNL     1      -7.502  10.680  20.459  0.00  0.00    +0.000 C 
ATOM     21  C   UNL     1      -7.141  11.256  19.077  0.00  0.00    +0.000 C 
ENDBRANCH  14  16
ENDBRANCH   7  10
ENDBRANCH   4   7
BRANCH   1  22
ATOM     22  C   UNL     1       1.762   7.001  21.149  0.00  0.00    +0.000 C 
BRANCH  22  25
ATOM     23  O   UNL     1       2.577   4.333  20.763  0.00  0.00    +0.000 OA
ATOM     24  C   UNL     1       3.046   5.209  20.046  0.00  0.00    +0.000 C 
ATOM     25  N   UNL     1       2.734   6.546  20.178  0.00  0.00    +0.000 N 
ATOM     26  H   UNL     1       3.139   7.251  19.577  0.00  0.00    +0.000 HD
BRANCH  24  27
ATOM     27  C   UNL     1       3.998   4.850  18.975  0.00  0.00    +0.000 A 
ATOM     28  C   UNL     1       3.517   4.371  17.754  0.00  0.00    +0.000 A 
ATOM     29  N   UNL     1       4.280   4.031  16.679  0.00  0.00    +0.000 NA
ATOM     30  C   UNL     1       5.594   4.226  16.900  0.00  0.00    +0.000 A 
ATOM     31  N   UNL     1       6.614   4.009  16.017  0.00  0.00    +0.000 N 
ATOM     32  N   UNL     1       7.836   4.304  16.513  0.00  0.00    +0.000 NA
ATOM     33  C   UNL     1       7.571   4.728  17.752  0.00  0.00    +0.000 A 
ATOM     34  C   UNL     1       6.195   4.702  18.055  0.00  0.00    +0.000 A 
ATOM     35  C   UNL     1       5.375   5.030  19.141  0.00  0.00    +0.000 A 
ATOM     36  H   UNL     1       6.534   3.671  15.065  0.00  0.00    +0.000 HD
ENDBRANCH  24  27
ENDBRANCH  22  25
ENDBRANCH   1  22
TORSDOF 6
ENDMDL
MODEL 8
REMARK VINA RESULT:      -8.9      1.694      2.469
REMARK  Name = 
REMARK  6 active torsions:
REMARK  status: ('A' for Active; 'I' for Inactive)
REMARK    1  A    between atoms: C_2  and  C_26
REMARK    2  A    between atoms: N_3  and  C_4
REMARK    3  A    between atoms: C_4  and  C_5
REMARK    4  A    between atoms: C_8  and  S_9
REMARK    5  A    between atoms: S_9  and  C_12
REMARK    6  A    between atoms: C_16  and  N_17
REMARK                            x       y       z     vdW  Elec       q    Type
REMARK                         _______ _______ _______ _____ _____    ______ ____
ROOT
ATOM      1  C   UNL     1       1.151   8.511  20.794  0.00  0.00    +0.000 A 
ATOM      2  C   UNL     1       1.277   9.281  19.634  0.00  0.00    +0.000 A 
ATOM      3  C   UNL     1       0.918  10.631  19.664  0.00  0.00    +0.000 A 
ATOM      4  C   UNL     1       0.452  11.170  20.862  0.00  0.00    +0.000 A 
ATOM      5  C   UNL     1       0.344  10.342  21.966  0.00  0.00    +0.000 A 
ATOM      6  N   UNL     1       0.705   9.033  21.966  0.00  0.00    +0.000 NA
ENDROOT
BRANCH   4   7
ATOM      7  S   UNL     1      -0.132  12.829  20.982  0.00  0.00    +0.000 S 
ATOM      8  O   UNL     1       0.704  13.505  21.956  0.00  0.00    +0.000 OA
ATOM      9  O   UNL     1      -0.225  13.348  19.628  0.00  0.00    +0.000 OA
BRANCH   7  10
ATOM     10  C   UNL     1      -1.787  12.791  21.627  0.00  0.00    +0.000 A 
ATOM     11  C   UNL     1      -2.005  12.869  23.001  0.00  0.00    +0.000 A 
ATOM     12  C   UNL     1      -3.310  12.788  23.481  0.00  0.00    +0.000 A 
ATOM     13  C   UNL     1      -4.376  12.627  22.593  0.00  0.00    +0.000 A 
ATOM     14  C   UNL     1      -4.179  12.520  21.208  0.00  0.00    +0.000 A 
ATOM     15  C   UNL     1      -2.856  12.596  20.743  0.00  0.00    +0.000 A 
BRANCH  14  16
ATOM     16  N   UNL     1      -5.229  12.354  20.332  0.00  0.00    +0.000 N 
ATOM     17  C   UNL     1      -6.596  12.045  20.778  0.00  0.00    +0.000 C 
ATOM     18  C   UNL     1      -7.050  10.688  20.227  0.00  0.00    +0.000 C 
ATOM     19  O   UNL     1      -6.918  10.628  18.798  0.00  0.00    +0.000 OA
ATOM     20  C   UNL     1      -5.547  10.829  18.416  0.00  0.00    +0.000 C 
ATOM     21  C   UNL     1      -5.014  12.197  18.883  0.00  0.00    +0.000 C 
ENDBRANCH  14  16
ENDBRANCH   7  10
ENDBRANCH   4   7
BRANCH   1  22
ATOM     22  C   UNL     1       1.534   7.047  20.784  0.00  0.00    +0.000 C 
BRANCH  22  25
ATOM     23  O   UNL     1       2.834   4.565  20.492  0.00  0.00    +0.000 OA
ATOM     24  C   UNL     1       3.222   5.523  19.832  0.00  0.00    +0.000 C 
ATOM     25  N   UNL     1       2.671   6.784  19.928  0.00  0.00    +0.000 N 
ATOM     26  H   UNL     1       3.013   7.560  19.377  0.00  0.00    +0.000 HD
BRANCH  24  27
ATOM     27  C   UNL     1       4.335   5.353  18.874  0.00  0.00    +0.000 A 
ATOM     28  C   UNL     1       5.520   4.745  19.294  0.00  0.00    +0.000 A 
ATOM     29  N   UNL     1       6.608   4.502  18.511  0.00  0.00    +0.000 NA
ATOM     30  C   UNL     1       6.421   4.898  17.237  0.00  0.00    +0.000 A 
ATOM     31  N   UNL     1       7.305   4.771  16.204  0.00  0.00    +0.000 N 
ATOM     32  N   UNL     1       6.840   5.249  15.028  0.00  0.00    +0.000 NA
ATOM     33  C   UNL     1       5.616   5.688  15.336  0.00  0.00    +0.000 A 
ATOM     34  C   UNL     1       5.296   5.499  16.696  0.00  0.00    +0.000 A 
ATOM     35  C   UNL     1       4.204   5.741  17.537  0.00  0.00    +0.000 A 
ATOM     36  H   UNL     1       8.230   4.360  16.240  0.00  0.00    +0.000 HD
ENDBRANCH  24  27
ENDBRANCH  22  25
ENDBRANCH   1  22
TORSDOF 6
ENDMDL
MODEL 9
REMARK VINA RESULT:      -8.8      1.377      1.815
REMARK  Name = 
REMARK  6 active torsions:
REMARK  status: ('A' for Active; 'I' for Inactive)
REMARK    1  A    between atoms: C_2  and  C_26
REMARK    2  A    between atoms: N_3  and  C_4
REMARK    3  A    between atoms: C_4  and  C_5
REMARK    4  A    between atoms: C_8  and  S_9
REMARK    5  A    between atoms: S_9  and  C_12
REMARK    6  A    between atoms: C_16  and  N_17
REMARK                            x       y       z     vdW  Elec       q    Type
REMARK                         _______ _______ _______ _____ _____    ______ ____
ROOT
ATOM      1  C   UNL     1       0.978   8.694  20.315  0.00  0.00    +0.000 A 
ATOM      2  C   UNL     1       1.312   9.331  19.116  0.00  0.00    +0.000 A 
ATOM      3  C   UNL     1       0.741  10.570  18.814  0.00  0.00    +0.000 A 
ATOM      4  C   UNL     1      -0.142  11.137  19.732  0.00  0.00    +0.000 A 
ATOM      5  C   UNL     1      -0.433  10.441  20.893  0.00  0.00    +0.000 A 
ATOM      6  N   UNL     1       0.124   9.246  21.216  0.00  0.00    +0.000 NA
ENDROOT
BRANCH   4   7
ATOM      7  S   UNL     1      -1.003  12.639  19.401  0.00  0.00    +0.000 S 
ATOM      8  O   UNL     1      -0.724  13.542  20.503  0.00  0.00    +0.000 OA
ATOM      9  O   UNL     1      -0.667  13.035  18.044  0.00  0.00    +0.000 OA
BRANCH   7  10
ATOM     10  C   UNL     1      -2.747  12.296  19.415  0.00  0.00    +0.000 A 
ATOM     11  C   UNL     1      -3.327  11.580  18.369  0.00  0.00    +0.000 A 
ATOM     12  C   UNL     1      -4.704  11.369  18.383  0.00  0.00    +0.000 A 
ATOM     13  C   UNL     1      -5.482  11.873  19.427  0.00  0.00    +0.000 A 
ATOM     14  C   UNL     1      -4.923  12.617  20.477  0.00  0.00    +0.000 A 
ATOM     15  C   UNL     1      -3.535  12.828  20.443  0.00  0.00    +0.000 A 
BRANCH  14  16
ATOM     16  N   UNL     1      -5.691  13.121  21.504  0.00  0.00    +0.000 N 
ATOM     17  C   UNL     1      -5.111  13.628  22.757  0.00  0.00    +0.000 C 
ATOM     18  C   UNL     1      -5.601  12.799  23.952  0.00  0.00    +0.000 C 
ATOM     19  O   UNL     1      -7.036  12.742  24.000  0.00  0.00    +0.000 OA
ATOM     20  C   UNL     1      -7.551  12.142  22.800  0.00  0.00    +0.000 C 
ATOM     21  C   UNL     1      -7.153  12.937  21.542  0.00  0.00    +0.000 C 
ENDBRANCH  14  16
ENDBRANCH   7  10
ENDBRANCH   4   7
BRANCH   1  22
ATOM     22  C   UNL     1       1.585   7.352  20.662  0.00  0.00    +0.000 C 
BRANCH  22  25
ATOM     23  O   UNL     1       2.680   4.784  20.284  0.00  0.00    +0.000 OA
ATOM     24  C   UNL     1       3.168   5.735  19.683  0.00  0.00    +0.000 C 
ATOM     25  N   UNL     1       2.723   7.032  19.826  0.00  0.00    +0.000 N 
ATOM     26  H   UNL     1       3.146   7.801  19.324  0.00  0.00    +0.000 HD
BRANCH  24  27
ATOM     27  C   UNL     1       4.292   5.515  18.750  0.00  0.00    +0.000 A 
ATOM     28  C   UNL     1       5.485   4.965  19.224  0.00  0.00    +0.000 A 
ATOM     29  N   UNL     1       6.585   4.686  18.471  0.00  0.00    +0.000 NA
ATOM     30  C   UNL     1       6.402   4.979  17.168  0.00  0.00    +0.000 A 
ATOM     31  N   UNL     1       7.298   4.791  16.154  0.00  0.00    +0.000 N 
ATOM     32  N   UNL     1       6.834   5.169  14.942  0.00  0.00    +0.000 NA
ATOM     33  C   UNL     1       5.599   5.604  15.206  0.00  0.00    +0.000 A 
ATOM     34  C   UNL     1       5.270   5.514  16.574  0.00  0.00    +0.000 A 
ATOM     35  C   UNL     1       4.166   5.797  17.386  0.00  0.00    +0.000 A 
ATOM     36  H   UNL     1       8.230   4.403  16.228  0.00  0.00    +0.000 HD
ENDBRANCH  24  27
ENDBRANCH  22  25
ENDBRANCH   1  22
TORSDOF 6
ENDMDL
