MODEL 1
REMARK VINA RESULT:      -8.1      0.000      0.000
REMARK  Name = 
REMARK  13 active torsions:
REMARK  status: ('A' for Active; 'I' for Inactive)
REMARK    1  A    between atoms: C_1  and  C_2
REMARK    2  A    between atoms: C_2  and  C_3
REMARK    3  A    between atoms: C_3  and  C_4
REMARK    4  A    between atoms: C_4  and  C_5
REMARK    5  A    between atoms: C_5  and  C_6
REMARK    6  A    between atoms: C_9  and  S_10
REMARK    7  A    between atoms: S_10  and  N_13
REMARK    8  A    between atoms: N_13  and  C_14
REMARK    9  A    between atoms: C_14  and  C_15
REMARK   10  A    between atoms: C_15  and  C_16
REMARK   11  A    between atoms: C_20  and  C_21
REMARK   12  A    between atoms: C_24  and  O_25
REMARK   13  A    between atoms: O_25  and  C_26
REMARK                            x       y       z     vdW  Elec       q    Type
REMARK                         _______ _______ _______ _____ _____    ______ ____
ROOT
ATOM      1  N   UNL     1       5.411   5.748  17.884  0.00  0.00    +0.000 NA
ATOM      2  H   UNL     1       4.709   5.380  17.229  0.00  0.00    +0.000 HD
ENDROOT
BRANCH   1   3
ATOM      3  S   UNL     1       6.898   5.994  17.133  0.00  0.00    +0.000 S 
ATOM      4  O   UNL     1       7.888   5.259  17.884  0.00  0.00    +0.000 OA
ATOM      5  O   UNL     1       7.023   7.411  16.873  0.00  0.00    +0.000 OA
BRANCH   3   9
ATOM      6  C   UNL     1       6.340   3.817  13.157  0.00  0.00    +0.000 A 
ATOM      7  C   UNL     1       5.494   3.550  14.245  0.00  0.00    +0.000 A 
ATOM      8  C   UNL     1       5.647   4.237  15.445  0.00  0.00    +0.000 A 
ATOM      9  C   UNL     1       6.669   5.181  15.569  0.00  0.00    +0.000 A 
ATOM     10  C   UNL     1       7.542   5.437  14.511  0.00  0.00    +0.000 A 
ATOM     11  C   UNL     1       7.372   4.756  13.305  0.00  0.00    +0.000 A 
BRANCH   6  12
ATOM     12  C   UNL     1       6.130   3.107  11.841  0.00  0.00    +0.000 C 
BRANCH  12  13
ATOM     13  C   UNL     1       4.660   2.794  11.537  0.00  0.00    +0.000 C 
BRANCH  13  14
ATOM     14  C   UNL     1       3.869   4.006  11.038  0.00  0.00    +0.000 C 
BRANCH  14  16
ATOM     15  C   UNL     1       2.574   4.746   9.003  0.00  0.00    +0.000 C 
ATOM     16  C   UNL     1       2.895   3.592   9.935  0.00  0.00    +0.000 C 
ENDBRANCH  14  16
ENDBRANCH  13  14
ENDBRANCH  12  13
ENDBRANCH   6  12
ENDBRANCH   3   9
ENDBRANCH   1   3
BRANCH   1  17
ATOM     17  C   UNL     1       5.437   4.996  19.153  0.00  0.00    +0.000 C 
BRANCH  17  18
ATOM     18  C   UNL     1       4.575   3.747  19.063  0.00  0.00    +0.000 C 
BRANCH  18  19
ATOM     19  C   UNL     1       3.444   3.703  20.045  0.00  0.00    +0.000 A 
ATOM     20  N   UNL     1       3.204   2.564  20.796  0.00  0.00    +0.000 NA
ATOM     21  C   UNL     1       2.140   2.835  21.510  0.00  0.00    +0.000 A 
ATOM     22  N   UNL     1       1.677   4.091  21.259  0.00  0.00    +0.000 N 
ATOM     23  C   UNL     1       2.484   4.673  20.305  0.00  0.00    +0.000 A 
ATOM     24  H   UNL     1       0.874   4.520  21.696  0.00  0.00    +0.000 HD
BRANCH  23  25
ATOM     25  C   UNL     1       2.248   6.005  19.745  0.00  0.00    +0.000 A 
ATOM     26  C   UNL     1       2.247   6.219  18.362  0.00  0.00    +0.000 A 
ATOM     27  C   UNL     1       1.971   7.481  17.829  0.00  0.00    +0.000 A 
ATOM     28  C   UNL     1       1.693   8.553  18.672  0.00  0.00    +0.000 A 
ATOM     29  C   UNL     1       1.719   8.364  20.052  0.00  0.00    +0.000 A 
ATOM     30  C   UNL     1       1.992   7.097  20.582  0.00  0.00    +0.000 A 
BRANCH  28  31
ATOM     31  O   UNL     1       1.454   9.742  18.043  0.00  0.00    +0.000 OA
ATOM     32  C   UNL     1       0.101  10.175  18.052  0.00  0.00    +0.000 C 
ENDBRANCH  28  31
ENDBRANCH  23  25
ENDBRANCH  18  19
ENDBRANCH  17  18
ENDBRANCH   1  17
TORSDOF 11
ENDMDL
MODEL 2
REMARK VINA RESULT:      -8.0      1.419      1.584
REMARK  Name = 
REMARK  13 active torsions:
REMARK  status: ('A' for Active; 'I' for Inactive)
REMARK    1  A    between atoms: C_1  and  C_2
REMARK    2  A    between atoms: C_2  and  C_3
REMARK    3  A    between atoms: C_3  and  C_4
REMARK    4  A    between atoms: C_4  and  C_5
REMARK    5  A    between atoms: C_5  and  C_6
REMARK    6  A    between atoms: C_9  and  S_10
REMARK    7  A    between atoms: S_10  and  N_13
REMARK    8  A    between atoms: N_13  and  C_14
REMARK    9  A    between atoms: C_14  and  C_15
REMARK   10  A    between atoms: C_15  and  C_16
REMARK   11  A    between atoms: C_20  and  C_21
REMARK   12  A    between atoms: C_24  and  O_25
REMARK   13  A    between atoms: O_25  and  C_26
REMARK                            x       y       z     vdW  Elec       q    Type
REMARK                         _______ _______ _______ _____ _____    ______ ____
ROOT
ATOM      1  N   UNL     1       5.818   5.924  17.585  0.00  0.00    +0.000 NA
ATOM      2  H   UNL     1       5.002   5.444  17.183  0.00  0.00    +0.000 HD
ENDROOT
BRANCH   1   3
ATOM      3  S   UNL     1       7.227   5.582  16.729  0.00  0.00    +0.000 S 
ATOM      4  O   UNL     1       7.925   4.540  17.445  0.00  0.00    +0.000 OA
ATOM      5  O   UNL     1       7.853   6.844  16.401  0.00  0.00    +0.000 OA
BRANCH   3   9
ATOM      6  C   UNL     1       5.605   3.712  12.891  0.00  0.00    +0.000 A 
ATOM      7  C   UNL     1       4.843   3.704  14.069  0.00  0.00    +0.000 A 
ATOM      8  C   UNL     1       5.327   4.301  15.229  0.00  0.00    +0.000 A 
ATOM      9  C   UNL     1       6.593   4.890  15.219  0.00  0.00    +0.000 A 
ATOM     10  C   UNL     1       7.381   4.880  14.067  0.00  0.00    +0.000 A 
ATOM     11  C   UNL     1       6.882   4.293  12.903  0.00  0.00    +0.000 A 
BRANCH   6  12
ATOM     12  C   UNL     1       5.047   3.111  11.622  0.00  0.00    +0.000 C 
BRANCH  12  13
ATOM     13  C   UNL     1       3.675   3.671  11.227  0.00  0.00    +0.000 C 
BRANCH  13  14
ATOM     14  C   UNL     1       3.155   3.124   9.895  0.00  0.00    +0.000 C 
BRANCH  14  16
ATOM     15  C   UNL     1       1.986   5.179   9.013  0.00  0.00    +0.000 C 
ATOM     16  C   UNL     1       3.150   4.222   8.831  0.00  0.00    +0.000 C 
ENDBRANCH  14  16
ENDBRANCH  13  14
ENDBRANCH  12  13
ENDBRANCH   6  12
ENDBRANCH   3   9
ENDBRANCH   1   3
BRANCH   1  17
ATOM     17  C   UNL     1       5.889   5.767  19.050  0.00  0.00    +0.000 C 
BRANCH  17  18
ATOM     18  C   UNL     1       5.134   4.527  19.502  0.00  0.00    +0.000 C 
BRANCH  18  19
ATOM     19  C   UNL     1       3.970   4.160  18.633  0.00  0.00    +0.000 A 
ATOM     20  N   UNL     1       3.935   2.943  17.974  0.00  0.00    +0.000 NA
ATOM     21  C   UNL     1       2.825   2.953  17.279  0.00  0.00    +0.000 A 
ATOM     22  N   UNL     1       2.138   4.116  17.455  0.00  0.00    +0.000 N 
ATOM     23  C   UNL     1       2.857   4.926  18.307  0.00  0.00    +0.000 A 
ATOM     24  H   UNL     1       1.253   4.347  17.026  0.00  0.00    +0.000 HD
BRANCH  23  25
ATOM     25  C   UNL     1       2.449   6.283  18.674  0.00  0.00    +0.000 A 
ATOM     26  C   UNL     1       2.233   7.263  17.698  0.00  0.00    +0.000 A 
ATOM     27  C   UNL     1       1.795   8.542  18.047  0.00  0.00    +0.000 A 
ATOM     28  C   UNL     1       1.565   8.867  19.381  0.00  0.00    +0.000 A 
ATOM     29  C   UNL     1       1.804   7.912  20.368  0.00  0.00    +0.000 A 
ATOM     30  C   UNL     1       2.240   6.629  20.014  0.00  0.00    +0.000 A 
BRANCH  28  31
ATOM     31  O   UNL     1       1.155  10.150  19.608  0.00  0.00    +0.000 OA
ATOM     32  C   UNL     1       1.630  11.114  18.678  0.00  0.00    +0.000 C 
ENDBRANCH  28  31
ENDBRANCH  23  25
ENDBRANCH  18  19
ENDBRANCH  17  18
ENDBRANCH   1  17
TORSDOF 11
ENDMDL
MODEL 3
REMARK VINA RESULT:      -7.9      2.785      7.600
REMARK  Name = 
REMARK  13 active torsions:
REMARK  status: ('A' for Active; 'I' for Inactive)
REMARK    1  A    between atoms: C_1  and  C_2
REMARK    2  A    between atoms: C_2  and  C_3
REMARK    3  A    between atoms: C_3  and  C_4
REMARK    4  A    between atoms: C_4  and  C_5
REMARK    5  A    between atoms: C_5  and  C_6
REMARK    6  A    between atoms: C_9  and  S_10
REMARK    7  A    between atoms: S_10  and  N_13
REMARK    8  A    between atoms: N_13  and  C_14
REMARK    9  A    between atoms: C_14  and  C_15
REMARK   10  A    between atoms: C_15  and  C_16
REMARK   11  A    between atoms: C_20  and  C_21
REMARK   12  A    between atoms: C_24  and  O_25
REMARK   13  A    between atoms: O_25  and  C_26
REMARK                            x       y       z     vdW  Elec       q    Type
REMARK                         _______ _______ _______ _____ _____    ______ ____
ROOT
ATOM      1  N   UNL     1       1.885   5.150  18.708  0.00  0.00    +0.000 NA
ATOM      2  H   UNL     1       0.990   5.463  19.109  0.00  0.00    +0.000 HD
ENDROOT
BRANCH   1   3
ATOM      3  S   UNL     1       3.042   6.373  18.736  0.00  0.00    +0.000 S 
ATOM      4  O   UNL     1       3.600   6.469  17.407  0.00  0.00    +0.000 OA
ATOM      5  O   UNL     1       3.867   6.163  19.905  0.00  0.00    +0.000 OA
BRANCH   3   9
ATOM      6  C   UNL     1       0.422  10.033  19.510  0.00  0.00    +0.000 A 
ATOM      7  C   UNL     1       0.780   9.174  20.560  0.00  0.00    +0.000 A 
ATOM      8  C   UNL     1       1.604   8.076  20.327  0.00  0.00    +0.000 A 
ATOM      9  C   UNL     1       2.054   7.821  19.030  0.00  0.00    +0.000 A 
ATOM     10  C   UNL     1       1.682   8.644  17.966  0.00  0.00    +0.000 A 
ATOM     11  C   UNL     1       0.870   9.752  18.211  0.00  0.00    +0.000 A 
BRANCH   6  12
ATOM     12  C   UNL     1      -0.425  11.253  19.784  0.00  0.00    +0.000 C 
BRANCH  12  13
ATOM     13  C   UNL     1      -1.157  11.785  18.546  0.00  0.00    +0.000 C 
BRANCH  13  14
ATOM     14  C   UNL     1      -2.625  11.352  18.473  0.00  0.00    +0.000 C 
BRANCH  14  16
ATOM     15  C   UNL     1      -2.469  10.147  16.262  0.00  0.00    +0.000 C 
ATOM     16  C   UNL     1      -2.752  10.013  17.747  0.00  0.00    +0.000 C 
ENDBRANCH  14  16
ENDBRANCH  13  14
ENDBRANCH  12  13
ENDBRANCH   6  12
ENDBRANCH   3   9
ENDBRANCH   1   3
BRANCH   1  17
ATOM     17  C   UNL     1       1.703   4.451  17.422  0.00  0.00    +0.000 C 
BRANCH  17  18
ATOM     18  C   UNL     1       2.239   3.030  17.495  0.00  0.00    +0.000 C 
BRANCH  18  19
ATOM     19  C   UNL     1       3.338   2.833  18.493  0.00  0.00    +0.000 A 
ATOM     20  N   UNL     1       3.070   2.311  19.747  0.00  0.00    +0.000 NA
ATOM     21  C   UNL     1       4.218   2.310  20.378  0.00  0.00    +0.000 A 
ATOM     22  N   UNL     1       5.217   2.805  19.596  0.00  0.00    +0.000 N 
ATOM     23  C   UNL     1       4.682   3.170  18.380  0.00  0.00    +0.000 A 
ATOM     24  H   UNL     1       6.186   2.894  19.866  0.00  0.00    +0.000 HD
BRANCH  23  25
ATOM     25  C   UNL     1       5.456   3.800  17.308  0.00  0.00    +0.000 A 
ATOM     26  C   UNL     1       6.529   4.650  17.594  0.00  0.00    +0.000 A 
ATOM     27  C   UNL     1       7.298   5.209  16.570  0.00  0.00    +0.000 A 
ATOM     28  C   UNL     1       7.006   4.928  15.239  0.00  0.00    +0.000 A 
ATOM     29  C   UNL     1       5.922   4.105  14.936  0.00  0.00    +0.000 A 
ATOM     30  C   UNL     1       5.156   3.544  15.965  0.00  0.00    +0.000 A 
BRANCH  28  31
ATOM     31  O   UNL     1       7.812   5.541  14.323  0.00  0.00    +0.000 OA
ATOM     32  C   UNL     1       7.661   5.092  12.982  0.00  0.00    +0.000 C 
ENDBRANCH  28  31
ENDBRANCH  23  25
ENDBRANCH  18  19
ENDBRANCH  17  18
ENDBRANCH   1  17
TORSDOF 11
ENDMDL
MODEL 4
REMARK VINA RESULT:      -7.9      1.303      1.581
REMARK  Name = 
REMARK  13 active torsions:
REMARK  status: ('A' for Active; 'I' for Inactive)
REMARK    1  A    between atoms: C_1  and  C_2
REMARK    2  A    between atoms: C_2  and  C_3
REMARK    3  A    between atoms: C_3  and  C_4
REMARK    4  A    between atoms: C_4  and  C_5
REMARK    5  A    between atoms: C_5  and  C_6
REMARK    6  A    between atoms: C_9  and  S_10
REMARK    7  A    between atoms: S_10  and  N_13
REMARK    8  A    between atoms: N_13  and  C_14
REMARK    9  A    between atoms: C_14  and  C_15
REMARK   10  A    between atoms: C_15  and  C_16
REMARK   11  A    between atoms: C_20  and  C_21
REMARK   12  A    between atoms: C_24  and  O_25
REMARK   13  A    between atoms: O_25  and  C_26
REMARK                            x       y       z     vdW  Elec       q    Type
REMARK                         _______ _______ _______ _____ _____    ______ ____
ROOT
ATOM      1  N   UNL     1       5.809   5.540  17.316  0.00  0.00    +0.000 NA
ATOM      2  H   UNL     1       5.217   4.720  17.126  0.00  0.00    +0.000 HD
ENDROOT
BRANCH   1   3
ATOM      3  S   UNL     1       7.305   5.420  16.554  0.00  0.00    +0.000 S 
ATOM      4  O   UNL     1       8.046   4.374  17.218  0.00  0.00    +0.000 OA
ATOM      5  O   UNL     1       7.826   6.762  16.409  0.00  0.00    +0.000 OA
BRANCH   3   9
ATOM      6  C   UNL     1       6.175   3.839  12.421  0.00  0.00    +0.000 A 
ATOM      7  C   UNL     1       5.367   3.571  13.536  0.00  0.00    +0.000 A 
ATOM      8  C   UNL     1       5.697   4.079  14.788  0.00  0.00    +0.000 A 
ATOM      9  C   UNL     1       6.858   4.842  14.934  0.00  0.00    +0.000 A 
ATOM     10  C   UNL     1       7.693   5.093  13.844  0.00  0.00    +0.000 A 
ATOM     11  C   UNL     1       7.346   4.593  12.588  0.00  0.00    +0.000 A 
BRANCH   6  12
ATOM     12  C   UNL     1       5.778   3.330  11.055  0.00  0.00    +0.000 C 
BRANCH  12  13
ATOM     13  C   UNL     1       4.441   2.579  11.043  0.00  0.00    +0.000 C 
BRANCH  13  14
ATOM     14  C   UNL     1       3.233   3.488  10.798  0.00  0.00    +0.000 C 
BRANCH  14  16
ATOM     15  C   UNL     1       2.141   5.013   9.111  0.00  0.00    +0.000 C 
ATOM     16  C   UNL     1       3.195   3.945   9.340  0.00  0.00    +0.000 C 
ENDBRANCH  14  16
ENDBRANCH  13  14
ENDBRANCH  12  13
ENDBRANCH   6  12
ENDBRANCH   3   9
ENDBRANCH   1   3
BRANCH   1  17
ATOM     17  C   UNL     1       5.831   5.889  18.749  0.00  0.00    +0.000 C 
BRANCH  17  18
ATOM     18  C   UNL     1       5.282   4.752  19.595  0.00  0.00    +0.000 C 
BRANCH  18  19
ATOM     19  C   UNL     1       4.000   4.165  19.087  0.00  0.00    +0.000 A 
ATOM     20  N   UNL     1       3.963   2.877  18.582  0.00  0.00    +0.000 NA
ATOM     21  C   UNL     1       2.728   2.690  18.190  0.00  0.00    +0.000 A 
ATOM     22  N   UNL     1       1.961   3.793  18.415  0.00  0.00    +0.000 N 
ATOM     23  C   UNL     1       2.754   4.771  18.975  0.00  0.00    +0.000 A 
ATOM     24  H   UNL     1       0.978   3.880  18.201  0.00  0.00    +0.000 HD
BRANCH  23  25
ATOM     25  C   UNL     1       2.278   6.118  19.296  0.00  0.00    +0.000 A 
ATOM     26  C   UNL     1       1.697   6.403  20.536  0.00  0.00    +0.000 A 
ATOM     27  C   UNL     1       1.290   7.700  20.859  0.00  0.00    +0.000 A 
ATOM     28  C   UNL     1       1.456   8.736  19.945  0.00  0.00    +0.000 A 
ATOM     29  C   UNL     1       2.007   8.464  18.694  0.00  0.00    +0.000 A 
ATOM     30  C   UNL     1       2.417   7.163  18.376  0.00  0.00    +0.000 A 
BRANCH  28  31
ATOM     31  O   UNL     1       1.008   9.958  20.361  0.00  0.00    +0.000 OA
ATOM     32  C   UNL     1      -0.368  10.217  20.116  0.00  0.00    +0.000 C 
ENDBRANCH  28  31
ENDBRANCH  23  25
ENDBRANCH  18  19
ENDBRANCH  17  18
ENDBRANCH   1  17
TORSDOF 11
ENDMDL
MODEL 5
REMARK VINA RESULT:      -7.8      1.354      1.971
REMARK  Name = 
REMARK  13 active torsions:
REMARK  status: ('A' for Active; 'I' for Inactive)
REMARK    1  A    between atoms: C_1  and  C_2
REMARK    2  A    between atoms: C_2  and  C_3
REMARK    3  A    between atoms: C_3  and  C_4
REMARK    4  A    between atoms: C_4  and  C_5
REMARK    5  A    between atoms: C_5  and  C_6
REMARK    6  A    between atoms: C_9  and  S_10
REMARK    7  A    between atoms: S_10  and  N_13
REMARK    8  A    between atoms: N_13  and  C_14
REMARK    9  A    between atoms: C_14  and  C_15
REMARK   10  A    between atoms: C_15  and  C_16
REMARK   11  A    between atoms: C_20  and  C_21
REMARK   12  A    between atoms: C_24  and  O_25
REMARK   13  A    between atoms: O_25  and  C_26
REMARK                            x       y       z     vdW  Elec       q    Type
REMARK                         _______ _______ _______ _____ _____    ______ ____
ROOT
ATOM      1  N   UNL     1       5.032   6.123  18.264  0.00  0.00    +0.000 NA
ATOM      2  H   UNL     1       5.277   7.102  18.465  0.00  0.00    +0.000 HD
ENDROOT
BRANCH   1   3
ATOM      3  S   UNL     1       6.396   5.137  18.211  0.00  0.00    +0.000 S 
ATOM      4  O   UNL     1       6.105   3.955  18.989  0.00  0.00    +0.000 OA
ATOM      5  O   UNL     1       7.545   5.972  18.479  0.00  0.00    +0.000 OA
BRANCH   3   9
ATOM      6  C   UNL     1       6.503   4.026  13.782  0.00  0.00    +0.000 A 
ATOM      7  C   UNL     1       7.222   5.132  14.261  0.00  0.00    +0.000 A 
ATOM      8  C   UNL     1       7.212   5.450  15.615  0.00  0.00    +0.000 A 
ATOM      9  C   UNL     1       6.458   4.672  16.496  0.00  0.00    +0.000 A 
ATOM     10  C   UNL     1       5.709   3.588  16.036  0.00  0.00    +0.000 A 
ATOM     11  C   UNL     1       5.738   3.265  14.678  0.00  0.00    +0.000 A 
BRANCH   6  12
ATOM     12  C   UNL     1       6.566   3.656  12.319  0.00  0.00    +0.000 C 
BRANCH  12  13
ATOM     13  C   UNL     1       5.353   2.852  11.834  0.00  0.00    +0.000 C 
BRANCH  13  14
ATOM     14  C   UNL     1       4.122   3.718  11.553  0.00  0.00    +0.000 C 
BRANCH  14  16
ATOM     15  C   UNL     1       2.833   4.242   9.449  0.00  0.00    +0.000 C 
ATOM     16  C   UNL     1       3.325   3.149  10.379  0.00  0.00    +0.000 C 
ENDBRANCH  14  16
ENDBRANCH  13  14
ENDBRANCH  12  13
ENDBRANCH   6  12
ENDBRANCH   3   9
ENDBRANCH   1   3
BRANCH   1  17
ATOM     17  C   UNL     1       4.096   6.006  17.130  0.00  0.00    +0.000 C 
BRANCH  17  18
ATOM     18  C   UNL     1       2.760   5.439  17.583  0.00  0.00    +0.000 C 
BRANCH  18  19
ATOM     19  C   UNL     1       2.583   5.385  19.069  0.00  0.00    +0.000 A 
ATOM     20  N   UNL     1       2.759   4.198  19.760  0.00  0.00    +0.000 NA
ATOM     21  C   UNL     1       2.493   4.478  21.011  0.00  0.00    +0.000 A 
ATOM     22  N   UNL     1       2.152   5.788  21.166  0.00  0.00    +0.000 N 
ATOM     23  C   UNL     1       2.181   6.398  19.931  0.00  0.00    +0.000 A 
ATOM     24  H   UNL     1       1.912   6.234  22.041  0.00  0.00    +0.000 HD
BRANCH  23  25
ATOM     25  C   UNL     1       1.810   7.797  19.707  0.00  0.00    +0.000 A 
ATOM     26  C   UNL     1       2.037   8.417  18.474  0.00  0.00    +0.000 A 
ATOM     27  C   UNL     1       1.636   9.736  18.246  0.00  0.00    +0.000 A 
ATOM     28  C   UNL     1       0.999  10.459  19.251  0.00  0.00    +0.000 A 
ATOM     29  C   UNL     1       0.791   9.866  20.494  0.00  0.00    +0.000 A 
ATOM     30  C   UNL     1       1.191   8.543  20.717  0.00  0.00    +0.000 A 
BRANCH  28  31
ATOM     31  O   UNL     1       0.666  11.743  18.923  0.00  0.00    +0.000 OA
ATOM     32  C   UNL     1       1.563  12.742  19.388  0.00  0.00    +0.000 C 
ENDBRANCH  28  31
ENDBRANCH  23  25
ENDBRANCH  18  19
ENDBRANCH  17  18
ENDBRANCH   1  17
TORSDOF 11
ENDMDL
MODEL 6
REMARK VINA RESULT:      -7.7      2.830      7.618
REMARK  Name = 
REMARK  13 active torsions:
REMARK  status: ('A' for Active; 'I' for Inactive)
REMARK    1  A    between atoms: C_1  and  C_2
REMARK    2  A    between atoms: C_2  and  C_3
REMARK    3  A    between atoms: C_3  and  C_4
REMARK    4  A    between atoms: C_4  and  C_5
REMARK    5  A    between atoms: C_5  and  C_6
REMARK    6  A    between atoms: C_9  and  S_10
REMARK    7  A    between atoms: S_10  and  N_13
REMARK    8  A    between atoms: N_13  and  C_14
REMARK    9  A    between atoms: C_14  and  C_15
REMARK   10  A    between atoms: C_15  and  C_16
REMARK   11  A    between atoms: C_20  and  C_21
REMARK   12  A    between atoms: C_24  and  O_25
REMARK   13  A    between atoms: O_25  and  C_26
REMARK                            x       y       z     vdW  Elec       q    Type
REMARK                         _______ _______ _______ _____ _____    ______ ____
ROOT
ATOM      1  N   UNL     1       2.264   5.606  17.931  0.00  0.00    +0.000 NA
ATOM      2  H   UNL     1       3.114   5.532  17.357  0.00  0.00    +0.000 HD
ENDROOT
BRANCH   1   3
ATOM      3  S   UNL     1       2.614   6.107  19.501  0.00  0.00    +0.000 S 
ATOM      4  O   UNL     1       4.048   6.239  19.602  0.00  0.00    +0.000 OA
ATOM      5  O   UNL     1       1.850   5.273  20.402  0.00  0.00    +0.000 OA
BRANCH   3   9
ATOM      6  C   UNL     1       0.878  10.330  19.606  0.00  0.00    +0.000 A 
ATOM      7  C   UNL     1       1.474   9.830  18.438  0.00  0.00    +0.000 A 
ATOM      8  C   UNL     1       1.974   8.532  18.399  0.00  0.00    +0.000 A 
ATOM      9  C   UNL     1       1.902   7.735  19.544  0.00  0.00    +0.000 A 
ATOM     10  C   UNL     1       1.343   8.225  20.726  0.00  0.00    +0.000 A 
ATOM     11  C   UNL     1       0.828   9.523  20.751  0.00  0.00    +0.000 A 
BRANCH   6  12
ATOM     12  C   UNL     1       0.287  11.720  19.620  0.00  0.00    +0.000 C 
BRANCH  12  13
ATOM     13  C   UNL     1      -0.488  12.073  18.345  0.00  0.00    +0.000 C 
BRANCH  13  14
ATOM     14  C   UNL     1      -1.900  11.481  18.306  0.00  0.00    +0.000 C 
BRANCH  14  16
ATOM     15  C   UNL     1      -2.900  10.496  16.210  0.00  0.00    +0.000 C 
ATOM     16  C   UNL     1      -1.948  10.273  17.371  0.00  0.00    +0.000 C 
ENDBRANCH  14  16
ENDBRANCH  13  14
ENDBRANCH  12  13
ENDBRANCH   6  12
ENDBRANCH   3   9
ENDBRANCH   1   3
BRANCH   1  17
ATOM     17  C   UNL     1       1.400   4.418  17.802  0.00  0.00    +0.000 C 
BRANCH  17  18
ATOM     18  C   UNL     1       2.223   3.178  17.487  0.00  0.00    +0.000 C 
BRANCH  18  19
ATOM     19  C   UNL     1       3.296   2.877  18.489  0.00  0.00    +0.000 A 
ATOM     20  N   UNL     1       2.980   2.325  19.718  0.00  0.00    +0.000 NA
ATOM     21  C   UNL     1       4.118   2.229  20.361  0.00  0.00    +0.000 A 
ATOM     22  N   UNL     1       5.155   2.693  19.609  0.00  0.00    +0.000 N 
ATOM     23  C   UNL     1       4.658   3.136  18.403  0.00  0.00    +0.000 A 
ATOM     24  H   UNL     1       6.124   2.712  19.894  0.00  0.00    +0.000 HD
BRANCH  23  25
ATOM     25  C   UNL     1       5.483   3.759  17.365  0.00  0.00    +0.000 A 
ATOM     26  C   UNL     1       5.189   3.586  16.008  0.00  0.00    +0.000 A 
ATOM     27  C   UNL     1       5.946   4.222  15.021  0.00  0.00    +0.000 A 
ATOM     28  C   UNL     1       7.013   5.043  15.374  0.00  0.00    +0.000 A 
ATOM     29  C   UNL     1       7.337   5.202  16.721  0.00  0.00    +0.000 A 
ATOM     30  C   UNL     1       6.573   4.566  17.707  0.00  0.00    +0.000 A 
BRANCH  28  31
ATOM     31  O   UNL     1       7.692   5.600  14.328  0.00  0.00    +0.000 OA
ATOM     32  C   UNL     1       7.536   4.938  13.080  0.00  0.00    +0.000 C 
ENDBRANCH  28  31
ENDBRANCH  23  25
ENDBRANCH  18  19
ENDBRANCH  17  18
ENDBRANCH   1  17
TORSDOF 11
ENDMDL
MODEL 7
REMARK VINA RESULT:      -7.6      2.835      8.527
REMARK  Name = 
REMARK  13 active torsions:
REMARK  status: ('A' for Active; 'I' for Inactive)
REMARK    1  A    between atoms: C_1  and  C_2
REMARK    2  A    between atoms: C_2  and  C_3
REMARK    3  A    between atoms: C_3  and  C_4
REMARK    4  A    between atoms: C_4  and  C_5
REMARK    5  A    between atoms: C_5  and  C_6
REMARK    6  A    between atoms: C_9  and  S_10
REMARK    7  A    between atoms: S_10  and  N_13
REMARK    8  A    between atoms: N_13  and  C_14
REMARK    9  A    between atoms: C_14  and  C_15
REMARK   10  A    between atoms: C_15  and  C_16
REMARK   11  A    between atoms: C_20  and  C_21
REMARK   12  A    between atoms: C_24  and  O_25
REMARK   13  A    between atoms: O_25  and  C_26
REMARK                            x       y       z     vdW  Elec       q    Type
REMARK                         _______ _______ _______ _____ _____    ______ ____
ROOT
ATOM      1  N   UNL     1       1.913   5.129  18.807  0.00  0.00    +0.000 NA
ATOM      2  H   UNL     1       1.069   5.389  19.335  0.00  0.00    +0.000 HD
ENDROOT
BRANCH   1   3
ATOM      3  S   UNL     1       3.039   6.381  18.777  0.00  0.00    +0.000 S 
ATOM      4  O   UNL     1       3.448   6.561  17.404  0.00  0.00    +0.000 OA
ATOM      5  O   UNL     1       3.989   6.135  19.839  0.00  0.00    +0.000 OA
BRANCH   3   9
ATOM      6  C   UNL     1       0.431   9.924  20.004  0.00  0.00    +0.000 A 
ATOM      7  C   UNL     1       0.741   8.910  20.924  0.00  0.00    +0.000 A 
ATOM      8  C   UNL     1       1.561   7.848  20.556  0.00  0.00    +0.000 A 
ATOM      9  C   UNL     1       2.056   7.784  19.252  0.00  0.00    +0.000 A 
ATOM     10  C   UNL     1       1.733   8.764  18.312  0.00  0.00    +0.000 A 
ATOM     11  C   UNL     1       0.923   9.836  18.694  0.00  0.00    +0.000 A 
BRANCH   6  12
ATOM     12  C   UNL     1      -0.413  11.102  20.430  0.00  0.00    +0.000 C 
BRANCH  12  13
ATOM     13  C   UNL     1      -0.072  11.631  21.828  0.00  0.00    +0.000 C 
BRANCH  13  14
ATOM     14  C   UNL     1      -1.170  11.368  22.864  0.00  0.00    +0.000 C 
BRANCH  14  16
ATOM     15  C   UNL     1      -3.431  12.482  22.955  0.00  0.00    +0.000 C 
ATOM     16  C   UNL     1      -1.938  12.654  23.168  0.00  0.00    +0.000 C 
ENDBRANCH  14  16
ENDBRANCH  13  14
ENDBRANCH  12  13
ENDBRANCH   6  12
ENDBRANCH   3   9
ENDBRANCH   1   3
BRANCH   1  17
ATOM     17  C   UNL     1       1.588   4.510  17.508  0.00  0.00    +0.000 C 
BRANCH  17  18
ATOM     18  C   UNL     1       2.268   3.158  17.365  0.00  0.00    +0.000 C 
BRANCH  18  19
ATOM     19  C   UNL     1       3.326   2.885  18.390  0.00  0.00    +0.000 A 
ATOM     20  N   UNL     1       2.996   2.346  19.621  0.00  0.00    +0.000 NA
ATOM     21  C   UNL     1       4.122   2.275  20.286  0.00  0.00    +0.000 A 
ATOM     22  N   UNL     1       5.167   2.742  19.547  0.00  0.00    +0.000 N 
ATOM     23  C   UNL     1       4.687   3.162  18.325  0.00  0.00    +0.000 A 
ATOM     24  H   UNL     1       6.130   2.779  19.848  0.00  0.00    +0.000 HD
BRANCH  23  25
ATOM     25  C   UNL     1       5.522   3.780  17.294  0.00  0.00    +0.000 A 
ATOM     26  C   UNL     1       5.408   3.406  15.951  0.00  0.00    +0.000 A 
ATOM     27  C   UNL     1       6.169   4.034  14.961  0.00  0.00    +0.000 A 
ATOM     28  C   UNL     1       7.061   5.048  15.299  0.00  0.00    +0.000 A 
ATOM     29  C   UNL     1       7.207   5.413  16.636  0.00  0.00    +0.000 A 
ATOM     30  C   UNL     1       6.439   4.784  17.624  0.00  0.00    +0.000 A 
BRANCH  28  31
ATOM     31  O   UNL     1       7.763   5.579  14.255  0.00  0.00    +0.000 OA
ATOM     32  C   UNL     1       7.485   5.010  12.982  0.00  0.00    +0.000 C 
ENDBRANCH  28  31
ENDBRANCH  23  25
ENDBRANCH  18  19
ENDBRANCH  17  18
ENDBRANCH   1  17
TORSDOF 11
ENDMDL
MODEL 8
REMARK VINA RESULT:      -7.5      3.885      5.896
REMARK  Name = 
REMARK  13 active torsions:
REMARK  status: ('A' for Active; 'I' for Inactive)
REMARK    1  A    between atoms: C_1  and  C_2
REMARK    2  A    between atoms: C_2  and  C_3
REMARK    3  A    between atoms: C_3  and  C_4
REMARK    4  A    between atoms: C_4  and  C_5
REMARK    5  A    between atoms: C_5  and  C_6
REMARK    6  A    between atoms: C_9  and  S_10
REMARK    7  A    between atoms: S_10  and  N_13
REMARK    8  A    between atoms: N_13  and  C_14
REMARK    9  A    between atoms: C_14  and  C_15
REMARK   10  A    between atoms: C_15  and  C_16
REMARK   11  A    between atoms: C_20  and  C_21
REMARK   12  A    between atoms: C_24  and  O_25
REMARK   13  A    between atoms: O_25  and  C_26
REMARK                            x       y       z     vdW  Elec       q    Type
REMARK                         _______ _______ _______ _____ _____    ______ ____
ROOT
ATOM      1  N   UNL     1       0.865   4.483  20.191  0.00  0.00    +0.000 NA
ATOM      2  H   UNL     1      -0.057   4.459  20.646  0.00  0.00    +0.000 HD
ENDROOT
BRANCH   1   3
ATOM      3  S   UNL     1       1.372   2.946  19.727  0.00  0.00    +0.000 S 
ATOM      4  O   UNL     1       0.335   2.382  18.896  0.00  0.00    +0.000 OA
ATOM      5  O   UNL     1       1.862   2.276  20.911  0.00  0.00    +0.000 OA
BRANCH   3   9
ATOM      6  C   UNL     1       4.989   3.962  17.129  0.00  0.00    +0.000 A 
ATOM      7  C   UNL     1       5.148   3.652  18.489  0.00  0.00    +0.000 A 
ATOM      8  C   UNL     1       4.048   3.313  19.271  0.00  0.00    +0.000 A 
ATOM      9  C   UNL     1       2.775   3.307  18.697  0.00  0.00    +0.000 A 
ATOM     10  C   UNL     1       2.591   3.645  17.355  0.00  0.00    +0.000 A 
ATOM     11  C   UNL     1       3.701   3.968  16.573  0.00  0.00    +0.000 A 
BRANCH   6  12
ATOM     12  C   UNL     1       6.196   4.273  16.276  0.00  0.00    +0.000 C 
BRANCH  12  13
ATOM     13  C   UNL     1       7.296   5.039  17.021  0.00  0.00    +0.000 C 
BRANCH  13  14
ATOM     14  C   UNL     1       6.987   6.528  17.201  0.00  0.00    +0.000 C 
BRANCH  14  16
ATOM     15  C   UNL     1       8.194   8.614  17.947  0.00  0.00    +0.000 C 
ATOM     16  C   UNL     1       7.927   7.148  18.235  0.00  0.00    +0.000 C 
ENDBRANCH  14  16
ENDBRANCH  13  14
ENDBRANCH  12  13
ENDBRANCH   6  12
ENDBRANCH   3   9
ENDBRANCH   1   3
BRANCH   1  17
ATOM     17  C   UNL     1       1.838   5.291  20.950  0.00  0.00    +0.000 C 
BRANCH  17  18
ATOM     18  C   UNL     1       1.539   6.776  20.812  0.00  0.00    +0.000 C 
BRANCH  18  19
ATOM     19  C   UNL     1       2.017   7.387  19.530  0.00  0.00    +0.000 A 
ATOM     20  N   UNL     1       3.045   6.803  18.809  0.00  0.00    +0.000 NA
ATOM     21  C   UNL     1       3.246   7.594  17.784  0.00  0.00    +0.000 A 
ATOM     22  N   UNL     1       2.400   8.662  17.806  0.00  0.00    +0.000 N 
ATOM     23  C   UNL     1       1.607   8.570  18.928  0.00  0.00    +0.000 A 
ATOM     24  H   UNL     1       2.367   9.399  17.116  0.00  0.00    +0.000 HD
BRANCH  23  25
ATOM     25  C   UNL     1       0.619   9.582  19.309  0.00  0.00    +0.000 A 
ATOM     26  C   UNL     1       0.303   9.815  20.652  0.00  0.00    +0.000 A 
ATOM     27  C   UNL     1      -0.602  10.816  21.015  0.00  0.00    +0.000 A 
ATOM     28  C   UNL     1      -1.209  11.601  20.040  0.00  0.00    +0.000 A 
ATOM     29  C   UNL     1      -0.928  11.362  18.696  0.00  0.00    +0.000 A 
ATOM     30  C   UNL     1      -0.017  10.361  18.336  0.00  0.00    +0.000 A 
BRANCH  28  31
ATOM     31  O   UNL     1      -2.088  12.537  20.508  0.00  0.00    +0.000 OA
ATOM     32  C   UNL     1      -2.140  12.669  21.922  0.00  0.00    +0.000 C 
ENDBRANCH  28  31
ENDBRANCH  23  25
ENDBRANCH  18  19
ENDBRANCH  17  18
ENDBRANCH   1  17
TORSDOF 11
ENDMDL
MODEL 9
REMARK VINA RESULT:      -7.5      0.724      1.451
REMARK  Name = 
REMARK  13 active torsions:
REMARK  status: ('A' for Active; 'I' for Inactive)
REMARK    1  A    between atoms: C_1  and  C_2
REMARK    2  A    between atoms: C_2  and  C_3
REMARK    3  A    between atoms: C_3  and  C_4
REMARK    4  A    between atoms: C_4  and  C_5
REMARK    5  A    between atoms: C_5  and  C_6
REMARK    6  A    between atoms: C_9  and  S_10
REMARK    7  A    between atoms: S_10  and  N_13
REMARK    8  A    between atoms: N_13  and  C_14
REMARK    9  A    between atoms: C_14  and  C_15
REMARK   10  A    between atoms: C_15  and  C_16
REMARK   11  A    between atoms: C_20  and  C_21
REMARK   12  A    between atoms: C_24  and  O_25
REMARK   13  A    between atoms: O_25  and  C_26
REMARK                            x       y       z     vdW  Elec       q    Type
REMARK                         _______ _______ _______ _____ _____    ______ ____
ROOT
ATOM      1  N   UNL     1       5.282   5.734  17.597  0.00  0.00    +0.000 NA
ATOM      2  H   UNL     1       4.577   5.883  16.863  0.00  0.00    +0.000 HD
ENDROOT
BRANCH   1   3
ATOM      3  S   UNL     1       6.848   5.917  17.005  0.00  0.00    +0.000 S 
ATOM      4  O   UNL     1       7.726   5.156  17.863  0.00  0.00    +0.000 OA
ATOM      5  O   UNL     1       7.052   7.326  16.749  0.00  0.00    +0.000 OA
BRANCH   3   9
ATOM      6  C   UNL     1       6.578   3.888  12.923  0.00  0.00    +0.000 A 
ATOM      7  C   UNL     1       7.555   4.863  13.174  0.00  0.00    +0.000 A 
ATOM      8  C   UNL     1       7.655   5.458  14.428  0.00  0.00    +0.000 A 
ATOM      9  C   UNL     1       6.756   5.094  15.433  0.00  0.00    +0.000 A 
ATOM     10  C   UNL     1       5.755   4.150  15.193  0.00  0.00    +0.000 A 
ATOM     11  C   UNL     1       5.672   3.546  13.938  0.00  0.00    +0.000 A 
BRANCH   6  12
ATOM     12  C   UNL     1       6.514   3.208  11.575  0.00  0.00    +0.000 C 
BRANCH  12  13
ATOM     13  C   UNL     1       5.200   2.458  11.325  0.00  0.00    +0.000 C 
BRANCH  13  14
ATOM     14  C   UNL     1       3.962   3.357  11.400  0.00  0.00    +0.000 C 
BRANCH  14  16
ATOM     15  C   UNL     1       2.921   4.387   9.346  0.00  0.00    +0.000 C 
ATOM     16  C   UNL     1       3.062   3.130  10.185  0.00  0.00    +0.000 C 
ENDBRANCH  14  16
ENDBRANCH  13  14
ENDBRANCH  12  13
ENDBRANCH   6  12
ENDBRANCH   3   9
ENDBRANCH   1   3
BRANCH   1  17
ATOM     17  C   UNL     1       5.019   4.512  18.380  0.00  0.00    +0.000 C 
BRANCH  17  18
ATOM     18  C   UNL     1       4.657   4.853  19.817  0.00  0.00    +0.000 C 
BRANCH  18  19
ATOM     19  C   UNL     1       3.258   4.486  20.207  0.00  0.00    +0.000 A 
ATOM     20  N   UNL     1       2.939   3.184  20.553  0.00  0.00    +0.000 NA
ATOM     21  C   UNL     1       1.651   3.192  20.794  0.00  0.00    +0.000 A 
ATOM     22  N   UNL     1       1.120   4.434  20.621  0.00  0.00    +0.000 N 
ATOM     23  C   UNL     1       2.124   5.290  20.224  0.00  0.00    +0.000 A 
ATOM     24  H   UNL     1       0.150   4.682  20.757  0.00  0.00    +0.000 HD
BRANCH  23  25
ATOM     25  C   UNL     1       1.906   6.698  19.888  0.00  0.00    +0.000 A 
ATOM     26  C   UNL     1       1.397   7.597  20.831  0.00  0.00    +0.000 A 
ATOM     27  C   UNL     1       1.237   8.950  20.524  0.00  0.00    +0.000 A 
ATOM     28  C   UNL     1       1.583   9.429  19.264  0.00  0.00    +0.000 A 
ATOM     29  C   UNL     1       2.065   8.542  18.303  0.00  0.00    +0.000 A 
ATOM     30  C   UNL     1       2.227   7.187  18.616  0.00  0.00    +0.000 A 
BRANCH  28  31
ATOM     31  O   UNL     1       1.370  10.764  19.068  0.00  0.00    +0.000 OA
ATOM     32  C   UNL     1       0.052  11.119  18.674  0.00  0.00    +0.000 C 
ENDBRANCH  28  31
ENDBRANCH  23  25
ENDBRANCH  18  19
ENDBRANCH  17  18
ENDBRANCH   1  17
TORSDOF 11
ENDMDL
