MODEL 1
REMARK VINA RESULT:      -7.2      0.000      0.000
REMARK  Name = 
REMARK  6 active torsions:
REMARK  status: ('A' for Active; 'I' for Inactive)
REMARK    1  A    between atoms: C_1  and  C_2
REMARK    2  A    between atoms: C_4  and  C_5
REMARK    3  A    between atoms: N_7  and  C_8
REMARK    4  A    between atoms: N_7  and  C_9
REMARK    5  A    between atoms: N_13  and  C_14
REMARK    6  A    between atoms: C_14  and  C_15
REMARK                            x       y       z     vdW  Elec       q    Type
REMARK                         _______ _______ _______ _____ _____    ______ ____
ROOT
ATOM      1  C   UNL     1       2.651   6.295  17.754  0.00  0.00    +0.000 C 
ATOM      2  C   UNL     1       2.085   4.879  17.847  0.00  0.00    +0.000 C 
ATOM      3  C   UNL     1       3.236   3.987  17.492  0.00  0.00    +0.000 C 
ATOM      4  O   UNL     1       3.185   2.766  17.557  0.00  0.00    +0.000 OA
ATOM      5  N   UNL     1       4.330   4.740  17.195  0.00  0.00    +0.000 N 
ATOM      6  C   UNL     1       4.151   6.056  17.536  0.00  0.00    +0.000 C 
ATOM      7  O   UNL     1       5.039   6.889  17.642  0.00  0.00    +0.000 OA
ENDROOT
BRANCH   1  10
ATOM      8  C   UNL     1       1.933   8.540  18.467  0.00  0.00    +0.000 C 
ATOM      9  O   UNL     1       2.139   8.942  17.320  0.00  0.00    +0.000 OA
ATOM     10  N   UNL     1       2.269   7.225  18.838  0.00  0.00    +0.000 N 
ATOM     11  C   UNL     1       2.277   6.757  20.221  0.00  0.00    +0.000 C 
BRANCH   8  15
ATOM     12  C   UNL     1      -0.510   9.874  22.620  0.00  0.00    +0.000 C 
ATOM     13  C   UNL     1       0.157   9.991  21.296  0.00  0.00    +0.000 A 
ATOM     14  N   UNL     1       0.725   8.993  20.653  0.00  0.00    +0.000 NA
ATOM     15  C   UNL     1       1.276   9.432  19.447  0.00  0.00    +0.000 A 
ATOM     16  C   UNL     1       1.064  10.781  19.201  0.00  0.00    +0.000 A 
ATOM     17  S   UNL     1       0.223  11.510  20.500  0.00  0.00    +0.000 S 
ENDBRANCH   8  15
ENDBRANCH   1  10
BRANCH   5  18
ATOM     18  C   UNL     1       5.620   4.150  16.892  0.00  0.00    +0.000 C 
BRANCH  18  19
ATOM     19  C   UNL     1       6.000   4.275  15.431  0.00  0.00    +0.000 A 
ATOM     20  C   UNL     1       7.141   4.994  15.051  0.00  0.00    +0.000 A 
ATOM     21  C   UNL     1       7.536   5.046  13.710  0.00  0.00    +0.000 A 
ATOM     22  C   UNL     1       6.799   4.387  12.736  0.00  0.00    +0.000 A 
ATOM     23  C   UNL     1       5.647   3.693  13.083  0.00  0.00    +0.000 A 
ATOM     24  C   UNL     1       5.245   3.639  14.428  0.00  0.00    +0.000 A 
ENDBRANCH  18  19
ENDBRANCH   5  18
TORSDOF 4
ENDMDL
MODEL 2
REMARK VINA RESULT:      -7.0      0.263      1.017
REMARK  Name = 
REMARK  6 active torsions:
REMARK  status: ('A' for Active; 'I' for Inactive)
REMARK    1  A    between atoms: C_1  and  C_2
REMARK    2  A    between atoms: C_4  and  C_5
REMARK    3  A    between atoms: N_7  and  C_8
REMARK    4  A    between atoms: N_7  and  C_9
REMARK    5  A    between atoms: N_13  and  C_14
REMARK    6  A    between atoms: C_14  and  C_15
REMARK                            x       y       z     vdW  Elec       q    Type
REMARK                         _______ _______ _______ _____ _____    ______ ____
ROOT
ATOM      1  C   UNL     1       2.771   6.229  17.743  0.00  0.00    +0.000 C 
ATOM      2  C   UNL     1       2.303   4.778  17.838  0.00  0.00    +0.000 C 
ATOM      3  C   UNL     1       3.519   3.966  17.510  0.00  0.00    +0.000 C 
ATOM      4  O   UNL     1       3.552   2.745  17.584  0.00  0.00    +0.000 OA
ATOM      5  N   UNL     1       4.563   4.791  17.225  0.00  0.00    +0.000 N 
ATOM      6  C   UNL     1       4.287   6.094  17.552  0.00  0.00    +0.000 C 
ATOM      7  O   UNL     1       5.114   6.987  17.666  0.00  0.00    +0.000 OA
ENDROOT
BRANCH   1  10
ATOM      8  C   UNL     1       1.954   8.447  18.435  0.00  0.00    +0.000 C 
ATOM      9  O   UNL     1       2.209   8.865  17.303  0.00  0.00    +0.000 OA
ATOM     10  N   UNL     1       2.307   7.139  18.813  0.00  0.00    +0.000 N 
ATOM     11  C   UNL     1       2.256   6.658  20.190  0.00  0.00    +0.000 C 
BRANCH   8  15
ATOM     12  C   UNL     1      -0.127   9.880  22.749  0.00  0.00    +0.000 C 
ATOM     13  C   UNL     1       0.276   9.908  21.318  0.00  0.00    +0.000 A 
ATOM     14  N   UNL     1       1.004   8.985  20.727  0.00  0.00    +0.000 NA
ATOM     15  C   UNL     1       1.221   9.311  19.386  0.00  0.00    +0.000 A 
ATOM     16  C   UNL     1       0.599  10.488  18.995  0.00  0.00    +0.000 A 
ATOM     17  S   UNL     1      -0.213  11.212  20.316  0.00  0.00    +0.000 S 
ENDBRANCH   8  15
ENDBRANCH   1  10
BRANCH   5  18
ATOM     18  C   UNL     1       5.896   4.290  16.948  0.00  0.00    +0.000 C 
BRANCH  18  19
ATOM     19  C   UNL     1       6.236   4.295  15.472  0.00  0.00    +0.000 A 
ATOM     20  C   UNL     1       5.435   3.602  14.554  0.00  0.00    +0.000 A 
ATOM     21  C   UNL     1       5.703   3.668  13.183  0.00  0.00    +0.000 A 
ATOM     22  C   UNL     1       6.771   4.421  12.713  0.00  0.00    +0.000 A 
ATOM     23  C   UNL     1       7.598   5.092  13.605  0.00  0.00    +0.000 A 
ATOM     24  C   UNL     1       7.334   5.027  14.982  0.00  0.00    +0.000 A 
ENDBRANCH  18  19
ENDBRANCH   5  18
TORSDOF 4
ENDMDL
MODEL 3
REMARK VINA RESULT:      -6.9      1.566      1.999
REMARK  Name = 
REMARK  6 active torsions:
REMARK  status: ('A' for Active; 'I' for Inactive)
REMARK    1  A    between atoms: C_1  and  C_2
REMARK    2  A    between atoms: C_4  and  C_5
REMARK    3  A    between atoms: N_7  and  C_8
REMARK    4  A    between atoms: N_7  and  C_9
REMARK    5  A    between atoms: N_13  and  C_14
REMARK    6  A    between atoms: C_14  and  C_15
REMARK                            x       y       z     vdW  Elec       q    Type
REMARK                         _______ _______ _______ _____ _____    ______ ____
ROOT
ATOM      1  C   UNL     1       2.309   6.601  18.670  0.00  0.00    +0.000 C 
ATOM      2  C   UNL     1       1.987   5.379  19.530  0.00  0.00    +0.000 C 
ATOM      3  C   UNL     1       3.222   4.532  19.461  0.00  0.00    +0.000 C 
ATOM      4  O   UNL     1       3.372   3.509  20.114  0.00  0.00    +0.000 OA
ATOM      5  N   UNL     1       4.146   5.126  18.658  0.00  0.00    +0.000 N 
ATOM      6  C   UNL     1       3.797   6.415  18.345  0.00  0.00    +0.000 C 
ATOM      7  O   UNL     1       4.549   7.262  17.885  0.00  0.00    +0.000 OA
ENDROOT
BRANCH   1  10
ATOM      8  C   UNL     1       1.698   8.957  18.297  0.00  0.00    +0.000 C 
ATOM      9  O   UNL     1       2.037   8.831  17.118  0.00  0.00    +0.000 OA
ATOM     10  N   UNL     1       1.900   7.913  19.218  0.00  0.00    +0.000 N 
ATOM     11  C   UNL     1       1.746   8.071  20.661  0.00  0.00    +0.000 C 
BRANCH   8  15
ATOM     12  C   UNL     1      -2.057  11.957  19.676  0.00  0.00    +0.000 C 
ATOM     13  C   UNL     1      -0.682  11.518  19.317  0.00  0.00    +0.000 A 
ATOM     14  N   UNL     1      -0.347  10.285  19.004  0.00  0.00    +0.000 NA
ATOM     15  C   UNL     1       1.021  10.197  18.734  0.00  0.00    +0.000 A 
ATOM     16  C   UNL     1       1.680  11.415  18.821  0.00  0.00    +0.000 A 
ATOM     17  S   UNL     1       0.602  12.657  19.290  0.00  0.00    +0.000 S 
ENDBRANCH   8  15
ENDBRANCH   1  10
BRANCH   5  18
ATOM     18  C   UNL     1       5.475   4.577  18.464  0.00  0.00    +0.000 C 
BRANCH  18  19
ATOM     19  C   UNL     1       5.876   4.497  17.006  0.00  0.00    +0.000 A 
ATOM     20  C   UNL     1       4.988   3.985  16.049  0.00  0.00    +0.000 A 
ATOM     21  C   UNL     1       5.328   3.981  14.693  0.00  0.00    +0.000 A 
ATOM     22  C   UNL     1       6.554   4.482  14.276  0.00  0.00    +0.000 A 
ATOM     23  C   UNL     1       7.463   4.967  15.207  0.00  0.00    +0.000 A 
ATOM     24  C   UNL     1       7.128   4.971  16.570  0.00  0.00    +0.000 A 
ENDBRANCH  18  19
ENDBRANCH   5  18
TORSDOF 4
ENDMDL
MODEL 4
REMARK VINA RESULT:      -6.8      1.259      1.443
REMARK  Name = 
REMARK  6 active torsions:
REMARK  status: ('A' for Active; 'I' for Inactive)
REMARK    1  A    between atoms: C_1  and  C_2
REMARK    2  A    between atoms: C_4  and  C_5
REMARK    3  A    between atoms: N_7  and  C_8
REMARK    4  A    between atoms: N_7  and  C_9
REMARK    5  A    between atoms: N_13  and  C_14
REMARK    6  A    between atoms: C_14  and  C_15
REMARK                            x       y       z     vdW  Elec       q    Type
REMARK                         _______ _______ _______ _____ _____    ______ ____
ROOT
ATOM      1  C   UNL     1       2.381   6.653  18.259  0.00  0.00    +0.000 C 
ATOM      2  C   UNL     1       1.996   5.280  18.808  0.00  0.00    +0.000 C 
ATOM      3  C   UNL     1       3.226   4.442  18.627  0.00  0.00    +0.000 C 
ATOM      4  O   UNL     1       3.327   3.298  19.047  0.00  0.00    +0.000 OA
ATOM      5  N   UNL     1       4.203   5.177  18.030  0.00  0.00    +0.000 N 
ATOM      6  C   UNL     1       3.884   6.511  17.988  0.00  0.00    +0.000 C 
ATOM      7  O   UNL     1       4.670   7.422  17.770  0.00  0.00    +0.000 OA
ENDROOT
BRANCH   1  10
ATOM      8  C   UNL     1       1.655   9.004  18.354  0.00  0.00    +0.000 C 
ATOM      9  O   UNL     1       1.936   9.112  17.158  0.00  0.00    +0.000 OA
ATOM     10  N   UNL     1       1.949   7.821  19.056  0.00  0.00    +0.000 N 
ATOM     11  C   UNL     1       1.867   7.707  20.509  0.00  0.00    +0.000 C 
BRANCH   8  15
ATOM     12  C   UNL     1       1.087  13.268  20.901  0.00  0.00    +0.000 C 
ATOM     13  C   UNL     1       0.735  12.001  20.206  0.00  0.00    +0.000 A 
ATOM     14  N   UNL     1       1.601  11.207  19.614  0.00  0.00    +0.000 NA
ATOM     15  C   UNL     1       0.954  10.110  19.042  0.00  0.00    +0.000 A 
ATOM     16  C   UNL     1      -0.416  10.099  19.263  0.00  0.00    +0.000 A 
ATOM     17  S   UNL     1      -0.900  11.486  20.140  0.00  0.00    +0.000 S 
ENDBRANCH   8  15
ENDBRANCH   1  10
BRANCH   5  18
ATOM     18  C   UNL     1       5.536   4.656  17.798  0.00  0.00    +0.000 C 
BRANCH  18  19
ATOM     19  C   UNL     1       5.914   4.625  16.331  0.00  0.00    +0.000 A 
ATOM     20  C   UNL     1       7.140   5.149  15.900  0.00  0.00    +0.000 A 
ATOM     21  C   UNL     1       7.523   5.052  14.559  0.00  0.00    +0.000 A 
ATOM     22  C   UNL     1       6.690   4.437  13.634  0.00  0.00    +0.000 A 
ATOM     23  C   UNL     1       5.457   3.936  14.031  0.00  0.00    +0.000 A 
ATOM     24  C   UNL     1       5.066   4.033  15.376  0.00  0.00    +0.000 A 
ENDBRANCH  18  19
ENDBRANCH   5  18
TORSDOF 4
ENDMDL
MODEL 5
REMARK VINA RESULT:      -6.8      1.285      1.865
REMARK  Name = 
REMARK  6 active torsions:
REMARK  status: ('A' for Active; 'I' for Inactive)
REMARK    1  A    between atoms: C_1  and  C_2
REMARK    2  A    between atoms: C_4  and  C_5
REMARK    3  A    between atoms: N_7  and  C_8
REMARK    4  A    between atoms: N_7  and  C_9
REMARK    5  A    between atoms: N_13  and  C_14
REMARK    6  A    between atoms: C_14  and  C_15
REMARK                            x       y       z     vdW  Elec       q    Type
REMARK                         _______ _______ _______ _____ _____    ______ ____
ROOT
ATOM      1  C   UNL     1       2.366   6.612  18.340  0.00  0.00    +0.000 C 
ATOM      2  C   UNL     1       1.901   5.262  18.884  0.00  0.00    +0.000 C 
ATOM      3  C   UNL     1       3.100   4.372  18.760  0.00  0.00    +0.000 C 
ATOM      4  O   UNL     1       3.135   3.228  19.194  0.00  0.00    +0.000 OA
ATOM      5  N   UNL     1       4.130   5.058  18.197  0.00  0.00    +0.000 N 
ATOM      6  C   UNL     1       3.872   6.403  18.132  0.00  0.00    +0.000 C 
ATOM      7  O   UNL     1       4.703   7.278  17.938  0.00  0.00    +0.000 OA
ENDROOT
BRANCH   1  10
ATOM      8  C   UNL     1       1.700   8.983  18.380  0.00  0.00    +0.000 C 
ATOM      9  O   UNL     1       2.000   9.061  17.187  0.00  0.00    +0.000 OA
ATOM     10  N   UNL     1       1.953   7.806  19.109  0.00  0.00    +0.000 N 
ATOM     11  C   UNL     1       1.846   7.721  20.562  0.00  0.00    +0.000 C 
BRANCH   8  15
ATOM     12  C   UNL     1       1.126  13.537  20.361  0.00  0.00    +0.000 C 
ATOM     13  C   UNL     1       0.802  12.148  19.942  0.00  0.00    +0.000 A 
ATOM     14  N   UNL     1       1.626  11.348  19.299  0.00  0.00    +0.000 NA
ATOM     15  C   UNL     1       1.017  10.118  19.038  0.00  0.00    +0.000 A 
ATOM     16  C   UNL     1      -0.272  10.021  19.542  0.00  0.00    +0.000 A 
ATOM     17  S   UNL     1      -0.741  11.484  20.295  0.00  0.00    +0.000 S 
ENDBRANCH   8  15
ENDBRANCH   1  10
BRANCH   5  18
ATOM     18  C   UNL     1       5.449   4.479  18.024  0.00  0.00    +0.000 C 
BRANCH  18  19
ATOM     19  C   UNL     1       5.897   4.446  16.578  0.00  0.00    +0.000 A 
ATOM     20  C   UNL     1       5.041   3.964  15.578  0.00  0.00    +0.000 A 
ATOM     21  C   UNL     1       5.424   4.004  14.233  0.00  0.00    +0.000 A 
ATOM     22  C   UNL     1       6.661   4.519  13.872  0.00  0.00    +0.000 A 
ATOM     23  C   UNL     1       7.540   4.975  14.847  0.00  0.00    +0.000 A 
ATOM     24  C   UNL     1       7.161   4.934  16.198  0.00  0.00    +0.000 A 
ENDBRANCH  18  19
ENDBRANCH   5  18
TORSDOF 4
ENDMDL
MODEL 6
REMARK VINA RESULT:      -6.8      1.395      1.511
REMARK  Name = 
REMARK  6 active torsions:
REMARK  status: ('A' for Active; 'I' for Inactive)
REMARK    1  A    between atoms: C_1  and  C_2
REMARK    2  A    between atoms: C_4  and  C_5
REMARK    3  A    between atoms: N_7  and  C_8
REMARK    4  A    between atoms: N_7  and  C_9
REMARK    5  A    between atoms: N_13  and  C_14
REMARK    6  A    between atoms: C_14  and  C_15
REMARK                            x       y       z     vdW  Elec       q    Type
REMARK                         _______ _______ _______ _____ _____    ______ ____
ROOT
ATOM      1  C   UNL     1       2.299   6.729  18.355  0.00  0.00    +0.000 C 
ATOM      2  C   UNL     1       1.941   5.400  19.018  0.00  0.00    +0.000 C 
ATOM      3  C   UNL     1       3.176   4.563  18.878  0.00  0.00    +0.000 C 
ATOM      4  O   UNL     1       3.299   3.456  19.385  0.00  0.00    +0.000 OA
ATOM      5  N   UNL     1       4.133   5.258  18.205  0.00  0.00    +0.000 N 
ATOM      6  C   UNL     1       3.798   6.581  18.066  0.00  0.00    +0.000 C 
ATOM      7  O   UNL     1       4.569   7.480  17.761  0.00  0.00    +0.000 OA
ENDROOT
BRANCH   1  10
ATOM      8  C   UNL     1       1.625   9.097  18.285  0.00  0.00    +0.000 C 
ATOM      9  O   UNL     1       1.946   9.126  17.095  0.00  0.00    +0.000 OA
ATOM     10  N   UNL     1       1.869   7.952  19.066  0.00  0.00    +0.000 N 
ATOM     11  C   UNL     1       1.738   7.928  20.520  0.00  0.00    +0.000 C 
BRANCH   8  15
ATOM     12  C   UNL     1      -2.202  11.960  19.752  0.00  0.00    +0.000 C 
ATOM     13  C   UNL     1      -0.802  11.525  19.498  0.00  0.00    +0.000 A 
ATOM     14  N   UNL     1      -0.462  10.366  18.976  0.00  0.00    +0.000 NA
ATOM     15  C   UNL     1       0.928  10.256  18.883  0.00  0.00    +0.000 A 
ATOM     16  C   UNL     1       1.603  11.387  19.319  0.00  0.00    +0.000 A 
ATOM     17  S   UNL     1       0.504  12.565  19.893  0.00  0.00    +0.000 S 
ENDBRANCH   8  15
ENDBRANCH   1  10
BRANCH   5  18
ATOM     18  C   UNL     1       5.467   4.733  17.988  0.00  0.00    +0.000 C 
BRANCH  18  19
ATOM     19  C   UNL     1       5.838   4.642  16.523  0.00  0.00    +0.000 A 
ATOM     20  C   UNL     1       7.071   5.128  16.068  0.00  0.00    +0.000 A 
ATOM     21  C   UNL     1       7.446   4.976  14.730  0.00  0.00    +0.000 A 
ATOM     22  C   UNL     1       6.598   4.343  13.831  0.00  0.00    +0.000 A 
ATOM     23  C   UNL     1       5.357   3.880  14.250  0.00  0.00    +0.000 A 
ATOM     24  C   UNL     1       4.975   4.032  15.593  0.00  0.00    +0.000 A 
ENDBRANCH  18  19
ENDBRANCH   5  18
TORSDOF 4
ENDMDL
MODEL 7
REMARK VINA RESULT:      -6.8      3.955      6.574
REMARK  Name = 
REMARK  6 active torsions:
REMARK  status: ('A' for Active; 'I' for Inactive)
REMARK    1  A    between atoms: C_1  and  C_2
REMARK    2  A    between atoms: C_4  and  C_5
REMARK    3  A    between atoms: N_7  and  C_8
REMARK    4  A    between atoms: N_7  and  C_9
REMARK    5  A    between atoms: N_13  and  C_14
REMARK    6  A    between atoms: C_14  and  C_15
REMARK                            x       y       z     vdW  Elec       q    Type
REMARK                         _______ _______ _______ _____ _____    ______ ____
ROOT
ATOM      1  C   UNL     1       0.503  11.308  20.744  0.00  0.00    +0.000 C 
ATOM      2  C   UNL     1       1.434  12.216  19.942  0.00  0.00    +0.000 C 
ATOM      3  C   UNL     1       1.857  11.383  18.771  0.00  0.00    +0.000 C 
ATOM      4  O   UNL     1       2.534  11.817  17.848  0.00  0.00    +0.000 OA
ATOM      5  N   UNL     1       1.299  10.145  18.857  0.00  0.00    +0.000 N 
ATOM      6  C   UNL     1       0.334  10.087  19.829  0.00  0.00    +0.000 C 
ATOM      7  O   UNL     1      -0.509   9.209  19.942  0.00  0.00    +0.000 OA
ENDROOT
BRANCH   1  10
ATOM      8  C   UNL     1      -1.044  11.707  22.618  0.00  0.00    +0.000 C 
ATOM      9  O   UNL     1      -0.421  10.870  23.276  0.00  0.00    +0.000 OA
ATOM     10  N   UNL     1      -0.733  11.932  21.265  0.00  0.00    +0.000 N 
ATOM     11  C   UNL     1      -1.570  12.723  20.368  0.00  0.00    +0.000 C 
BRANCH   8  15
ATOM     12  C   UNL     1      -5.609  12.995  24.199  0.00  0.00    +0.000 C 
ATOM     13  C   UNL     1      -4.147  13.081  23.939  0.00  0.00    +0.000 A 
ATOM     14  N   UNL     1      -3.434  12.142  23.354  0.00  0.00    +0.000 NA
ATOM     15  C   UNL     1      -2.092  12.520  23.274  0.00  0.00    +0.000 A 
ATOM     16  C   UNL     1      -1.841  13.785  23.784  0.00  0.00    +0.000 A 
ATOM     17  S   UNL     1      -3.273  14.480  24.412  0.00  0.00    +0.000 S 
ENDBRANCH   8  15
ENDBRANCH   1  10
BRANCH   5  18
ATOM     18  C   UNL     1       1.465   9.144  17.820  0.00  0.00    +0.000 C 
BRANCH  18  19
ATOM     19  C   UNL     1       2.398   8.021  18.224  0.00  0.00    +0.000 A 
ATOM     20  C   UNL     1       2.142   7.260  19.372  0.00  0.00    +0.000 A 
ATOM     21  C   UNL     1       2.959   6.175  19.704  0.00  0.00    +0.000 A 
ATOM     22  C   UNL     1       4.039   5.839  18.900  0.00  0.00    +0.000 A 
ATOM     23  C   UNL     1       4.332   6.597  17.773  0.00  0.00    +0.000 A 
ATOM     24  C   UNL     1       3.516   7.688  17.437  0.00  0.00    +0.000 A 
ENDBRANCH  18  19
ENDBRANCH   5  18
TORSDOF 4
ENDMDL
MODEL 8
REMARK VINA RESULT:      -6.7      4.025      6.752
REMARK  Name = 
REMARK  6 active torsions:
REMARK  status: ('A' for Active; 'I' for Inactive)
REMARK    1  A    between atoms: C_1  and  C_2
REMARK    2  A    between atoms: C_4  and  C_5
REMARK    3  A    between atoms: N_7  and  C_8
REMARK    4  A    between atoms: N_7  and  C_9
REMARK    5  A    between atoms: N_13  and  C_14
REMARK    6  A    between atoms: C_14  and  C_15
REMARK                            x       y       z     vdW  Elec       q    Type
REMARK                         _______ _______ _______ _____ _____    ______ ____
ROOT
ATOM      1  C   UNL     1       0.586  11.547  20.751  0.00  0.00    +0.000 C 
ATOM      2  C   UNL     1       1.589  12.357  19.931  0.00  0.00    +0.000 C 
ATOM      3  C   UNL     1       1.928  11.473  18.769  0.00  0.00    +0.000 C 
ATOM      4  O   UNL     1       2.634  11.831  17.836  0.00  0.00    +0.000 OA
ATOM      5  N   UNL     1       1.261  10.292  18.876  0.00  0.00    +0.000 N 
ATOM      6  C   UNL     1       0.302  10.334  19.855  0.00  0.00    +0.000 C 
ATOM      7  O   UNL     1      -0.616   9.537  19.985  0.00  0.00    +0.000 OA
ENDROOT
BRANCH   1  10
ATOM      8  C   UNL     1      -0.962  12.037  22.602  0.00  0.00    +0.000 C 
ATOM      9  O   UNL     1      -0.462  11.103  23.233  0.00  0.00    +0.000 OA
ATOM     10  N   UNL     1      -0.584  12.288  21.271  0.00  0.00    +0.000 N 
ATOM     11  C   UNL     1      -1.295  13.212  20.393  0.00  0.00    +0.000 C 
BRANCH   8  15
ATOM     12  C   UNL     1      -2.598  15.957  25.240  0.00  0.00    +0.000 C 
ATOM     13  C   UNL     1      -2.624  14.680  24.477  0.00  0.00    +0.000 A 
ATOM     14  N   UNL     1      -1.570  14.114  23.928  0.00  0.00    +0.000 NA
ATOM     15  C   UNL     1      -1.929  12.936  23.270  0.00  0.00    +0.000 A 
ATOM     16  C   UNL     1      -3.277  12.629  23.382  0.00  0.00    +0.000 A 
ATOM     17  S   UNL     1      -4.104  13.839  24.263  0.00  0.00    +0.000 S 
ENDBRANCH   8  15
ENDBRANCH   1  10
BRANCH   5  18
ATOM     18  C   UNL     1       1.328   9.266  17.853  0.00  0.00    +0.000 C 
BRANCH  18  19
ATOM     19  C   UNL     1       2.256   8.125  18.217  0.00  0.00    +0.000 A 
ATOM     20  C   UNL     1       2.051   7.386  19.390  0.00  0.00    +0.000 A 
ATOM     21  C   UNL     1       2.859   6.286  19.688  0.00  0.00    +0.000 A 
ATOM     22  C   UNL     1       3.881   5.912  18.826  0.00  0.00    +0.000 A 
ATOM     23  C   UNL     1       4.125   6.646  17.672  0.00  0.00    +0.000 A 
ATOM     24  C   UNL     1       3.317   7.754  17.369  0.00  0.00    +0.000 A 
ENDBRANCH  18  19
ENDBRANCH   5  18
TORSDOF 4
ENDMDL
MODEL 9
REMARK VINA RESULT:      -6.6      0.991      1.158
REMARK  Name = 
REMARK  6 active torsions:
REMARK  status: ('A' for Active; 'I' for Inactive)
REMARK    1  A    between atoms: C_1  and  C_2
REMARK    2  A    between atoms: C_4  and  C_5
REMARK    3  A    between atoms: N_7  and  C_8
REMARK    4  A    between atoms: N_7  and  C_9
REMARK    5  A    between atoms: N_13  and  C_14
REMARK    6  A    between atoms: C_14  and  C_15
REMARK                            x       y       z     vdW  Elec       q    Type
REMARK                         _______ _______ _______ _____ _____    ______ ____
ROOT
ATOM      1  C   UNL     1       2.546   5.921  18.004  0.00  0.00    +0.000 C 
ATOM      2  C   UNL     1       1.879   4.562  17.794  0.00  0.00    +0.000 C 
ATOM      3  C   UNL     1       2.992   3.658  17.358  0.00  0.00    +0.000 C 
ATOM      4  O   UNL     1       2.853   2.454  17.192  0.00  0.00    +0.000 OA
ATOM      5  N   UNL     1       4.155   4.360  17.281  0.00  0.00    +0.000 N 
ATOM      6  C   UNL     1       4.039   5.603  17.848  0.00  0.00    +0.000 C 
ATOM      7  O   UNL     1       4.971   6.328  18.167  0.00  0.00    +0.000 OA
ENDROOT
BRANCH   1  10
ATOM      8  C   UNL     1       1.954   8.056  19.079  0.00  0.00    +0.000 C 
ATOM      9  O   UNL     1       2.302   8.640  18.050  0.00  0.00    +0.000 OA
ATOM     10  N   UNL     1       2.142   6.669  19.215  0.00  0.00    +0.000 N 
ATOM     11  C   UNL     1       1.978   5.955  20.477  0.00  0.00    +0.000 C 
BRANCH   8  15
ATOM     12  C   UNL     1      -0.627  11.751  21.244  0.00  0.00    +0.000 C 
ATOM     13  C   UNL     1       0.154  10.493  21.100  0.00  0.00    +0.000 A 
ATOM     14  N   UNL     1       0.602  10.017  19.957  0.00  0.00    +0.000 NA
ATOM     15  C   UNL     1       1.283   8.813  20.157  0.00  0.00    +0.000 A 
ATOM     16  C   UNL     1       1.357   8.435  21.490  0.00  0.00    +0.000 A 
ATOM     17  S   UNL     1       0.531   9.554  22.485  0.00  0.00    +0.000 S 
ENDBRANCH   8  15
ENDBRANCH   1  10
BRANCH   5  18
ATOM     18  C   UNL     1       5.422   3.731  16.961  0.00  0.00    +0.000 C 
BRANCH  18  19
ATOM     19  C   UNL     1       5.918   4.070  15.571  0.00  0.00    +0.000 A 
ATOM     20  C   UNL     1       6.994   4.950  15.393  0.00  0.00    +0.000 A 
ATOM     21  C   UNL     1       7.502   5.205  14.116  0.00  0.00    +0.000 A 
ATOM     22  C   UNL     1       6.944   4.589  13.004  0.00  0.00    +0.000 A 
ATOM     23  C   UNL     1       5.858   3.735  13.150  0.00  0.00    +0.000 A 
ATOM     24  C   UNL     1       5.343   3.478  14.431  0.00  0.00    +0.000 A 
ENDBRANCH  18  19
ENDBRANCH   5  18
TORSDOF 4
ENDMDL
