MODEL 1
REMARK VINA RESULT:      -7.9      0.000      0.000
REMARK  Name = 
REMARK  6 active torsions:
REMARK  status: ('A' for Active; 'I' for Inactive)
REMARK    1  A    between atoms: C_1  and  C_2
REMARK    2  A    between atoms: C_2  and  O_3
REMARK    3  A    between atoms: O_3  and  C_4
REMARK    4  A    between atoms: C_9  and  C_10
REMARK    5  A    between atoms: C_13  and  C_14
REMARK    6  A    between atoms: C_14  and  O_16
REMARK                            x       y       z     vdW  Elec       q    Type
REMARK                         _______ _______ _______ _____ _____    ______ ____
ROOT
ATOM      1  C   UNL     1       4.544   3.702  17.901  0.00  0.00    +0.000 A 
ATOM      2  N   UNL     1       3.317   4.130  17.931  0.00  0.00    +0.000 NA
ATOM      3  C   UNL     1       2.543   3.805  19.018  0.00  0.00    +0.000 A 
ATOM      4  C   UNL     1       2.947   3.082  20.073  0.00  0.00    +0.000 A 
ATOM      5  C   UNL     1       4.326   2.575  20.015  0.00  0.00    +0.000 A 
ATOM      6  O   UNL     1       4.787   1.901  20.932  0.00  0.00    +0.000 OA
ATOM      7  N   UNL     1       5.045   2.914  18.907  0.00  0.00    +0.000 N 
ATOM      8  H   UNL     1       6.004   2.590  18.855  0.00  0.00    +0.000 HD
ENDROOT
BRANCH   1  14
ATOM      9  C   UNL     1       6.801   4.511  16.934  0.00  0.00    +0.000 A 
ATOM     10  C   UNL     1       7.531   4.886  15.791  0.00  0.00    +0.000 A 
ATOM     11  C   UNL     1       6.959   4.849  14.519  0.00  0.00    +0.000 A 
ATOM     12  C   UNL     1       5.650   4.425  14.362  0.00  0.00    +0.000 A 
ATOM     13  C   UNL     1       4.908   4.039  15.479  0.00  0.00    +0.000 A 
ATOM     14  C   UNL     1       5.464   4.081  16.775  0.00  0.00    +0.000 A 
BRANCH   9  15
ATOM     15  O   UNL     1       7.336   4.558  18.205  0.00  0.00    +0.000 OA
BRANCH  15  17
ATOM     16  C   UNL     1       7.987   6.873  18.456  0.00  0.00    +0.000 C 
ATOM     17  C   UNL     1       7.091   5.756  18.955  0.00  0.00    +0.000 C 
ENDBRANCH  15  17
ENDBRANCH   9  15
ENDBRANCH   1  14
BRANCH   4  18
ATOM     18  C   UNL     1       2.033   2.857  21.207  0.00  0.00    +0.000 C 
ATOM     19  O   UNL     1       2.413   2.581  22.336  0.00  0.00    +0.000 OA
BRANCH  18  20
ATOM     20  O   UNL     1       0.721   2.964  20.902  0.00  0.00    +0.000 OA
ATOM     21  H   UNL     1       0.182   2.163  21.112  0.00  0.00    +0.000 HD
ENDBRANCH  18  20
ENDBRANCH   4  18
TORSDOF 5
ENDMDL
MODEL 2
REMARK VINA RESULT:      -7.7      2.729      6.238
REMARK  Name = 
REMARK  6 active torsions:
REMARK  status: ('A' for Active; 'I' for Inactive)
REMARK    1  A    between atoms: C_1  and  C_2
REMARK    2  A    between atoms: C_2  and  O_3
REMARK    3  A    between atoms: O_3  and  C_4
REMARK    4  A    between atoms: C_9  and  C_10
REMARK    5  A    between atoms: C_13  and  C_14
REMARK    6  A    between atoms: C_14  and  O_16
REMARK                            x       y       z     vdW  Elec       q    Type
REMARK                         _______ _______ _______ _____ _____    ______ ____
ROOT
ATOM      1  C   UNL     1       3.840   4.410  17.459  0.00  0.00    +0.000 A 
ATOM      2  N   UNL     1       4.394   3.363  16.926  0.00  0.00    +0.000 NA
ATOM      3  C   UNL     1       5.329   3.555  15.939  0.00  0.00    +0.000 A 
ATOM      4  C   UNL     1       5.736   4.745  15.473  0.00  0.00    +0.000 A 
ATOM      5  C   UNL     1       5.080   5.924  16.059  0.00  0.00    +0.000 A 
ATOM      6  O   UNL     1       5.383   7.057  15.696  0.00  0.00    +0.000 OA
ATOM      7  N   UNL     1       4.149   5.675  17.024  0.00  0.00    +0.000 N 
ATOM      8  H   UNL     1       3.697   6.474  17.454  0.00  0.00    +0.000 HD
ENDROOT
BRANCH   1  14
ATOM      9  C   UNL     1       2.529   5.301  19.501  0.00  0.00    +0.000 A 
ATOM     10  C   UNL     1       1.633   5.014  20.549  0.00  0.00    +0.000 A 
ATOM     11  C   UNL     1       1.084   3.741  20.706  0.00  0.00    +0.000 A 
ATOM     12  C   UNL     1       1.407   2.733  19.813  0.00  0.00    +0.000 A 
ATOM     13  C   UNL     1       2.285   2.995  18.761  0.00  0.00    +0.000 A 
ATOM     14  C   UNL     1       2.861   4.272  18.591  0.00  0.00    +0.000 A 
BRANCH   9  15
ATOM     15  O   UNL     1       3.102   6.545  19.336  0.00  0.00    +0.000 OA
BRANCH  15  17
ATOM     16  C   UNL     1       2.115   8.303  18.001  0.00  0.00    +0.000 C 
ATOM     17  C   UNL     1       2.211   7.668  19.375  0.00  0.00    +0.000 C 
ENDBRANCH  15  17
ENDBRANCH   9  15
ENDBRANCH   1  14
BRANCH   4  18
ATOM     18  C   UNL     1       6.797   4.815  14.452  0.00  0.00    +0.000 C 
ATOM     19  O   UNL     1       6.764   4.191  13.401  0.00  0.00    +0.000 OA
BRANCH  18  20
ATOM     20  O   UNL     1       7.835   5.619  14.773  0.00  0.00    +0.000 OA
ATOM     21  H   UNL     1       7.685   6.187  15.567  0.00  0.00    +0.000 HD
ENDBRANCH  18  20
ENDBRANCH   4  18
TORSDOF 5
ENDMDL
MODEL 3
REMARK VINA RESULT:      -7.6      2.178      6.012
REMARK  Name = 
REMARK  6 active torsions:
REMARK  status: ('A' for Active; 'I' for Inactive)
REMARK    1  A    between atoms: C_1  and  C_2
REMARK    2  A    between atoms: C_2  and  O_3
REMARK    3  A    between atoms: O_3  and  C_4
REMARK    4  A    between atoms: C_9  and  C_10
REMARK    5  A    between atoms: C_13  and  C_14
REMARK    6  A    between atoms: C_14  and  O_16
REMARK                            x       y       z     vdW  Elec       q    Type
REMARK                         _______ _______ _______ _____ _____    ______ ____
ROOT
ATOM      1  C   UNL     1       4.516   4.037  17.926  0.00  0.00    +0.000 A 
ATOM      2  N   UNL     1       3.971   4.173  16.754  0.00  0.00    +0.000 NA
ATOM      3  C   UNL     1       4.796   4.388  15.677  0.00  0.00    +0.000 A 
ATOM      4  C   UNL     1       6.134   4.464  15.724  0.00  0.00    +0.000 A 
ATOM      5  C   UNL     1       6.739   4.343  17.058  0.00  0.00    +0.000 A 
ATOM      6  O   UNL     1       7.957   4.402  17.204  0.00  0.00    +0.000 OA
ATOM      7  N   UNL     1       5.874   4.145  18.095  0.00  0.00    +0.000 N 
ATOM      8  H   UNL     1       6.272   4.041  19.021  0.00  0.00    +0.000 HD
ENDROOT
BRANCH   1  14
ATOM      9  C   UNL     1       2.539   4.466  19.535  0.00  0.00    +0.000 A 
ATOM     10  C   UNL     1       1.878   4.097  20.722  0.00  0.00    +0.000 A 
ATOM     11  C   UNL     1       2.331   3.034  21.505  0.00  0.00    +0.000 A 
ATOM     12  C   UNL     1       3.445   2.311  21.112  0.00  0.00    +0.000 A 
ATOM     13  C   UNL     1       4.111   2.652  19.934  0.00  0.00    +0.000 A 
ATOM     14  C   UNL     1       3.677   3.730  19.135  0.00  0.00    +0.000 A 
BRANCH   9  15
ATOM     15  O   UNL     1       2.124   5.526  18.754  0.00  0.00    +0.000 OA
BRANCH  15  17
ATOM     16  C   UNL     1       3.058   7.598  17.929  0.00  0.00    +0.000 C 
ATOM     17  C   UNL     1       2.587   6.825  19.146  0.00  0.00    +0.000 C 
ENDBRANCH  15  17
ENDBRANCH   9  15
ENDBRANCH   1  14
BRANCH   4  18
ATOM     18  C   UNL     1       6.907   4.636  14.481  0.00  0.00    +0.000 C 
ATOM     19  O   UNL     1       6.669   4.027  13.448  0.00  0.00    +0.000 OA
BRANCH  18  20
ATOM     20  O   UNL     1       7.927   5.519  14.570  0.00  0.00    +0.000 OA
ATOM     21  H   UNL     1       8.827   5.115  14.517  0.00  0.00    +0.000 HD
ENDBRANCH  18  20
ENDBRANCH   4  18
TORSDOF 5
ENDMDL
MODEL 4
REMARK VINA RESULT:      -7.5      0.677      1.025
REMARK  Name = 
REMARK  6 active torsions:
REMARK  status: ('A' for Active; 'I' for Inactive)
REMARK    1  A    between atoms: C_1  and  C_2
REMARK    2  A    between atoms: C_2  and  O_3
REMARK    3  A    between atoms: O_3  and  C_4
REMARK    4  A    between atoms: C_9  and  C_10
REMARK    5  A    between atoms: C_13  and  C_14
REMARK    6  A    between atoms: C_14  and  O_16
REMARK                            x       y       z     vdW  Elec       q    Type
REMARK                         _______ _______ _______ _____ _____    ______ ____
ROOT
ATOM      1  C   UNL     1       4.573   3.863  17.764  0.00  0.00    +0.000 A 
ATOM      2  N   UNL     1       3.338   4.264  17.811  0.00  0.00    +0.000 NA
ATOM      3  C   UNL     1       2.576   3.893  18.892  0.00  0.00    +0.000 A 
ATOM      4  C   UNL     1       3.001   3.151  19.925  0.00  0.00    +0.000 A 
ATOM      5  C   UNL     1       4.389   2.674  19.848  0.00  0.00    +0.000 A 
ATOM      6  O   UNL     1       4.869   1.986  20.744  0.00  0.00    +0.000 OA
ATOM      7  N   UNL     1       5.096   3.059  18.746  0.00  0.00    +0.000 N 
ATOM      8  H   UNL     1       6.061   2.756  18.681  0.00  0.00    +0.000 HD
ENDROOT
BRANCH   1  14
ATOM      9  C   UNL     1       6.353   5.400  16.692  0.00  0.00    +0.000 A 
ATOM     10  C   UNL     1       7.107   5.717  15.546  0.00  0.00    +0.000 A 
ATOM     11  C   UNL     1       6.999   4.966  14.375  0.00  0.00    +0.000 A 
ATOM     12  C   UNL     1       6.145   3.877  14.329  0.00  0.00    +0.000 A 
ATOM     13  C   UNL     1       5.394   3.537  15.454  0.00  0.00    +0.000 A 
ATOM     14  C   UNL     1       5.479   4.290  16.644  0.00  0.00    +0.000 A 
BRANCH   9  15
ATOM     15  O   UNL     1       6.426   6.139  17.855  0.00  0.00    +0.000 OA
BRANCH  15  17
ATOM     16  C   UNL     1       7.961   8.000  18.022  0.00  0.00    +0.000 C 
ATOM     17  C   UNL     1       7.739   6.522  18.286  0.00  0.00    +0.000 C 
ENDBRANCH  15  17
ENDBRANCH   9  15
ENDBRANCH   1  14
BRANCH   4  18
ATOM     18  C   UNL     1       2.097   2.877  21.058  0.00  0.00    +0.000 C 
ATOM     19  O   UNL     1       0.884   3.021  21.003  0.00  0.00    +0.000 OA
BRANCH  18  20
ATOM     20  O   UNL     1       2.717   2.463  22.185  0.00  0.00    +0.000 OA
ATOM     21  H   UNL     1       2.528   1.527  22.439  0.00  0.00    +0.000 HD
ENDBRANCH  18  20
ENDBRANCH   4  18
TORSDOF 5
ENDMDL
MODEL 5
REMARK VINA RESULT:      -7.5      2.600      5.944
REMARK  Name = 
REMARK  6 active torsions:
REMARK  status: ('A' for Active; 'I' for Inactive)
REMARK    1  A    between atoms: C_1  and  C_2
REMARK    2  A    between atoms: C_2  and  O_3
REMARK    3  A    between atoms: O_3  and  C_4
REMARK    4  A    between atoms: C_9  and  C_10
REMARK    5  A    between atoms: C_13  and  C_14
REMARK    6  A    between atoms: C_14  and  O_16
REMARK                            x       y       z     vdW  Elec       q    Type
REMARK                         _______ _______ _______ _____ _____    ______ ____
ROOT
ATOM      1  C   UNL     1       4.082   5.095  18.655  0.00  0.00    +0.000 A 
ATOM      2  N   UNL     1       4.164   5.889  17.630  0.00  0.00    +0.000 NA
ATOM      3  C   UNL     1       5.359   6.524  17.396  0.00  0.00    +0.000 A 
ATOM      4  C   UNL     1       6.469   6.391  18.135  0.00  0.00    +0.000 A 
ATOM      5  C   UNL     1       6.357   5.517  19.312  0.00  0.00    +0.000 A 
ATOM      6  O   UNL     1       7.319   5.333  20.053  0.00  0.00    +0.000 OA
ATOM      7  N   UNL     1       5.144   4.923  19.507  0.00  0.00    +0.000 N 
ATOM      8  H   UNL     1       5.050   4.302  20.302  0.00  0.00    +0.000 HD
ENDROOT
BRANCH   1  14
ATOM      9  C   UNL     1       1.889   4.623  19.941  0.00  0.00    +0.000 A 
ATOM     10  C   UNL     1       0.781   3.773  20.118  0.00  0.00    +0.000 A 
ATOM     11  C   UNL     1       0.601   2.641  19.323  0.00  0.00    +0.000 A 
ATOM     12  C   UNL     1       1.516   2.342  18.327  0.00  0.00    +0.000 A 
ATOM     13  C   UNL     1       2.618   3.174  18.127  0.00  0.00    +0.000 A 
ATOM     14  C   UNL     1       2.825   4.317  18.928  0.00  0.00    +0.000 A 
BRANCH   9  15
ATOM     15  O   UNL     1       2.103   5.737  20.728  0.00  0.00    +0.000 OA
BRANCH  15  17
ATOM     16  C   UNL     1       1.252   7.957  21.165  0.00  0.00    +0.000 C 
ATOM     17  C   UNL     1       1.814   7.006  20.126  0.00  0.00    +0.000 C 
ENDBRANCH  15  17
ENDBRANCH   9  15
ENDBRANCH   1  14
BRANCH   4  18
ATOM     18  C   UNL     1       7.709   7.082  17.737  0.00  0.00    +0.000 C 
ATOM     19  O   UNL     1       8.029   7.278  16.574  0.00  0.00    +0.000 OA
BRANCH  18  20
ATOM     20  O   UNL     1       8.489   7.476  18.768  0.00  0.00    +0.000 OA
ATOM     21  H   UNL     1       8.069   7.393  19.658  0.00  0.00    +0.000 HD
ENDBRANCH  18  20
ENDBRANCH   4  18
TORSDOF 5
ENDMDL
MODEL 6
REMARK VINA RESULT:      -7.5      1.721      6.051
REMARK  Name = 
REMARK  6 active torsions:
REMARK  status: ('A' for Active; 'I' for Inactive)
REMARK    1  A    between atoms: C_1  and  C_2
REMARK    2  A    between atoms: C_2  and  O_3
REMARK    3  A    between atoms: O_3  and  C_4
REMARK    4  A    between atoms: C_9  and  C_10
REMARK    5  A    between atoms: C_13  and  C_14
REMARK    6  A    between atoms: C_14  and  O_16
REMARK                            x       y       z     vdW  Elec       q    Type
REMARK                         _______ _______ _______ _____ _____    ______ ____
ROOT
ATOM      1  C   UNL     1       4.301   3.807  18.348  0.00  0.00    +0.000 A 
ATOM      2  N   UNL     1       3.805   3.930  17.153  0.00  0.00    +0.000 NA
ATOM      3  C   UNL     1       4.665   4.219  16.122  0.00  0.00    +0.000 A 
ATOM      4  C   UNL     1       5.991   4.381  16.236  0.00  0.00    +0.000 A 
ATOM      5  C   UNL     1       6.538   4.273  17.596  0.00  0.00    +0.000 A 
ATOM      6  O   UNL     1       7.740   4.409  17.803  0.00  0.00    +0.000 OA
ATOM      7  N   UNL     1       5.639   3.999  18.585  0.00  0.00    +0.000 N 
ATOM      8  H   UNL     1       5.997   3.903  19.528  0.00  0.00    +0.000 HD
ENDROOT
BRANCH   1  14
ATOM      9  C   UNL     1       3.813   2.561  20.560  0.00  0.00    +0.000 A 
ATOM     10  C   UNL     1       2.870   2.244  21.556  0.00  0.00    +0.000 A 
ATOM     11  C   UNL     1       1.571   2.753  21.515  0.00  0.00    +0.000 A 
ATOM     12  C   UNL     1       1.192   3.598  20.486  0.00  0.00    +0.000 A 
ATOM     13  C   UNL     1       2.112   3.935  19.492  0.00  0.00    +0.000 A 
ATOM     14  C   UNL     1       3.426   3.422  19.508  0.00  0.00    +0.000 A 
BRANCH   9  15
ATOM     15  O   UNL     1       5.096   2.054  20.566  0.00  0.00    +0.000 OA
BRANCH  15  17
ATOM     16  C   UNL     1       6.021   0.392  22.059  0.00  0.00    +0.000 C 
ATOM     17  C   UNL     1       5.224   0.644  20.793  0.00  0.00    +0.000 C 
ENDBRANCH  15  17
ENDBRANCH   9  15
ENDBRANCH   1  14
BRANCH   4  18
ATOM     18  C   UNL     1       6.811   4.628  15.035  0.00  0.00    +0.000 C 
ATOM     19  O   UNL     1       6.704   3.985  14.002  0.00  0.00    +0.000 OA
BRANCH  18  20
ATOM     20  O   UNL     1       7.716   5.623  15.168  0.00  0.00    +0.000 OA
ATOM     21  H   UNL     1       7.423   6.373  15.741  0.00  0.00    +0.000 HD
ENDBRANCH  18  20
ENDBRANCH   4  18
TORSDOF 5
ENDMDL
MODEL 7
REMARK VINA RESULT:      -7.4      0.934      1.544
REMARK  Name = 
REMARK  6 active torsions:
REMARK  status: ('A' for Active; 'I' for Inactive)
REMARK    1  A    between atoms: C_1  and  C_2
REMARK    2  A    between atoms: C_2  and  O_3
REMARK    3  A    between atoms: O_3  and  C_4
REMARK    4  A    between atoms: C_9  and  C_10
REMARK    5  A    between atoms: C_13  and  C_14
REMARK    6  A    between atoms: C_14  and  O_16
REMARK                            x       y       z     vdW  Elec       q    Type
REMARK                         _______ _______ _______ _____ _____    ______ ____
ROOT
ATOM      1  C   UNL     1       4.586   4.018  18.143  0.00  0.00    +0.000 A 
ATOM      2  N   UNL     1       4.550   2.848  18.708  0.00  0.00    +0.000 NA
ATOM      3  C   UNL     1       3.671   2.657  19.746  0.00  0.00    +0.000 A 
ATOM      4  C   UNL     1       2.829   3.580  20.233  0.00  0.00    +0.000 A 
ATOM      5  C   UNL     1       2.901   4.909  19.610  0.00  0.00    +0.000 A 
ATOM      6  O   UNL     1       2.171   5.821  19.988  0.00  0.00    +0.000 OA
ATOM      7  N   UNL     1       3.800   5.049  18.593  0.00  0.00    +0.000 N 
ATOM      8  H   UNL     1       3.853   5.952  18.138  0.00  0.00    +0.000 HD
ENDROOT
BRANCH   1  14
ATOM      9  C   UNL     1       6.862   4.525  17.027  0.00  0.00    +0.000 A 
ATOM     10  C   UNL     1       7.561   4.801  15.837  0.00  0.00    +0.000 A 
ATOM     11  C   UNL     1       6.908   4.838  14.604  0.00  0.00    +0.000 A 
ATOM     12  C   UNL     1       5.548   4.588  14.534  0.00  0.00    +0.000 A 
ATOM     13  C   UNL     1       4.835   4.303  15.699  0.00  0.00    +0.000 A 
ATOM     14  C   UNL     1       5.473   4.272  16.957  0.00  0.00    +0.000 A 
BRANCH   9  15
ATOM     15  O   UNL     1       7.480   4.504  18.262  0.00  0.00    +0.000 OA
BRANCH  15  17
ATOM     16  C   UNL     1       7.749   6.906  18.185  0.00  0.00    +0.000 C 
ATOM     17  C   UNL     1       7.390   5.705  19.040  0.00  0.00    +0.000 C 
ENDBRANCH  15  17
ENDBRANCH   9  15
ENDBRANCH   1  14
BRANCH   4  18
ATOM     18  C   UNL     1       1.890   3.225  21.313  0.00  0.00    +0.000 C 
ATOM     19  O   UNL     1       2.232   3.049  22.474  0.00  0.00    +0.000 OA
BRANCH  18  20
ATOM     20  O   UNL     1       0.604   3.090  20.919  0.00  0.00    +0.000 OA
ATOM     21  H   UNL     1       0.096   3.936  20.874  0.00  0.00    +0.000 HD
ENDBRANCH  18  20
ENDBRANCH   4  18
TORSDOF 5
ENDMDL
MODEL 8
REMARK VINA RESULT:      -7.3      2.221      6.143
REMARK  Name = 
REMARK  6 active torsions:
REMARK  status: ('A' for Active; 'I' for Inactive)
REMARK    1  A    between atoms: C_1  and  C_2
REMARK    2  A    between atoms: C_2  and  O_3
REMARK    3  A    between atoms: O_3  and  C_4
REMARK    4  A    between atoms: C_9  and  C_10
REMARK    5  A    between atoms: C_13  and  C_14
REMARK    6  A    between atoms: C_14  and  O_16
REMARK                            x       y       z     vdW  Elec       q    Type
REMARK                         _______ _______ _______ _____ _____    ______ ____
ROOT
ATOM      1  C   UNL     1       4.683   5.039  17.719  0.00  0.00    +0.000 A 
ATOM      2  N   UNL     1       4.256   5.380  16.540  0.00  0.00    +0.000 NA
ATOM      3  C   UNL     1       5.137   5.317  15.488  0.00  0.00    +0.000 A 
ATOM      4  C   UNL     1       6.415   4.919  15.566  0.00  0.00    +0.000 A 
ATOM      5  C   UNL     1       6.898   4.566  16.909  0.00  0.00    +0.000 A 
ATOM      6  O   UNL     1       8.055   4.193  17.084  0.00  0.00    +0.000 OA
ATOM      7  N   UNL     1       5.987   4.661  17.920  0.00  0.00    +0.000 N 
ATOM      8  H   UNL     1       6.294   4.406  18.851  0.00  0.00    +0.000 HD
ENDROOT
BRANCH   1  14
ATOM      9  C   UNL     1       3.486   3.884  19.699  0.00  0.00    +0.000 A 
ATOM     10  C   UNL     1       2.548   3.997  20.742  0.00  0.00    +0.000 A 
ATOM     11  C   UNL     1       1.878   5.195  20.989  0.00  0.00    +0.000 A 
ATOM     12  C   UNL     1       2.140   6.308  20.208  0.00  0.00    +0.000 A 
ATOM     13  C   UNL     1       3.072   6.224  19.173  0.00  0.00    +0.000 A 
ATOM     14  C   UNL     1       3.752   5.019  18.899  0.00  0.00    +0.000 A 
BRANCH   9  15
ATOM     15  O   UNL     1       4.147   2.705  19.419  0.00  0.00    +0.000 OA
BRANCH  15  17
ATOM     16  C   UNL     1       2.584   2.109  17.673  0.00  0.00    +0.000 C 
ATOM     17  C   UNL     1       3.349   1.636  18.895  0.00  0.00    +0.000 C 
ENDBRANCH  15  17
ENDBRANCH   9  15
ENDBRANCH   1  14
BRANCH   4  18
ATOM     18  C   UNL     1       7.239   4.837  14.346  0.00  0.00    +0.000 C 
ATOM     19  O   UNL     1       8.120   5.637  14.072  0.00  0.00    +0.000 OA
BRANCH  18  20
ATOM     20  O   UNL     1       6.932   3.804  13.530  0.00  0.00    +0.000 OA
ATOM     21  H   UNL     1       6.305   3.145  13.916  0.00  0.00    +0.000 HD
ENDBRANCH  18  20
ENDBRANCH   4  18
TORSDOF 5
ENDMDL
MODEL 9
REMARK VINA RESULT:      -7.2      0.981      1.772
REMARK  Name = 
REMARK  6 active torsions:
REMARK  status: ('A' for Active; 'I' for Inactive)
REMARK    1  A    between atoms: C_1  and  C_2
REMARK    2  A    between atoms: C_2  and  O_3
REMARK    3  A    between atoms: O_3  and  C_4
REMARK    4  A    between atoms: C_9  and  C_10
REMARK    5  A    between atoms: C_13  and  C_14
REMARK    6  A    between atoms: C_14  and  O_16
REMARK                            x       y       z     vdW  Elec       q    Type
REMARK                         _______ _______ _______ _____ _____    ______ ____
ROOT
ATOM      1  C   UNL     1       4.601   4.097  17.928  0.00  0.00    +0.000 A 
ATOM      2  N   UNL     1       5.090   3.515  18.982  0.00  0.00    +0.000 NA
ATOM      3  C   UNL     1       4.227   3.178  19.995  0.00  0.00    +0.000 A 
ATOM      4  C   UNL     1       2.903   3.391  19.994  0.00  0.00    +0.000 A 
ATOM      5  C   UNL     1       2.363   4.080  18.812  0.00  0.00    +0.000 A 
ATOM      6  O   UNL     1       1.163   4.322  18.719  0.00  0.00    +0.000 OA
ATOM      7  N   UNL     1       3.266   4.405  17.842  0.00  0.00    +0.000 N 
ATOM      8  H   UNL     1       2.913   4.865  17.011  0.00  0.00    +0.000 HD
ENDROOT
BRANCH   1  14
ATOM      9  C   UNL     1       6.305   5.571  16.661  0.00  0.00    +0.000 A 
ATOM     10  C   UNL     1       7.036   5.783  15.476  0.00  0.00    +0.000 A 
ATOM     11  C   UNL     1       6.949   4.898  14.401  0.00  0.00    +0.000 A 
ATOM     12  C   UNL     1       6.141   3.776  14.493  0.00  0.00    +0.000 A 
ATOM     13  C   UNL     1       5.414   3.540  15.660  0.00  0.00    +0.000 A 
ATOM     14  C   UNL     1       5.479   4.429  16.754  0.00  0.00    +0.000 A 
BRANCH   9  15
ATOM     15  O   UNL     1       6.357   6.442  17.730  0.00  0.00    +0.000 OA
BRANCH  15  17
ATOM     16  C   UNL     1       7.951   5.713  19.395  0.00  0.00    +0.000 C 
ATOM     17  C   UNL     1       7.656   6.699  18.281  0.00  0.00    +0.000 C 
ENDBRANCH  15  17
ENDBRANCH   9  15
ENDBRANCH   1  14
BRANCH   4  18
ATOM     18  C   UNL     1       2.078   2.922  21.123  0.00  0.00    +0.000 C 
ATOM     19  O   UNL     1       2.539   2.614  22.212  0.00  0.00    +0.000 OA
BRANCH  18  20
ATOM     20  O   UNL     1       0.756   2.840  20.857  0.00  0.00    +0.000 OA
ATOM     21  H   UNL     1       0.521   2.930  19.902  0.00  0.00    +0.000 HD
ENDBRANCH  18  20
ENDBRANCH   4  18
TORSDOF 5
ENDMDL
