MODEL 1
REMARK VINA RESULT:      -6.5      0.000      0.000
REMARK  Name = 
REMARK  13 active torsions:
REMARK  status: ('A' for Active; 'I' for Inactive)
REMARK    1  A    between atoms: C_1  and  C_2
REMARK    2  A    between atoms: C_2  and  C_3
REMARK    3  A    between atoms: C_3  and  C_4
REMARK    4  A    between atoms: C_3  and  C_5
REMARK    5  A    between atoms: C_5  and  S_6
REMARK    6  A    between atoms: C_5  and  C_7
REMARK    7  A    between atoms: N_9  and  CA_10
REMARK    8  A    between atoms: CA_10  and  C_11
REMARK    9  A    between atoms: CA_10  and  CB_21
REMARK   10  A    between atoms: CA_17  and  C_18
REMARK   11  A    between atoms: C_18  and  OXT_20
REMARK   12  A    between atoms: CB_21  and  CG1_22
REMARK   13  A    between atoms: CB_21  and  CG2_23
REMARK                            x       y       z     vdW  Elec       q    Type
REMARK                         _______ _______ _______ _____ _____    ______ ____
ROOT
ATOM      1  CA  VAL A   1       5.750   5.387  17.455  0.00  0.00    +0.000 C 
ENDROOT
BRANCH   1   2
ATOM      2  C   VAL A   1       4.318   5.565  18.080  0.00  0.00    +0.000 C 
ATOM      3  O   VAL A   1       3.783   6.679  18.088  0.00  0.00    +0.000 OA
ATOM      4  N   PRO A   2       3.668   4.475  18.678  0.00  0.00    +0.000 N 
ATOM      5  CD  PRO A   2       4.079   3.080  18.565  0.00  0.00    +0.000 C 
ATOM      6  CG  PRO A   2       2.990   2.483  17.697  0.00  0.00    +0.000 C 
ATOM      7  CB  PRO A   2       1.717   3.160  18.209  0.00  0.00    +0.000 C 
ATOM      8  CA  PRO A   2       2.178   4.512  18.786  0.00  0.00    +0.000 C 
BRANCH   8   9
ATOM      9  C   PRO A   2       1.630   4.663  20.218  0.00  0.00    +0.000 C 
ATOM     10  O   PRO A   2       0.746   3.953  20.693  0.00  0.00    +0.000 OA
BRANCH   9  11
ATOM     11  OXT PRO A   2       2.240   5.625  20.941  0.00  0.00    +0.000 OA
ATOM     12  HXT PRO A   2       3.192   5.405  21.036  0.00  0.00    +0.000 HD
ENDBRANCH   9  11
ENDBRANCH   8   9
ENDBRANCH   1   2
BRANCH   1  15
ATOM     13  C   UNK A   0       5.890   4.381  15.163  0.00  0.00    +0.000 C 
ATOM     14  O   UNK A   0       5.901   3.246  15.632  0.00  0.00    +0.000 OA
ATOM     15  N   VAL A   1       5.747   5.501  15.980  0.00  0.00    +0.000 N 
ATOM     16  H   VAL A   1       5.788   6.432  15.578  0.00  0.00    +0.000 HD
BRANCH  13  17
ATOM     17  C   UNK A   0       6.056   4.665  13.650  0.00  0.00    +0.000 C 
BRANCH  17  18
ATOM     18  C   UNK A   0       5.538   3.551  12.679  0.00  0.00    +0.000 C 
ATOM     19  C   UNK A   0       6.744   2.937  11.949  0.00  0.00    +0.000 C 
BRANCH  18  21
ATOM     20  C   UNK A   0       3.745   2.789  10.974  0.00  0.00    +0.000 C 
ATOM     21  C   UNK A   0       4.422   3.961  11.685  0.00  0.00    +0.000 C 
ENDBRANCH  18  21
ENDBRANCH  17  18
BRANCH  17  22
ATOM     22  S   UNK A   0       7.819   5.073  13.323  0.00  0.00    +0.000 S 
ATOM     23  H   UNK A   0       8.339   4.388  14.353  0.00  0.00    +0.000 HD
ENDBRANCH  17  22
ENDBRANCH  13  17
ENDBRANCH   1  15
BRANCH   1  24
ATOM     24  CB  VAL A   1       6.798   6.333  18.103  0.00  0.00    +0.000 C 
ATOM     25  CG1 VAL A   1       7.855   5.555  18.901  0.00  0.00    +0.000 C 
ATOM     26  CG2 VAL A   1       7.521   7.249  17.110  0.00  0.00    +0.000 C 
ENDBRANCH   1  24
TORSDOF 9
ENDMDL
MODEL 2
REMARK VINA RESULT:      -6.4      3.593      6.645
REMARK  Name = 
REMARK  13 active torsions:
REMARK  status: ('A' for Active; 'I' for Inactive)
REMARK    1  A    between atoms: C_1  and  C_2
REMARK    2  A    between atoms: C_2  and  C_3
REMARK    3  A    between atoms: C_3  and  C_4
REMARK    4  A    between atoms: C_3  and  C_5
REMARK    5  A    between atoms: C_5  and  S_6
REMARK    6  A    between atoms: C_5  and  C_7
REMARK    7  A    between atoms: N_9  and  CA_10
REMARK    8  A    between atoms: CA_10  and  C_11
REMARK    9  A    between atoms: CA_10  and  CB_21
REMARK   10  A    between atoms: CA_17  and  C_18
REMARK   11  A    between atoms: C_18  and  OXT_20
REMARK   12  A    between atoms: CB_21  and  CG1_22
REMARK   13  A    between atoms: CB_21  and  CG2_23
REMARK                            x       y       z     vdW  Elec       q    Type
REMARK                         _______ _______ _______ _____ _____    ______ ____
ROOT
ATOM      1  CA  VAL A   1       3.730   6.071  17.547  0.00  0.00    +0.000 C 
ENDROOT
BRANCH   1   2
ATOM      2  C   VAL A   1       4.108   4.967  18.601  0.00  0.00    +0.000 C 
ATOM      3  O   VAL A   1       4.903   5.228  19.511  0.00  0.00    +0.000 OA
ATOM      4  N   PRO A   2       3.590   3.668  18.479  0.00  0.00    +0.000 N 
ATOM      5  CD  PRO A   2       2.501   3.272  17.593  0.00  0.00    +0.000 C 
ATOM      6  CG  PRO A   2       1.373   2.985  18.563  0.00  0.00    +0.000 C 
ATOM      7  CB  PRO A   2       2.076   2.291  19.730  0.00  0.00    +0.000 C 
ATOM      8  CA  PRO A   2       3.524   2.816  19.704  0.00  0.00    +0.000 C 
BRANCH   8   9
ATOM      9  C   PRO A   2       4.495   1.618  19.721  0.00  0.00    +0.000 C 
ATOM     10  O   PRO A   2       5.317   1.414  20.612  0.00  0.00    +0.000 OA
BRANCH   9  11
ATOM     11  OXT PRO A   2       4.339   0.770  18.683  0.00  0.00    +0.000 OA
ATOM     12  HXT PRO A   2       4.912  -0.014  18.817  0.00  0.00    +0.000 HD
ENDBRANCH   9  11
ENDBRANCH   8   9
ENDBRANCH   1   2
BRANCH   1  15
ATOM     13  C   UNK A   0       2.308   7.361  19.160  0.00  0.00    +0.000 C 
ATOM     14  O   UNK A   0       1.845   6.321  19.625  0.00  0.00    +0.000 OA
ATOM     15  N   VAL A   1       3.298   7.337  18.180  0.00  0.00    +0.000 N 
ATOM     16  H   VAL A   1       3.633   8.205  17.776  0.00  0.00    +0.000 HD
BRANCH  13  17
ATOM     17  C   UNK A   0       1.824   8.765  19.600  0.00  0.00    +0.000 C 
BRANCH  17  18
ATOM     18  C   UNK A   0       0.706   8.796  20.696  0.00  0.00    +0.000 C 
ATOM     19  C   UNK A   0      -0.353   9.832  20.286  0.00  0.00    +0.000 C 
BRANCH  18  21
ATOM     20  C   UNK A   0       0.082   9.504  23.106  0.00  0.00    +0.000 C 
ATOM     21  C   UNK A   0       1.174   9.011  22.158  0.00  0.00    +0.000 C 
ENDBRANCH  18  21
ENDBRANCH  17  18
BRANCH  17  22
ATOM     22  S   UNK A   0       1.321   9.703  18.100  0.00  0.00    +0.000 S 
ATOM     23  H   UNK A   0       0.422  10.499  18.700  0.00  0.00    +0.000 HD
ENDBRANCH  17  22
ENDBRANCH  13  17
ENDBRANCH   1  15
BRANCH   1  24
ATOM     24  CB  VAL A   1       4.859   6.303  16.506  0.00  0.00    +0.000 C 
ATOM     25  CG1 VAL A   1       6.081   6.993  17.132  0.00  0.00    +0.000 C 
ATOM     26  CG2 VAL A   1       5.335   5.030  15.796  0.00  0.00    +0.000 C 
ENDBRANCH   1  24
TORSDOF 9
ENDMDL
MODEL 3
REMARK VINA RESULT:      -6.2      3.506      7.625
REMARK  Name = 
REMARK  13 active torsions:
REMARK  status: ('A' for Active; 'I' for Inactive)
REMARK    1  A    between atoms: C_1  and  C_2
REMARK    2  A    between atoms: C_2  and  C_3
REMARK    3  A    between atoms: C_3  and  C_4
REMARK    4  A    between atoms: C_3  and  C_5
REMARK    5  A    between atoms: C_5  and  S_6
REMARK    6  A    between atoms: C_5  and  C_7
REMARK    7  A    between atoms: N_9  and  CA_10
REMARK    8  A    between atoms: CA_10  and  C_11
REMARK    9  A    between atoms: CA_10  and  CB_21
REMARK   10  A    between atoms: CA_17  and  C_18
REMARK   11  A    between atoms: C_18  and  OXT_20
REMARK   12  A    between atoms: CB_21  and  CG1_22
REMARK   13  A    between atoms: CB_21  and  CG2_23
REMARK                            x       y       z     vdW  Elec       q    Type
REMARK                         _______ _______ _______ _____ _____    ______ ____
ROOT
ATOM      1  CA  VAL A   1       2.864   4.698  19.247  0.00  0.00    +0.000 C 
ENDROOT
BRANCH   1   2
ATOM      2  C   VAL A   1       4.343   4.272  18.922  0.00  0.00    +0.000 C 
ATOM      3  O   VAL A   1       4.779   3.192  19.334  0.00  0.00    +0.000 OA
ATOM      4  N   PRO A   2       5.187   5.140  18.212  0.00  0.00    +0.000 N 
ATOM      5  CD  PRO A   2       4.761   6.338  17.497  0.00  0.00    +0.000 C 
ATOM      6  CG  PRO A   2       4.944   5.941  16.047  0.00  0.00    +0.000 C 
ATOM      7  CB  PRO A   2       6.246   5.139  16.060  0.00  0.00    +0.000 C 
ATOM      8  CA  PRO A   2       6.350   4.553  17.481  0.00  0.00    +0.000 C 
BRANCH   8   9
ATOM      9  C   PRO A   2       7.733   4.897  18.068  0.00  0.00    +0.000 C 
ATOM     10  O   PRO A   2       7.972   5.920  18.707  0.00  0.00    +0.000 OA
BRANCH   9  11
ATOM     11  OXT PRO A   2       8.669   3.947  17.863  0.00  0.00    +0.000 OA
ATOM     12  HXT PRO A   2       9.561   4.347  17.946  0.00  0.00    +0.000 HD
ENDBRANCH   9  11
ENDBRANCH   8   9
ENDBRANCH   1   2
BRANCH   1  15
ATOM     13  C   UNK A   0       1.904   6.740  20.341  0.00  0.00    +0.000 C 
ATOM     14  O   UNK A   0       1.399   6.058  21.230  0.00  0.00    +0.000 OA
ATOM     15  N   VAL A   1       2.705   6.165  19.356  0.00  0.00    +0.000 N 
ATOM     16  H   VAL A   1       3.074   6.738  18.604  0.00  0.00    +0.000 HD
BRANCH  13  17
ATOM     17  C   UNK A   0       1.679   8.267  20.225  0.00  0.00    +0.000 C 
BRANCH  17  18
ATOM     18  C   UNK A   0       0.396   8.830  20.926  0.00  0.00    +0.000 C 
ATOM     19  C   UNK A   0      -0.205   9.931  20.036  0.00  0.00    +0.000 C 
BRANCH  18  21
ATOM     20  C   UNK A   0      -0.556  10.228  22.885  0.00  0.00    +0.000 C 
ATOM     21  C   UNK A   0       0.561   9.311  22.390  0.00  0.00    +0.000 C 
ENDBRANCH  18  21
ENDBRANCH  17  18
BRANCH  17  22
ATOM     22  S   UNK A   0       1.729   8.729  18.445  0.00  0.00    +0.000 S 
ATOM     23  H   UNK A   0       1.516  10.044  18.612  0.00  0.00    +0.000 HD
ENDBRANCH  17  22
ENDBRANCH  13  17
ENDBRANCH   1  15
BRANCH   1  24
ATOM     24  CB  VAL A   1       1.841   4.081  18.255  0.00  0.00    +0.000 C 
ATOM     25  CG1 VAL A   1       2.537   3.361  17.090  0.00  0.00    +0.000 C 
ATOM     26  CG2 VAL A   1       0.847   3.107  18.899  0.00  0.00    +0.000 C 
ENDBRANCH   1  24
TORSDOF 9
ENDMDL
MODEL 4
REMARK VINA RESULT:      -6.1      3.769      7.607
REMARK  Name = 
REMARK  13 active torsions:
REMARK  status: ('A' for Active; 'I' for Inactive)
REMARK    1  A    between atoms: C_1  and  C_2
REMARK    2  A    between atoms: C_2  and  C_3
REMARK    3  A    between atoms: C_3  and  C_4
REMARK    4  A    between atoms: C_3  and  C_5
REMARK    5  A    between atoms: C_5  and  S_6
REMARK    6  A    between atoms: C_5  and  C_7
REMARK    7  A    between atoms: N_9  and  CA_10
REMARK    8  A    between atoms: CA_10  and  C_11
REMARK    9  A    between atoms: CA_10  and  CB_21
REMARK   10  A    between atoms: CA_17  and  C_18
REMARK   11  A    between atoms: C_18  and  OXT_20
REMARK   12  A    between atoms: CB_21  and  CG1_22
REMARK   13  A    between atoms: CB_21  and  CG2_23
REMARK                            x       y       z     vdW  Elec       q    Type
REMARK                         _______ _______ _______ _____ _____    ______ ____
ROOT
ATOM      1  CA  VAL A   1       3.056   5.365  18.930  0.00  0.00    +0.000 C 
ENDROOT
BRANCH   1   2
ATOM      2  C   VAL A   1       4.590   5.111  19.167  0.00  0.00    +0.000 C 
ATOM      3  O   VAL A   1       4.955   4.310  20.034  0.00  0.00    +0.000 OA
ATOM      4  N   PRO A   2       5.547   5.832  18.436  0.00  0.00    +0.000 N 
ATOM      5  CD  PRO A   2       5.272   6.647  17.257  0.00  0.00    +0.000 C 
ATOM      6  CG  PRO A   2       5.905   5.839  16.143  0.00  0.00    +0.000 C 
ATOM      7  CB  PRO A   2       7.196   5.314  16.773  0.00  0.00    +0.000 C 
ATOM      8  CA  PRO A   2       6.912   5.244  18.285  0.00  0.00    +0.000 C 
BRANCH   8   9
ATOM      9  C   PRO A   2       8.030   5.985  19.044  0.00  0.00    +0.000 C 
ATOM     10  O   PRO A   2       8.403   7.125  18.776  0.00  0.00    +0.000 OA
BRANCH   9  11
ATOM     11  OXT PRO A   2       8.547   5.288  20.077  0.00  0.00    +0.000 OA
ATOM     12  HXT PRO A   2       7.973   5.400  20.864  0.00  0.00    +0.000 HD
ENDBRANCH   9  11
ENDBRANCH   8   9
ENDBRANCH   1   2
BRANCH   1  15
ATOM     13  C   UNK A   0       1.985   7.348  20.030  0.00  0.00    +0.000 C 
ATOM     14  O   UNK A   0       1.723   6.684  21.030  0.00  0.00    +0.000 OA
ATOM     15  N   VAL A   1       2.705   6.802  18.968  0.00  0.00    +0.000 N 
ATOM     16  H   VAL A   1       2.870   7.352  18.131  0.00  0.00    +0.000 HD
BRANCH  13  17
ATOM     17  C   UNK A   0       1.527   8.816  19.852  0.00  0.00    +0.000 C 
BRANCH  17  18
ATOM     18  C   UNK A   0       0.266   9.248  20.674  0.00  0.00    +0.000 C 
ATOM     19  C   UNK A   0      -0.537  10.262  19.843  0.00  0.00    +0.000 C 
BRANCH  18  21
ATOM     20  C   UNK A   0      -0.744   9.954  22.951  0.00  0.00    +0.000 C 
ATOM     21  C   UNK A   0       0.520   9.768  22.112  0.00  0.00    +0.000 C 
ENDBRANCH  18  21
ENDBRANCH  17  18
BRANCH  17  22
ATOM     22  S   UNK A   0       1.302   9.144  18.057  0.00  0.00    +0.000 S 
ATOM     23  H   UNK A   0       1.599   7.908  17.627  0.00  0.00    +0.000 HD
ENDBRANCH  17  22
ENDBRANCH  13  17
ENDBRANCH   1  15
BRANCH   1  24
ATOM     24  CB  VAL A   1       2.539   4.681  17.635  0.00  0.00    +0.000 C 
ATOM     25  CG1 VAL A   1       3.361   3.432  17.280  0.00  0.00    +0.000 C 
ATOM     26  CG2 VAL A   1       1.058   4.287  17.678  0.00  0.00    +0.000 C 
ENDBRANCH   1  24
TORSDOF 9
ENDMDL
MODEL 5
REMARK VINA RESULT:      -6.0      1.668      2.078
REMARK  Name = 
REMARK  13 active torsions:
REMARK  status: ('A' for Active; 'I' for Inactive)
REMARK    1  A    between atoms: C_1  and  C_2
REMARK    2  A    between atoms: C_2  and  C_3
REMARK    3  A    between atoms: C_3  and  C_4
REMARK    4  A    between atoms: C_3  and  C_5
REMARK    5  A    between atoms: C_5  and  S_6
REMARK    6  A    between atoms: C_5  and  C_7
REMARK    7  A    between atoms: N_9  and  CA_10
REMARK    8  A    between atoms: CA_10  and  C_11
REMARK    9  A    between atoms: CA_10  and  CB_21
REMARK   10  A    between atoms: CA_17  and  C_18
REMARK   11  A    between atoms: C_18  and  OXT_20
REMARK   12  A    between atoms: CB_21  and  CG1_22
REMARK   13  A    between atoms: CB_21  and  CG2_23
REMARK                            x       y       z     vdW  Elec       q    Type
REMARK                         _______ _______ _______ _____ _____    ______ ____
ROOT
ATOM      1  CA  VAL A   1       5.966   4.460  17.838  0.00  0.00    +0.000 C 
ENDROOT
BRANCH   1   2
ATOM      2  C   VAL A   1       4.829   3.690  18.604  0.00  0.00    +0.000 C 
ATOM      3  O   VAL A   1       5.117   2.756  19.360  0.00  0.00    +0.000 OA
ATOM      4  N   PRO A   2       3.482   4.023  18.389  0.00  0.00    +0.000 N 
ATOM      5  CD  PRO A   2       3.007   5.215  17.695  0.00  0.00    +0.000 C 
ATOM      6  CG  PRO A   2       2.407   6.035  18.819  0.00  0.00    +0.000 C 
ATOM      7  CB  PRO A   2       1.714   4.988  19.692  0.00  0.00    +0.000 C 
ATOM      8  CA  PRO A   2       2.490   3.679  19.452  0.00  0.00    +0.000 C 
BRANCH   8   9
ATOM      9  C   PRO A   2       1.494   2.563  19.079  0.00  0.00    +0.000 C 
ATOM     10  O   PRO A   2       0.272   2.694  19.115  0.00  0.00    +0.000 OA
BRANCH   9  11
ATOM     11  OXT PRO A   2       2.079   1.423  18.658  0.00  0.00    +0.000 OA
ATOM     12  HXT PRO A   2       2.980   1.360  19.042  0.00  0.00    +0.000 HD
ENDBRANCH   9  11
ENDBRANCH   8   9
ENDBRANCH   1   2
BRANCH   1  15
ATOM     13  C   UNK A   0       6.819   4.506  15.481  0.00  0.00    +0.000 C 
ATOM     14  O   UNK A   0       7.977   4.376  15.869  0.00  0.00    +0.000 OA
ATOM     15  N   VAL A   1       5.750   4.487  16.375  0.00  0.00    +0.000 N 
ATOM     16  H   VAL A   1       4.805   4.643  16.040  0.00  0.00    +0.000 HD
BRANCH  13  17
ATOM     17  C   UNK A   0       6.452   4.722  13.992  0.00  0.00    +0.000 C 
BRANCH  17  18
ATOM     18  C   UNK A   0       5.984   3.450  13.207  0.00  0.00    +0.000 C 
ATOM     19  C   UNK A   0       6.921   3.243  12.006  0.00  0.00    +0.000 C 
BRANCH  18  21
ATOM     20  C   UNK A   0       4.273   3.278  11.272  0.00  0.00    +0.000 C 
ATOM     21  C   UNK A   0       4.495   3.408  12.778  0.00  0.00    +0.000 C 
ENDBRANCH  18  21
ENDBRANCH  17  18
BRANCH  17  22
ATOM     22  S   UNK A   0       7.868   5.543  13.156  0.00  0.00    +0.000 S 
ATOM     23  H   UNK A   0       7.362   5.518  11.913  0.00  0.00    +0.000 HD
ENDBRANCH  17  22
ENDBRANCH  13  17
ENDBRANCH   1  15
BRANCH   1  24
ATOM     24  CB  VAL A   1       6.203   5.884  18.411  0.00  0.00    +0.000 C 
ATOM     25  CG1 VAL A   1       7.628   6.049  18.961  0.00  0.00    +0.000 C 
ATOM     26  CG2 VAL A   1       5.935   7.018  17.415  0.00  0.00    +0.000 C 
ENDBRANCH   1  24
TORSDOF 9
ENDMDL
MODEL 6
REMARK VINA RESULT:      -6.0      0.858      1.440
REMARK  Name = 
REMARK  13 active torsions:
REMARK  status: ('A' for Active; 'I' for Inactive)
REMARK    1  A    between atoms: C_1  and  C_2
REMARK    2  A    between atoms: C_2  and  C_3
REMARK    3  A    between atoms: C_3  and  C_4
REMARK    4  A    between atoms: C_3  and  C_5
REMARK    5  A    between atoms: C_5  and  S_6
REMARK    6  A    between atoms: C_5  and  C_7
REMARK    7  A    between atoms: N_9  and  CA_10
REMARK    8  A    between atoms: CA_10  and  C_11
REMARK    9  A    between atoms: CA_10  and  CB_21
REMARK   10  A    between atoms: CA_17  and  C_18
REMARK   11  A    between atoms: C_18  and  OXT_20
REMARK   12  A    between atoms: CB_21  and  CG1_22
REMARK   13  A    between atoms: CB_21  and  CG2_23
REMARK                            x       y       z     vdW  Elec       q    Type
REMARK                         _______ _______ _______ _____ _____    ______ ____
ROOT
ATOM      1  CA  VAL A   1       6.119   5.287  16.917  0.00  0.00    +0.000 C 
ENDROOT
BRANCH   1   2
ATOM      2  C   VAL A   1       4.769   5.775  17.558  0.00  0.00    +0.000 C 
ATOM      3  O   VAL A   1       4.456   6.969  17.503  0.00  0.00    +0.000 OA
ATOM      4  N   PRO A   2       3.944   4.869  18.243  0.00  0.00    +0.000 N 
ATOM      5  CD  PRO A   2       4.078   3.416  18.216  0.00  0.00    +0.000 C 
ATOM      6  CG  PRO A   2       2.867   2.987  17.414  0.00  0.00    +0.000 C 
ATOM      7  CB  PRO A   2       1.764   3.926  17.906  0.00  0.00    +0.000 C 
ATOM      8  CA  PRO A   2       2.493   5.198  18.380  0.00  0.00    +0.000 C 
BRANCH   8   9
ATOM      9  C   PRO A   2       2.033   5.540  19.811  0.00  0.00    +0.000 C 
ATOM     10  O   PRO A   2       1.270   4.838  20.473  0.00  0.00    +0.000 OA
BRANCH   9  11
ATOM     11  OXT PRO A   2       2.580   6.668  20.309  0.00  0.00    +0.000 OA
ATOM     12  HXT PRO A   2       1.865   7.293  20.556  0.00  0.00    +0.000 HD
ENDBRANCH   9  11
ENDBRANCH   8   9
ENDBRANCH   1   2
BRANCH   1  15
ATOM     13  C   UNK A   0       6.293   4.484  14.548  0.00  0.00    +0.000 C 
ATOM     14  O   UNK A   0       6.225   3.312  14.911  0.00  0.00    +0.000 OA
ATOM     15  N   VAL A   1       6.178   5.532  15.459  0.00  0.00    +0.000 N 
ATOM     16  H   VAL A   1       6.284   6.492  15.145  0.00  0.00    +0.000 HD
BRANCH  13  17
ATOM     17  C   UNK A   0       6.531   4.893  13.073  0.00  0.00    +0.000 C 
BRANCH  17  18
ATOM     18  C   UNK A   0       6.136   3.831  11.991  0.00  0.00    +0.000 C 
ATOM     19  C   UNK A   0       4.683   3.395  12.241  0.00  0.00    +0.000 C 
BRANCH  18  21
ATOM     20  C   UNK A   0       6.451   1.410  11.133  0.00  0.00    +0.000 C 
ATOM     21  C   UNK A   0       7.078   2.609  11.842  0.00  0.00    +0.000 C 
ENDBRANCH  18  21
ENDBRANCH  17  18
BRANCH  17  22
ATOM     22  S   UNK A   0       8.285   5.416  12.890  0.00  0.00    +0.000 S 
ATOM     23  H   UNK A   0       8.322   5.396  11.549  0.00  0.00    +0.000 HD
ENDBRANCH  17  22
ENDBRANCH  13  17
ENDBRANCH   1  15
BRANCH   1  24
ATOM     24  CB  VAL A   1       7.361   5.863  17.649  0.00  0.00    +0.000 C 
ATOM     25  CG1 VAL A   1       7.562   7.355  17.347  0.00  0.00    +0.000 C 
ATOM     26  CG2 VAL A   1       7.340   5.677  19.171  0.00  0.00    +0.000 C 
ENDBRANCH   1  24
TORSDOF 9
ENDMDL
MODEL 7
REMARK VINA RESULT:      -5.9      3.785      7.939
REMARK  Name = 
REMARK  13 active torsions:
REMARK  status: ('A' for Active; 'I' for Inactive)
REMARK    1  A    between atoms: C_1  and  C_2
REMARK    2  A    between atoms: C_2  and  C_3
REMARK    3  A    between atoms: C_3  and  C_4
REMARK    4  A    between atoms: C_3  and  C_5
REMARK    5  A    between atoms: C_5  and  S_6
REMARK    6  A    between atoms: C_5  and  C_7
REMARK    7  A    between atoms: N_9  and  CA_10
REMARK    8  A    between atoms: CA_10  and  C_11
REMARK    9  A    between atoms: CA_10  and  CB_21
REMARK   10  A    between atoms: CA_17  and  C_18
REMARK   11  A    between atoms: C_18  and  OXT_20
REMARK   12  A    between atoms: CB_21  and  CG1_22
REMARK   13  A    between atoms: CB_21  and  CG2_23
REMARK                            x       y       z     vdW  Elec       q    Type
REMARK                         _______ _______ _______ _____ _____    ______ ____
ROOT
ATOM      1  CA  VAL A   1       3.053   6.339  19.016  0.00  0.00    +0.000 C 
ENDROOT
BRANCH   1   2
ATOM      2  C   VAL A   1       4.100   6.209  17.850  0.00  0.00    +0.000 C 
ATOM      3  O   VAL A   1       3.925   6.824  16.793  0.00  0.00    +0.000 OA
ATOM      4  N   PRO A   2       5.203   5.352  17.985  0.00  0.00    +0.000 N 
ATOM      5  CD  PRO A   2       5.644   4.730  19.229  0.00  0.00    +0.000 C 
ATOM      6  CG  PRO A   2       6.936   5.462  19.526  0.00  0.00    +0.000 C 
ATOM      7  CB  PRO A   2       7.582   5.616  18.148  0.00  0.00    +0.000 C 
ATOM      8  CA  PRO A   2       6.411   5.618  17.147  0.00  0.00    +0.000 C 
BRANCH   8   9
ATOM      9  C   PRO A   2       6.686   4.574  16.046  0.00  0.00    +0.000 C 
ATOM     10  O   PRO A   2       7.507   4.728  15.144  0.00  0.00    +0.000 OA
BRANCH   9  11
ATOM     11  OXT PRO A   2       5.974   3.436  16.179  0.00  0.00    +0.000 OA
ATOM     12  HXT PRO A   2       5.679   3.345  17.110  0.00  0.00    +0.000 HD
ENDBRANCH   9  11
ENDBRANCH   8   9
ENDBRANCH   1   2
BRANCH   1  15
ATOM     13  C   UNK A   0       1.742   8.109  20.214  0.00  0.00    +0.000 C 
ATOM     14  O   UNK A   0       1.711   7.431  21.238  0.00  0.00    +0.000 OA
ATOM     15  N   VAL A   1       2.442   7.685  19.086  0.00  0.00    +0.000 N 
ATOM     16  H   VAL A   1       2.416   8.236  18.234  0.00  0.00    +0.000 HD
BRANCH  13  17
ATOM     17  C   UNK A   0       0.999   9.461  20.079  0.00  0.00    +0.000 C 
BRANCH  17  18
ATOM     18  C   UNK A   0      -0.374   9.570  20.826  0.00  0.00    +0.000 C 
ATOM     19  C   UNK A   0      -1.116  10.813  20.308  0.00  0.00    +0.000 C 
BRANCH  18  21
ATOM     20  C   UNK A   0      -1.015  10.726  23.051  0.00  0.00    +0.000 C 
ATOM     21  C   UNK A   0      -0.325   9.543  22.375  0.00  0.00    +0.000 C 
ENDBRANCH  18  21
ENDBRANCH  17  18
BRANCH  17  22
ATOM     22  S   UNK A   0       0.823   9.854  18.291  0.00  0.00    +0.000 S 
ATOM     23  H   UNK A   0      -0.229  10.679  18.408  0.00  0.00    +0.000 HD
ENDBRANCH  17  22
ENDBRANCH  13  17
ENDBRANCH   1  15
BRANCH   1  24
ATOM     24  CB  VAL A   1       1.977   5.220  18.969  0.00  0.00    +0.000 C 
ATOM     25  CG1 VAL A   1       1.977   4.481  17.622  0.00  0.00    +0.000 C 
ATOM     26  CG2 VAL A   1       2.098   4.180  20.090  0.00  0.00    +0.000 C 
ENDBRANCH   1  24
TORSDOF 9
ENDMDL
MODEL 8
REMARK VINA RESULT:      -5.8      0.776      1.094
REMARK  Name = 
REMARK  13 active torsions:
REMARK  status: ('A' for Active; 'I' for Inactive)
REMARK    1  A    between atoms: C_1  and  C_2
REMARK    2  A    between atoms: C_2  and  C_3
REMARK    3  A    between atoms: C_3  and  C_4
REMARK    4  A    between atoms: C_3  and  C_5
REMARK    5  A    between atoms: C_5  and  S_6
REMARK    6  A    between atoms: C_5  and  C_7
REMARK    7  A    between atoms: N_9  and  CA_10
REMARK    8  A    between atoms: CA_10  and  C_11
REMARK    9  A    between atoms: CA_10  and  CB_21
REMARK   10  A    between atoms: CA_17  and  C_18
REMARK   11  A    between atoms: C_18  and  OXT_20
REMARK   12  A    between atoms: CB_21  and  CG1_22
REMARK   13  A    between atoms: CB_21  and  CG2_23
REMARK                            x       y       z     vdW  Elec       q    Type
REMARK                         _______ _______ _______ _____ _____    ______ ____
ROOT
ATOM      1  CA  VAL A   1       6.413   5.206  17.340  0.00  0.00    +0.000 C 
ENDROOT
BRANCH   1   2
ATOM      2  C   VAL A   1       5.012   5.676  17.876  0.00  0.00    +0.000 C 
ATOM      3  O   VAL A   1       4.578   6.793  17.572  0.00  0.00    +0.000 OA
ATOM      4  N   PRO A   2       4.276   4.855  18.745  0.00  0.00    +0.000 N 
ATOM      5  CD  PRO A   2       4.560   3.452  19.024  0.00  0.00    +0.000 C 
ATOM      6  CG  PRO A   2       3.410   2.739  18.343  0.00  0.00    +0.000 C 
ATOM      7  CB  PRO A   2       2.210   3.642  18.635  0.00  0.00    +0.000 C 
ATOM      8  CA  PRO A   2       2.797   5.053  18.822  0.00  0.00    +0.000 C 
BRANCH   8   9
ATOM      9  C   PRO A   2       2.285   5.641  20.152  0.00  0.00    +0.000 C 
ATOM     10  O   PRO A   2       1.703   4.984  21.013  0.00  0.00    +0.000 OA
BRANCH   9  11
ATOM     11  OXT PRO A   2       2.572   6.948  20.321  0.00  0.00    +0.000 OA
ATOM     12  HXT PRO A   2       1.737   7.457  20.392  0.00  0.00    +0.000 HD
ENDBRANCH   9  11
ENDBRANCH   8   9
ENDBRANCH   1   2
BRANCH   1  15
ATOM     13  C   UNK A   0       5.752   4.529  15.018  0.00  0.00    +0.000 C 
ATOM     14  O   UNK A   0       4.860   3.805  15.454  0.00  0.00    +0.000 OA
ATOM     15  N   VAL A   1       6.527   5.316  15.869  0.00  0.00    +0.000 N 
ATOM     16  H   VAL A   1       7.289   5.870  15.494  0.00  0.00    +0.000 HD
BRANCH  13  17
ATOM     17  C   UNK A   0       6.105   4.613  13.512  0.00  0.00    +0.000 C 
BRANCH  17  18
ATOM     18  C   UNK A   0       5.629   3.412  12.626  0.00  0.00    +0.000 C 
ATOM     19  C   UNK A   0       6.770   3.026  11.671  0.00  0.00    +0.000 C 
BRANCH  18  21
ATOM     20  C   UNK A   0       4.064   2.601  10.731  0.00  0.00    +0.000 C 
ATOM     21  C   UNK A   0       4.291   3.598  11.866  0.00  0.00    +0.000 C 
ENDBRANCH  18  21
ENDBRANCH  17  18
BRANCH  17  22
ATOM     22  S   UNK A   0       7.915   4.889  13.352  0.00  0.00    +0.000 S 
ATOM     23  H   UNK A   0       8.192   4.923  14.665  0.00  0.00    +0.000 HD
ENDBRANCH  17  22
ENDBRANCH  13  17
ENDBRANCH   1  15
BRANCH   1  24
ATOM     24  CB  VAL A   1       7.589   5.917  18.063  0.00  0.00    +0.000 C 
ATOM     25  CG1 VAL A   1       7.632   7.419  17.745  0.00  0.00    +0.000 C 
ATOM     26  CG2 VAL A   1       7.590   5.747  19.587  0.00  0.00    +0.000 C 
ENDBRANCH   1  24
TORSDOF 9
ENDMDL
MODEL 9
REMARK VINA RESULT:      -5.8      4.158      7.425
REMARK  Name = 
REMARK  13 active torsions:
REMARK  status: ('A' for Active; 'I' for Inactive)
REMARK    1  A    between atoms: C_1  and  C_2
REMARK    2  A    between atoms: C_2  and  C_3
REMARK    3  A    between atoms: C_3  and  C_4
REMARK    4  A    between atoms: C_3  and  C_5
REMARK    5  A    between atoms: C_5  and  S_6
REMARK    6  A    between atoms: C_5  and  C_7
REMARK    7  A    between atoms: N_9  and  CA_10
REMARK    8  A    between atoms: CA_10  and  C_11
REMARK    9  A    between atoms: CA_10  and  CB_21
REMARK   10  A    between atoms: CA_17  and  C_18
REMARK   11  A    between atoms: C_18  and  OXT_20
REMARK   12  A    between atoms: CB_21  and  CG1_22
REMARK   13  A    between atoms: CB_21  and  CG2_23
REMARK                            x       y       z     vdW  Elec       q    Type
REMARK                         _______ _______ _______ _____ _____    ______ ____
ROOT
ATOM      1  CA  VAL A   1       3.013   6.452  18.986  0.00  0.00    +0.000 C 
ENDROOT
BRANCH   1   2
ATOM      2  C   VAL A   1       4.069   6.423  17.822  0.00  0.00    +0.000 C 
ATOM      3  O   VAL A   1       3.890   7.107  16.809  0.00  0.00    +0.000 OA
ATOM      4  N   PRO A   2       5.187   5.578  17.904  0.00  0.00    +0.000 N 
ATOM      5  CD  PRO A   2       5.631   4.877  19.104  0.00  0.00    +0.000 C 
ATOM      6  CG  PRO A   2       6.908   5.610  19.462  0.00  0.00    +0.000 C 
ATOM      7  CB  PRO A   2       7.560   5.871  18.103  0.00  0.00    +0.000 C 
ATOM      8  CA  PRO A   2       6.395   5.924  17.096  0.00  0.00    +0.000 C 
BRANCH   8   9
ATOM      9  C   PRO A   2       6.695   4.965  15.927  0.00  0.00    +0.000 C 
ATOM     10  O   PRO A   2       6.126   3.887  15.759  0.00  0.00    +0.000 OA
BRANCH   9  11
ATOM     11  OXT PRO A   2       7.617   5.429  15.058  0.00  0.00    +0.000 OA
ATOM     12  HXT PRO A   2       8.486   5.018  15.257  0.00  0.00    +0.000 HD
ENDBRANCH   9  11
ENDBRANCH   8   9
ENDBRANCH   1   2
BRANCH   1  15
ATOM     13  C   UNK A   0       1.538   8.116  20.145  0.00  0.00    +0.000 C 
ATOM     14  O   UNK A   0       1.677   7.533  21.217  0.00  0.00    +0.000 OA
ATOM     15  N   VAL A   1       2.216   7.699  19.001  0.00  0.00    +0.000 N 
ATOM     16  H   VAL A   1       2.052   8.165  18.115  0.00  0.00    +0.000 HD
BRANCH  13  17
ATOM     17  C   UNK A   0       0.597   9.333  19.967  0.00  0.00    +0.000 C 
BRANCH  17  18
ATOM     18  C   UNK A   0       0.648  10.046  18.573  0.00  0.00    +0.000 C 
ATOM     19  C   UNK A   0       1.256  11.445  18.761  0.00  0.00    +0.000 C 
BRANCH  18  21
ATOM     20  C   UNK A   0      -1.587  11.278  18.144  0.00  0.00    +0.000 C 
ATOM     21  C   UNK A   0      -0.679  10.106  17.775  0.00  0.00    +0.000 C 
ENDBRANCH  18  21
ENDBRANCH  17  18
BRANCH  17  22
ATOM     22  S   UNK A   0       0.909  10.517  21.339  0.00  0.00    +0.000 S 
ATOM     23  H   UNK A   0       1.295  11.552  20.577  0.00  0.00    +0.000 HD
ENDBRANCH  17  22
ENDBRANCH  13  17
ENDBRANCH   1  15
BRANCH   1  24
ATOM     24  CB  VAL A   1       2.108   5.190  18.993  0.00  0.00    +0.000 C 
ATOM     25  CG1 VAL A   1       2.201   4.412  17.672  0.00  0.00    +0.000 C 
ATOM     26  CG2 VAL A   1       2.388   4.218  20.146  0.00  0.00    +0.000 C 
ENDBRANCH   1  24
TORSDOF 9
ENDMDL
