MODEL 1
REMARK VINA RESULT:      -8.9      0.000      0.000
REMARK  Name = 
REMARK  5 active torsions:
REMARK  status: ('A' for Active; 'I' for Inactive)
REMARK    1  A    between atoms: C_1  and  C_2
REMARK    2  A    between atoms: C_7  and  C_8
REMARK    3  A    between atoms: C_8  and  N_9
REMARK    4  A    between atoms: N_13  and  C_14
REMARK    5  A    between atoms: C_20  and  C_21
REMARK                            x       y       z     vdW  Elec       q    Type
REMARK                         _______ _______ _______ _____ _____    ______ ____
ROOT
ATOM      1  N   UNL     1       3.540   6.767  17.130  0.00  0.00    +0.000 N 
ATOM      2  C   UNL     1       2.856   6.951  18.286  0.00  0.00    +0.000 A 
ATOM      3  N   UNL     1       2.747   5.894  19.165  0.00  0.00    +0.000 NA
ATOM      4  C   UNL     1       2.132   6.062  20.300  0.00  0.00    +0.000 A 
ATOM      5  N   UNL     1       1.943   5.068  21.252  0.00  0.00    +0.000 N 
ATOM      6  N   UNL     1       1.616   7.337  20.577  0.00  0.00    +0.000 N 
ATOM      7  N   UNL     1       0.962   7.667  21.718  0.00  0.00    +0.000 NA
ATOM      8  C   UNL     1       0.617   8.944  21.492  0.00  0.00    +0.000 A 
ATOM      9  C   UNL     1       1.057   9.423  20.234  0.00  0.00    +0.000 A 
ATOM     10  C   UNL     1       1.704   8.348  19.661  0.00  0.00    +0.000 A 
ATOM     11  N   UNL     1       2.339   8.138  18.482  0.00  0.00    +0.000 NA
ATOM     12  H   UNL     1       3.536   7.558  16.501  0.00  0.00    +0.000 HD
ATOM     13  H   UNL     1       1.370   5.363  22.043  0.00  0.00    +0.000 HD
ENDROOT
BRANCH   9  14
ATOM     14  C   UNL     1       0.846  10.680  19.594  0.00  0.00    +0.000 C 
ATOM     15  C   UNL     1      -0.233  11.081  18.916  0.00  0.00    +0.000 C 
ATOM     16  N   UNL     1      -1.424  10.436  18.744  0.00  0.00    +0.000 N 
ATOM     17  C   UNL     1      -2.264  11.201  17.955  0.00  0.00    +0.000 C 
ATOM     18  O   UNL     1      -3.397  10.900  17.622  0.00  0.00    +0.000 OA
ATOM     19  N   UNL     1      -1.594  12.348  17.619  0.00  0.00    +0.000 N 
ATOM     20  C   UNL     1      -0.343  12.380  18.174  0.00  0.00    +0.000 C 
ATOM     21  O   UNL     1       0.498  13.248  18.074  0.00  0.00    +0.000 OA
ATOM     22  H   UNL     1      -1.709   9.566  19.165  0.00  0.00    +0.000 HD
ATOM     23  H   UNL     1      -1.982  13.074  17.043  0.00  0.00    +0.000 HD
ENDBRANCH   9  14
BRANCH   5  24
ATOM     24  C   UNL     1       1.871   3.673  20.808  0.00  0.00    +0.000 C 
ATOM     25  C   UNL     1       2.769   2.623  21.403  0.00  0.00    +0.000 C 
ATOM     26  C   UNL     1       1.298   2.605  21.701  0.00  0.00    +0.000 C 
ENDBRANCH   5  24
BRANCH   1  27
ATOM     27  C   UNL     1       4.496   5.712  16.902  0.00  0.00    +0.000 C 
BRANCH  27  34
ATOM     28  C   UNL     1       8.422   8.722  17.877  0.00  0.00    +0.000 C 
ATOM     29  C   UNL     1       7.696   7.430  18.110  0.00  0.00    +0.000 A 
ATOM     30  C   UNL     1       8.193   6.476  19.006  0.00  0.00    +0.000 A 
ATOM     31  C   UNL     1       7.487   5.295  19.227  0.00  0.00    +0.000 A 
ATOM     32  C   UNL     1       6.291   5.066  18.553  0.00  0.00    +0.000 A 
ATOM     33  F   UNL     1       5.636   3.918  18.783  0.00  0.00    +0.000 F 
ATOM     34  C   UNL     1       5.776   5.986  17.641  0.00  0.00    +0.000 A 
ATOM     35  C   UNL     1       6.490   7.172  17.442  0.00  0.00    +0.000 A 
ATOM     36  F   UNL     1       6.014   8.095  16.593  0.00  0.00    +0.000 F 
ENDBRANCH  27  34
ENDBRANCH   1  27
TORSDOF 4
ENDMDL
MODEL 2
REMARK VINA RESULT:      -8.4      1.452      2.000
REMARK  Name = 
REMARK  5 active torsions:
REMARK  status: ('A' for Active; 'I' for Inactive)
REMARK    1  A    between atoms: C_1  and  C_2
REMARK    2  A    between atoms: C_7  and  C_8
REMARK    3  A    between atoms: C_8  and  N_9
REMARK    4  A    between atoms: N_13  and  C_14
REMARK    5  A    between atoms: C_20  and  C_21
REMARK                            x       y       z     vdW  Elec       q    Type
REMARK                         _______ _______ _______ _____ _____    ______ ____
ROOT
ATOM      1  N   UNL     1       3.733   6.789  16.939  0.00  0.00    +0.000 N 
ATOM      2  C   UNL     1       3.041   6.969  18.091  0.00  0.00    +0.000 A 
ATOM      3  N   UNL     1       2.990   5.934  19.001  0.00  0.00    +0.000 NA
ATOM      4  C   UNL     1       2.367   6.102  20.132  0.00  0.00    +0.000 A 
ATOM      5  N   UNL     1       2.233   5.128  21.113  0.00  0.00    +0.000 N 
ATOM      6  N   UNL     1       1.782   7.354  20.372  0.00  0.00    +0.000 N 
ATOM      7  N   UNL     1       1.111   7.682  21.504  0.00  0.00    +0.000 NA
ATOM      8  C   UNL     1       0.696   8.930  21.241  0.00  0.00    +0.000 A 
ATOM      9  C   UNL     1       1.109   9.395  19.968  0.00  0.00    +0.000 A 
ATOM     10  C   UNL     1       1.813   8.341  19.426  0.00  0.00    +0.000 A 
ATOM     11  N   UNL     1       2.459   8.131  18.253  0.00  0.00    +0.000 NA
ATOM     12  H   UNL     1       3.685   7.559  16.287  0.00  0.00    +0.000 HD
ATOM     13  H   UNL     1       1.645   5.414  21.896  0.00  0.00    +0.000 HD
ENDROOT
BRANCH   9  14
ATOM     14  C   UNL     1       0.828  10.619  19.292  0.00  0.00    +0.000 C 
ATOM     15  C   UNL     1       0.966  11.862  19.761  0.00  0.00    +0.000 C 
ATOM     16  N   UNL     1       1.489  12.274  20.953  0.00  0.00    +0.000 N 
ATOM     17  C   UNL     1       1.425  13.653  21.044  0.00  0.00    +0.000 C 
ATOM     18  O   UNL     1       1.813  14.322  21.985  0.00  0.00    +0.000 OA
ATOM     19  N   UNL     1       0.850  14.122  19.892  0.00  0.00    +0.000 N 
ATOM     20  C   UNL     1       0.547  13.104  19.030  0.00  0.00    +0.000 C 
ATOM     21  O   UNL     1       0.035  13.179  17.933  0.00  0.00    +0.000 OA
ATOM     22  H   UNL     1       1.924  11.698  21.656  0.00  0.00    +0.000 HD
ATOM     23  H   UNL     1       0.683  15.096  19.708  0.00  0.00    +0.000 HD
ENDBRANCH   9  14
BRANCH   5  24
ATOM     24  C   UNL     1       2.239   3.718  20.711  0.00  0.00    +0.000 C 
ATOM     25  C   UNL     1       1.679   2.652  21.613  0.00  0.00    +0.000 C 
ATOM     26  C   UNL     1       0.960   3.012  20.346  0.00  0.00    +0.000 C 
ENDBRANCH   5  24
BRANCH   1  27
ATOM     27  C   UNL     1       4.746   5.781  16.741  0.00  0.00    +0.000 C 
BRANCH  27  34
ATOM     28  C   UNL     1       8.493   8.899  18.032  0.00  0.00    +0.000 C 
ATOM     29  C   UNL     1       7.798   7.579  18.191  0.00  0.00    +0.000 A 
ATOM     30  C   UNL     1       8.267   6.625  19.101  0.00  0.00    +0.000 A 
ATOM     31  C   UNL     1       7.589   5.416  19.253  0.00  0.00    +0.000 A 
ATOM     32  C   UNL     1       6.449   5.161  18.496  0.00  0.00    +0.000 A 
ATOM     33  F   UNL     1       5.820   3.988  18.660  0.00  0.00    +0.000 F 
ATOM     34  C   UNL     1       5.964   6.083  17.569  0.00  0.00    +0.000 A 
ATOM     35  C   UNL     1       6.648   7.295  17.440  0.00  0.00    +0.000 A 
ATOM     36  F   UNL     1       6.198   8.220  16.578  0.00  0.00    +0.000 F 
ENDBRANCH  27  34
ENDBRANCH   1  27
TORSDOF 4
ENDMDL
MODEL 3
REMARK VINA RESULT:      -8.2      0.467      1.657
REMARK  Name = 
REMARK  5 active torsions:
REMARK  status: ('A' for Active; 'I' for Inactive)
REMARK    1  A    between atoms: C_1  and  C_2
REMARK    2  A    between atoms: C_7  and  C_8
REMARK    3  A    between atoms: C_8  and  N_9
REMARK    4  A    between atoms: N_13  and  C_14
REMARK    5  A    between atoms: C_20  and  C_21
REMARK                            x       y       z     vdW  Elec       q    Type
REMARK                         _______ _______ _______ _____ _____    ______ ____
ROOT
ATOM      1  N   UNL     1       3.433   6.875  17.302  0.00  0.00    +0.000 N 
ATOM      2  C   UNL     1       2.710   7.052  18.435  0.00  0.00    +0.000 A 
ATOM      3  N   UNL     1       2.551   5.983  19.292  0.00  0.00    +0.000 NA
ATOM      4  C   UNL     1       1.898   6.144  20.407  0.00  0.00    +0.000 A 
ATOM      5  N   UNL     1       1.658   5.139  21.335  0.00  0.00    +0.000 N 
ATOM      6  N   UNL     1       1.393   7.423  20.686  0.00  0.00    +0.000 N 
ATOM      7  N   UNL     1       0.702   7.746  21.807  0.00  0.00    +0.000 NA
ATOM      8  C   UNL     1       0.387   9.032  21.590  0.00  0.00    +0.000 A 
ATOM      9  C   UNL     1       0.881   9.523  20.356  0.00  0.00    +0.000 A 
ATOM     10  C   UNL     1       1.531   8.446  19.790  0.00  0.00    +0.000 A 
ATOM     11  N   UNL     1       2.206   8.244  18.632  0.00  0.00    +0.000 NA
ATOM     12  H   UNL     1       3.465   7.675  16.687  0.00  0.00    +0.000 HD
ATOM     13  H   UNL     1       1.060   5.431  22.109  0.00  0.00    +0.000 HD
ENDROOT
BRANCH   9  14
ATOM     14  C   UNL     1       0.714  10.794  19.729  0.00  0.00    +0.000 C 
ATOM     15  C   UNL     1      -0.268  11.177  18.908  0.00  0.00    +0.000 C 
ATOM     16  N   UNL     1      -1.391  10.495  18.540  0.00  0.00    +0.000 N 
ATOM     17  C   UNL     1      -2.136  11.255  17.657  0.00  0.00    +0.000 C 
ATOM     18  O   UNL     1      -3.192  10.923  17.148  0.00  0.00    +0.000 OA
ATOM     19  N   UNL     1      -1.473  12.437  17.460  0.00  0.00    +0.000 N 
ATOM     20  C   UNL     1      -0.322  12.497  18.198  0.00  0.00    +0.000 C 
ATOM     21  O   UNL     1       0.487  13.400  18.251  0.00  0.00    +0.000 OA
ATOM     22  H   UNL     1      -1.699   9.600  18.888  0.00  0.00    +0.000 HD
ATOM     23  H   UNL     1      -1.802  13.169  16.854  0.00  0.00    +0.000 HD
ENDBRANCH   9  14
BRANCH   5  24
ATOM     24  C   UNL     1       1.580   3.752  20.866  0.00  0.00    +0.000 C 
ATOM     25  C   UNL     1       2.781   2.848  20.915  0.00  0.00    +0.000 C 
ATOM     26  C   UNL     1       1.623   2.603  21.838  0.00  0.00    +0.000 C 
ENDBRANCH   5  24
BRANCH   1  27
ATOM     27  C   UNL     1       4.379   5.807  17.093  0.00  0.00    +0.000 C 
BRANCH  27  34
ATOM     28  C   UNL     1       8.117   5.227  20.428  0.00  0.00    +0.000 C 
ATOM     29  C   UNL     1       7.551   5.934  19.232  0.00  0.00    +0.000 A 
ATOM     30  C   UNL     1       8.271   6.946  18.587  0.00  0.00    +0.000 A 
ATOM     31  C   UNL     1       7.739   7.569  17.460  0.00  0.00    +0.000 A 
ATOM     32  C   UNL     1       6.489   7.185  16.981  0.00  0.00    +0.000 A 
ATOM     33  F   UNL     1       6.000   7.806  15.897  0.00  0.00    +0.000 F 
ATOM     34  C   UNL     1       5.738   6.192  17.609  0.00  0.00    +0.000 A 
ATOM     35  C   UNL     1       6.294   5.568  18.729  0.00  0.00    +0.000 A 
ATOM     36  F   UNL     1       5.614   4.589  19.345  0.00  0.00    +0.000 F 
ENDBRANCH  27  34
ENDBRANCH   1  27
TORSDOF 4
ENDMDL
MODEL 4
REMARK VINA RESULT:      -8.1      5.631      8.583
REMARK  Name = 
REMARK  5 active torsions:
REMARK  status: ('A' for Active; 'I' for Inactive)
REMARK    1  A    between atoms: C_1  and  C_2
REMARK    2  A    between atoms: C_7  and  C_8
REMARK    3  A    between atoms: C_8  and  N_9
REMARK    4  A    between atoms: N_13  and  C_14
REMARK    5  A    between atoms: C_20  and  C_21
REMARK                            x       y       z     vdW  Elec       q    Type
REMARK                         _______ _______ _______ _____ _____    ______ ____
ROOT
ATOM      1  N   UNL     1      -1.587  12.583  19.374  0.00  0.00    +0.000 N 
ATOM      2  C   UNL     1      -2.851  12.300  18.973  0.00  0.00    +0.000 A 
ATOM      3  N   UNL     1      -3.033  11.630  17.782  0.00  0.00    +0.000 NA
ATOM      4  C   UNL     1      -4.236  11.309  17.401  0.00  0.00    +0.000 A 
ATOM      5  N   UNL     1      -4.542  10.655  16.215  0.00  0.00    +0.000 N 
ATOM      6  N   UNL     1      -5.300  11.659  18.245  0.00  0.00    +0.000 N 
ATOM      7  N   UNL     1      -6.603  11.386  17.990  0.00  0.00    +0.000 NA
ATOM      8  C   UNL     1      -7.227  11.960  19.029  0.00  0.00    +0.000 A 
ATOM      9  C   UNL     1      -6.334  12.577  19.940  0.00  0.00    +0.000 A 
ATOM     10  C   UNL     1      -5.084  12.365  19.397  0.00  0.00    +0.000 A 
ATOM     11  N   UNL     1      -3.820  12.694  19.760  0.00  0.00    +0.000 NA
ATOM     12  H   UNL     1      -1.520  13.126  20.223  0.00  0.00    +0.000 HD
ATOM     13  H   UNL     1      -5.544  10.559  16.047  0.00  0.00    +0.000 HD
ENDROOT
BRANCH   9  14
ATOM     14  C   UNL     1      -6.590  13.339  21.119  0.00  0.00    +0.000 C 
ATOM     15  C   UNL     1      -6.064  13.165  22.334  0.00  0.00    +0.000 C 
ATOM     16  N   UNL     1      -5.094  12.289  22.730  0.00  0.00    +0.000 N 
ATOM     17  C   UNL     1      -4.857  12.429  24.085  0.00  0.00    +0.000 C 
ATOM     18  O   UNL     1      -4.049  11.791  24.736  0.00  0.00    +0.000 OA
ATOM     19  N   UNL     1      -5.692  13.408  24.557  0.00  0.00    +0.000 N 
ATOM     20  C   UNL     1      -6.462  13.937  23.557  0.00  0.00    +0.000 C 
ATOM     21  O   UNL     1      -7.296  14.814  23.639  0.00  0.00    +0.000 OA
ATOM     22  H   UNL     1      -4.563  11.666  22.142  0.00  0.00    +0.000 HD
ATOM     23  H   UNL     1      -5.722  13.702  25.518  0.00  0.00    +0.000 HD
ENDBRANCH   9  14
BRANCH   5  24
ATOM     24  C   UNL     1      -3.646  10.822  15.067  0.00  0.00    +0.000 C 
ATOM     25  C   UNL     1      -2.640   9.763  14.707  0.00  0.00    +0.000 C 
ATOM     26  C   UNL     1      -3.825  10.000  13.818  0.00  0.00    +0.000 C 
ENDBRANCH   5  24
BRANCH   1  27
ATOM     27  C   UNL     1      -0.405  11.915  18.888  0.00  0.00    +0.000 C 
BRANCH  27  34
ATOM     28  C   UNL     1      -0.421   9.813  23.472  0.00  0.00    +0.000 C 
ATOM     29  C   UNL     1       0.003   9.772  22.033  0.00  0.00    +0.000 A 
ATOM     30  C   UNL     1       0.759   8.704  21.537  0.00  0.00    +0.000 A 
ATOM     31  C   UNL     1       1.118   8.673  20.190  0.00  0.00    +0.000 A 
ATOM     32  C   UNL     1       0.727   9.707  19.344  0.00  0.00    +0.000 A 
ATOM     33  F   UNL     1       1.091   9.652  18.055  0.00  0.00    +0.000 F 
ATOM     34  C   UNL     1      -0.012  10.794  19.810  0.00  0.00    +0.000 A 
ATOM     35  C   UNL     1      -0.376  10.801  21.160  0.00  0.00    +0.000 A 
ATOM     36  F   UNL     1      -1.110  11.817  21.641  0.00  0.00    +0.000 F 
ENDBRANCH  27  34
ENDBRANCH   1  27
TORSDOF 4
ENDMDL
MODEL 5
REMARK VINA RESULT:      -8.1      4.012      7.877
REMARK  Name = 
REMARK  5 active torsions:
REMARK  status: ('A' for Active; 'I' for Inactive)
REMARK    1  A    between atoms: C_1  and  C_2
REMARK    2  A    between atoms: C_7  and  C_8
REMARK    3  A    between atoms: C_8  and  N_9
REMARK    4  A    between atoms: N_13  and  C_14
REMARK    5  A    between atoms: C_20  and  C_21
REMARK                            x       y       z     vdW  Elec       q    Type
REMARK                         _______ _______ _______ _____ _____    ______ ____
ROOT
ATOM      1  N   UNL     1       1.867  10.885  17.818  0.00  0.00    +0.000 N 
ATOM      2  C   UNL     1       1.955   9.705  18.479  0.00  0.00    +0.000 A 
ATOM      3  N   UNL     1       1.342   9.588  19.709  0.00  0.00    +0.000 NA
ATOM      4  C   UNL     1       1.377   8.450  20.340  0.00  0.00    +0.000 A 
ATOM      5  N   UNL     1       0.815   8.221  21.590  0.00  0.00    +0.000 N 
ATOM      6  N   UNL     1       2.038   7.381  19.717  0.00  0.00    +0.000 N 
ATOM      7  N   UNL     1       2.149   6.137  20.244  0.00  0.00    +0.000 NA
ATOM      8  C   UNL     1       2.900   5.504  19.331  0.00  0.00    +0.000 A 
ATOM      9  C   UNL     1       3.250   6.327  18.233  0.00  0.00    +0.000 A 
ATOM     10  C   UNL     1       2.673   7.547  18.518  0.00  0.00    +0.000 A 
ATOM     11  N   UNL     1       2.629   8.749  17.891  0.00  0.00    +0.000 NA
ATOM     12  H   UNL     1       2.384  10.928  16.951  0.00  0.00    +0.000 HD
ATOM     13  H   UNL     1       1.011   7.292  21.962  0.00  0.00    +0.000 HD
ENDROOT
BRANCH   9  14
ATOM     14  C   UNL     1       4.077   6.063  17.101  0.00  0.00    +0.000 C 
ATOM     15  C   UNL     1       5.330   5.601  17.094  0.00  0.00    +0.000 C 
ATOM     16  N   UNL     1       6.094   5.182  18.146  0.00  0.00    +0.000 N 
ATOM     17  C   UNL     1       7.344   4.796  17.697  0.00  0.00    +0.000 C 
ATOM     18  O   UNL     1       8.251   4.375  18.392  0.00  0.00    +0.000 OA
ATOM     19  N   UNL     1       7.374   4.976  16.339  0.00  0.00    +0.000 N 
ATOM     20  C   UNL     1       6.180   5.449  15.867  0.00  0.00    +0.000 C 
ATOM     21  O   UNL     1       5.878   5.712  14.722  0.00  0.00    +0.000 OA
ATOM     22  H   UNL     1       5.804   5.091  19.107  0.00  0.00    +0.000 HD
ATOM     23  H   UNL     1       8.175   4.774  15.766  0.00  0.00    +0.000 HD
ENDBRANCH   9  14
BRANCH   5  24
ATOM     24  C   UNL     1       0.691   9.345  22.523  0.00  0.00    +0.000 C 
ATOM     25  C   UNL     1      -0.378  10.387  22.345  0.00  0.00    +0.000 C 
ATOM     26  C   UNL     1      -0.457   9.424  23.493  0.00  0.00    +0.000 C 
ENDBRANCH   5  24
BRANCH   1  27
ATOM     27  C   UNL     1       0.875  11.898  18.079  0.00  0.00    +0.000 C 
BRANCH  27  34
ATOM     28  C   UNL     1       0.123  14.602  22.268  0.00  0.00    +0.000 C 
ATOM     29  C   UNL     1       1.014  14.208  21.128  0.00  0.00    +0.000 A 
ATOM     30  C   UNL     1       2.304  14.737  21.007  0.00  0.00    +0.000 A 
ATOM     31  C   UNL     1       3.126  14.335  19.955  0.00  0.00    +0.000 A 
ATOM     32  C   UNL     1       2.658  13.411  19.025  0.00  0.00    +0.000 A 
ATOM     33  F   UNL     1       3.470  13.047  18.021  0.00  0.00    +0.000 F 
ATOM     34  C   UNL     1       1.373  12.877  19.106  0.00  0.00    +0.000 A 
ATOM     35  C   UNL     1       0.568  13.280  20.176  0.00  0.00    +0.000 A 
ATOM     36  F   UNL     1      -0.666  12.769  20.304  0.00  0.00    +0.000 F 
ENDBRANCH  27  34
ENDBRANCH   1  27
TORSDOF 4
ENDMDL
MODEL 6
REMARK VINA RESULT:      -8.0      4.023      7.727
REMARK  Name = 
REMARK  5 active torsions:
REMARK  status: ('A' for Active; 'I' for Inactive)
REMARK    1  A    between atoms: C_1  and  C_2
REMARK    2  A    between atoms: C_7  and  C_8
REMARK    3  A    between atoms: C_8  and  N_9
REMARK    4  A    between atoms: N_13  and  C_14
REMARK    5  A    between atoms: C_20  and  C_21
REMARK                            x       y       z     vdW  Elec       q    Type
REMARK                         _______ _______ _______ _____ _____    ______ ____
ROOT
ATOM      1  N   UNL     1       1.713  10.831  17.771  0.00  0.00    +0.000 N 
ATOM      2  C   UNL     1       1.860   9.668  18.452  0.00  0.00    +0.000 A 
ATOM      3  N   UNL     1       1.279   9.551  19.696  0.00  0.00    +0.000 NA
ATOM      4  C   UNL     1       1.372   8.427  20.347  0.00  0.00    +0.000 A 
ATOM      5  N   UNL     1       0.846   8.201  21.613  0.00  0.00    +0.000 N 
ATOM      6  N   UNL     1       2.059   7.373  19.728  0.00  0.00    +0.000 N 
ATOM      7  N   UNL     1       2.229   6.143  20.275  0.00  0.00    +0.000 NA
ATOM      8  C   UNL     1       2.985   5.522  19.356  0.00  0.00    +0.000 A 
ATOM      9  C   UNL     1       3.279   6.338  18.236  0.00  0.00    +0.000 A 
ATOM     10  C   UNL     1       2.662   7.541  18.512  0.00  0.00    +0.000 A 
ATOM     11  N   UNL     1       2.558   8.728  17.866  0.00  0.00    +0.000 NA
ATOM     12  H   UNL     1       2.209  10.878  16.892  0.00  0.00    +0.000 HD
ATOM     13  H   UNL     1       1.086   7.286  21.997  0.00  0.00    +0.000 HD
ENDROOT
BRANCH   9  14
ATOM     14  C   UNL     1       4.090   6.085  17.091  0.00  0.00    +0.000 C 
ATOM     15  C   UNL     1       5.337   5.606  17.063  0.00  0.00    +0.000 C 
ATOM     16  N   UNL     1       6.106   5.158  18.098  0.00  0.00    +0.000 N 
ATOM     17  C   UNL     1       7.346   4.764  17.629  0.00  0.00    +0.000 C 
ATOM     18  O   UNL     1       8.254   4.317  18.307  0.00  0.00    +0.000 OA
ATOM     19  N   UNL     1       7.364   4.968  16.274  0.00  0.00    +0.000 N 
ATOM     20  C   UNL     1       6.172   5.467  15.824  0.00  0.00    +0.000 C 
ATOM     21  O   UNL     1       5.862   5.754  14.687  0.00  0.00    +0.000 OA
ATOM     22  H   UNL     1       5.825   5.052  19.060  0.00  0.00    +0.000 HD
ATOM     23  H   UNL     1       8.157   4.767  15.689  0.00  0.00    +0.000 HD
ENDBRANCH   9  14
BRANCH   5  24
ATOM     24  C   UNL     1       0.700   9.336  22.528  0.00  0.00    +0.000 C 
ATOM     25  C   UNL     1      -0.333  10.402  22.284  0.00  0.00    +0.000 C 
ATOM     26  C   UNL     1      -0.497   9.452  23.433  0.00  0.00    +0.000 C 
ENDBRANCH   5  24
BRANCH   1  27
ATOM     27  C   UNL     1       0.689  11.811  18.037  0.00  0.00    +0.000 C 
BRANCH  27  34
ATOM     28  C   UNL     1       4.300  14.836  19.837  0.00  0.00    +0.000 C 
ATOM     29  C   UNL     1       2.913  14.273  19.945  0.00  0.00    +0.000 A 
ATOM     30  C   UNL     1       2.055  14.670  20.976  0.00  0.00    +0.000 A 
ATOM     31  C   UNL     1       0.760  14.155  21.041  0.00  0.00    +0.000 A 
ATOM     32  C   UNL     1       0.328  13.244  20.081  0.00  0.00    +0.000 A 
ATOM     33  F   UNL     1      -0.920  12.763  20.172  0.00  0.00    +0.000 F 
ATOM     34  C   UNL     1       1.163  12.814  19.050  0.00  0.00    +0.000 A 
ATOM     35  C   UNL     1       2.453  13.352  18.993  0.00  0.00    +0.000 A 
ATOM     36  F   UNL     1       3.278  12.984  18.001  0.00  0.00    +0.000 F 
ENDBRANCH  27  34
ENDBRANCH   1  27
TORSDOF 4
ENDMDL
MODEL 7
REMARK VINA RESULT:      -8.0      2.049      4.754
REMARK  Name = 
REMARK  5 active torsions:
REMARK  status: ('A' for Active; 'I' for Inactive)
REMARK    1  A    between atoms: C_1  and  C_2
REMARK    2  A    between atoms: C_7  and  C_8
REMARK    3  A    between atoms: C_8  and  N_9
REMARK    4  A    between atoms: N_13  and  C_14
REMARK    5  A    between atoms: C_20  and  C_21
REMARK                            x       y       z     vdW  Elec       q    Type
REMARK                         _______ _______ _______ _____ _____    ______ ____
ROOT
ATOM      1  N   UNL     1       2.176   5.346  21.526  0.00  0.00    +0.000 N 
ATOM      2  C   UNL     1       2.480   6.118  20.454  0.00  0.00    +0.000 A 
ATOM      3  N   UNL     1       3.516   5.729  19.631  0.00  0.00    +0.000 NA
ATOM      4  C   UNL     1       3.795   6.433  18.572  0.00  0.00    +0.000 A 
ATOM      5  N   UNL     1       4.825   6.151  17.684  0.00  0.00    +0.000 N 
ATOM      6  N   UNL     1       3.005   7.563  18.316  0.00  0.00    +0.000 N 
ATOM      7  N   UNL     1       3.167   8.387  17.250  0.00  0.00    +0.000 NA
ATOM      8  C   UNL     1       2.240   9.330  17.473  0.00  0.00    +0.000 A 
ATOM      9  C   UNL     1       1.490   9.104  18.652  0.00  0.00    +0.000 A 
ATOM     10  C   UNL     1       2.016   7.944  19.180  0.00  0.00    +0.000 A 
ATOM     11  N   UNL     1       1.757   7.196  20.281  0.00  0.00    +0.000 NA
ATOM     12  H   UNL     1       1.448   5.712  22.124  0.00  0.00    +0.000 HD
ATOM     13  H   UNL     1       4.944   6.858  16.958  0.00  0.00    +0.000 HD
ENDROOT
BRANCH   9  14
ATOM     14  C   UNL     1       0.472   9.890  19.270  0.00  0.00    +0.000 C 
ATOM     15  C   UNL     1      -0.602  10.436  18.693  0.00  0.00    +0.000 C 
ATOM     16  N   UNL     1      -1.042  10.306  17.407  0.00  0.00    +0.000 N 
ATOM     17  C   UNL     1      -2.190  11.055  17.223  0.00  0.00    +0.000 C 
ATOM     18  O   UNL     1      -2.822  11.146  16.186  0.00  0.00    +0.000 OA
ATOM     19  N   UNL     1      -2.480  11.673  18.411  0.00  0.00    +0.000 N 
ATOM     20  C   UNL     1      -1.576  11.344  19.384  0.00  0.00    +0.000 C 
ATOM     21  O   UNL     1      -1.548  11.717  20.538  0.00  0.00    +0.000 OA
ATOM     22  H   UNL     1      -0.655   9.711  16.691  0.00  0.00    +0.000 HD
ATOM     23  H   UNL     1      -3.267  12.285  18.546  0.00  0.00    +0.000 HD
ENDBRANCH   9  14
BRANCH   5  24
ATOM     24  C   UNL     1       6.008   5.441  18.180  0.00  0.00    +0.000 C 
ATOM     25  C   UNL     1       6.953   4.752  17.234  0.00  0.00    +0.000 C 
ATOM     26  C   UNL     1       7.391   5.991  17.957  0.00  0.00    +0.000 C 
ENDBRANCH   5  24
BRANCH   1  27
ATOM     27  C   UNL     1       2.557   3.963  21.673  0.00  0.00    +0.000 C 
BRANCH  27  34
ATOM     28  C   UNL     1       4.264   1.047  17.930  0.00  0.00    +0.000 C 
ATOM     29  C   UNL     1       3.136   1.807  18.564  0.00  0.00    +0.000 A 
ATOM     30  C   UNL     1       1.863   1.821  17.985  0.00  0.00    +0.000 A 
ATOM     31  C   UNL     1       0.823   2.510  18.606  0.00  0.00    +0.000 A 
ATOM     32  C   UNL     1       1.056   3.186  19.800  0.00  0.00    +0.000 A 
ATOM     33  F   UNL     1       0.037   3.845  20.373  0.00  0.00    +0.000 F 
ATOM     34  C   UNL     1       2.316   3.207  20.396  0.00  0.00    +0.000 A 
ATOM     35  C   UNL     1       3.344   2.498  19.767  0.00  0.00    +0.000 A 
ATOM     36  F   UNL     1       4.565   2.471  20.323  0.00  0.00    +0.000 F 
ENDBRANCH  27  34
ENDBRANCH   1  27
TORSDOF 4
ENDMDL
MODEL 8
REMARK VINA RESULT:      -8.0      3.673      7.509
REMARK  Name = 
REMARK  5 active torsions:
REMARK  status: ('A' for Active; 'I' for Inactive)
REMARK    1  A    between atoms: C_1  and  C_2
REMARK    2  A    between atoms: C_7  and  C_8
REMARK    3  A    between atoms: C_8  and  N_9
REMARK    4  A    between atoms: N_13  and  C_14
REMARK    5  A    between atoms: C_20  and  C_21
REMARK                            x       y       z     vdW  Elec       q    Type
REMARK                         _______ _______ _______ _____ _____    ______ ____
ROOT
ATOM      1  N   UNL     1       1.538  10.007  17.618  0.00  0.00    +0.000 N 
ATOM      2  C   UNL     1       1.741   8.954  18.447  0.00  0.00    +0.000 A 
ATOM      3  N   UNL     1       1.275   9.031  19.742  0.00  0.00    +0.000 NA
ATOM      4  C   UNL     1       1.421   8.013  20.541  0.00  0.00    +0.000 A 
ATOM      5  N   UNL     1       1.011   7.984  21.867  0.00  0.00    +0.000 N 
ATOM      6  N   UNL     1       2.045   6.868  20.026  0.00  0.00    +0.000 N 
ATOM      7  N   UNL     1       2.259   5.729  20.731  0.00  0.00    +0.000 NA
ATOM      8  C   UNL     1       2.926   4.967  19.850  0.00  0.00    +0.000 A 
ATOM      9  C   UNL     1       3.121   5.605  18.601  0.00  0.00    +0.000 A 
ATOM     10  C   UNL     1       2.536   6.845  18.750  0.00  0.00    +0.000 A 
ATOM     11  N   UNL     1       2.380   7.926  17.947  0.00  0.00    +0.000 NA
ATOM     12  H   UNL     1       1.953   9.916  16.702  0.00  0.00    +0.000 HD
ATOM     13  H   UNL     1       1.281   7.132  22.360  0.00  0.00    +0.000 HD
ENDROOT
BRANCH   9  14
ATOM     14  C   UNL     1       3.824   5.172  17.438  0.00  0.00    +0.000 C 
ATOM     15  C   UNL     1       5.010   5.597  16.994  0.00  0.00    +0.000 C 
ATOM     16  N   UNL     1       5.880   6.472  17.580  0.00  0.00    +0.000 N 
ATOM     17  C   UNL     1       6.988   6.647  16.772  0.00  0.00    +0.000 C 
ATOM     18  O   UNL     1       7.941   7.365  17.017  0.00  0.00    +0.000 OA
ATOM     19  N   UNL     1       6.817   5.874  15.654  0.00  0.00    +0.000 N 
ATOM     20  C   UNL     1       5.642   5.174  15.701  0.00  0.00    +0.000 C 
ATOM     21  O   UNL     1       5.196   4.404  14.877  0.00  0.00    +0.000 OA
ATOM     22  H   UNL     1       5.793   6.894  18.492  0.00  0.00    +0.000 HD
ATOM     23  H   UNL     1       7.482   5.825  14.901  0.00  0.00    +0.000 HD
ENDBRANCH   9  14
BRANCH   5  24
ATOM     24  C   UNL     1       0.953   9.244  22.615  0.00  0.00    +0.000 C 
ATOM     25  C   UNL     1      -0.344   9.984  22.788  0.00  0.00    +0.000 C 
ATOM     26  C   UNL     1       0.295   9.312  23.967  0.00  0.00    +0.000 C 
ENDBRANCH   5  24
BRANCH   1  27
ATOM     27  C   UNL     1       0.546  11.033  17.826  0.00  0.00    +0.000 C 
BRANCH  27  34
ATOM     28  C   UNL     1      -0.220  13.617  22.088  0.00  0.00    +0.000 C 
ATOM     29  C   UNL     1       0.650  13.302  20.907  0.00  0.00    +0.000 A 
ATOM     30  C   UNL     1       1.895  13.919  20.746  0.00  0.00    +0.000 A 
ATOM     31  C   UNL     1       2.700  13.590  19.657  0.00  0.00    +0.000 A 
ATOM     32  C   UNL     1       2.259  12.650  18.729  0.00  0.00    +0.000 A 
ATOM     33  F   UNL     1       3.053  12.356  17.689  0.00  0.00    +0.000 F 
ATOM     34  C   UNL     1       1.017  12.028  18.850  0.00  0.00    +0.000 A 
ATOM     35  C   UNL     1       0.230  12.360  19.957  0.00  0.00    +0.000 A 
ATOM     36  F   UNL     1      -0.960  11.763  20.124  0.00  0.00    +0.000 F 
ENDBRANCH  27  34
ENDBRANCH   1  27
TORSDOF 4
ENDMDL
MODEL 9
REMARK VINA RESULT:      -7.9      3.123      5.657
REMARK  Name = 
REMARK  5 active torsions:
REMARK  status: ('A' for Active; 'I' for Inactive)
REMARK    1  A    between atoms: C_1  and  C_2
REMARK    2  A    between atoms: C_7  and  C_8
REMARK    3  A    between atoms: C_8  and  N_9
REMARK    4  A    between atoms: N_13  and  C_14
REMARK    5  A    between atoms: C_20  and  C_21
REMARK                            x       y       z     vdW  Elec       q    Type
REMARK                         _______ _______ _______ _____ _____    ______ ____
ROOT
ATOM      1  N   UNL     1       2.187   9.161  18.181  0.00  0.00    +0.000 N 
ATOM      2  C   UNL     1       1.173  10.013  18.471  0.00  0.00    +0.000 A 
ATOM      3  N   UNL     1      -0.052   9.810  17.873  0.00  0.00    +0.000 NA
ATOM      4  C   UNL     1      -1.051  10.591  18.172  0.00  0.00    +0.000 A 
ATOM      5  N   UNL     1      -2.321  10.496  17.619  0.00  0.00    +0.000 N 
ATOM      6  N   UNL     1      -0.823  11.606  19.112  0.00  0.00    +0.000 N 
ATOM      7  N   UNL     1      -1.765  12.488  19.530  0.00  0.00    +0.000 NA
ATOM      8  C   UNL     1      -1.068  13.280  20.359  0.00  0.00    +0.000 A 
ATOM      9  C   UNL     1       0.291  12.900  20.478  0.00  0.00    +0.000 A 
ATOM     10  C   UNL     1       0.418  11.805  19.649  0.00  0.00    +0.000 A 
ATOM     11  N   UNL     1       1.441  10.983  19.308  0.00  0.00    +0.000 NA
ATOM     12  H   UNL     1       3.075   9.394  18.603  0.00  0.00    +0.000 HD
ATOM     13  H   UNL     1      -2.952  11.242  17.913  0.00  0.00    +0.000 HD
ENDROOT
BRANCH   9  14
ATOM     14  C   UNL     1       1.365  13.507  21.195  0.00  0.00    +0.000 C 
ATOM     15  C   UNL     1       2.507  13.992  20.700  0.00  0.00    +0.000 C 
ATOM     16  N   UNL     1       2.891  14.114  19.396  0.00  0.00    +0.000 N 
ATOM     17  C   UNL     1       4.163  14.654  19.327  0.00  0.00    +0.000 C 
ATOM     18  O   UNL     1       4.783  14.886  18.305  0.00  0.00    +0.000 OA
ATOM     19  N   UNL     1       4.593  14.875  20.609  0.00  0.00    +0.000 N 
ATOM     20  C   UNL     1       3.643  14.518  21.527  0.00  0.00    +0.000 C 
ATOM     21  O   UNL     1       3.706  14.588  22.737  0.00  0.00    +0.000 OA
ATOM     22  H   UNL     1       2.335  13.914  18.579  0.00  0.00    +0.000 HD
ATOM     23  H   UNL     1       5.493  15.259  20.838  0.00  0.00    +0.000 HD
ENDBRANCH   9  14
BRANCH   5  24
ATOM     24  C   UNL     1      -2.463   9.941  16.269  0.00  0.00    +0.000 C 
ATOM     25  C   UNL     1      -3.820   9.685  15.674  0.00  0.00    +0.000 C 
ATOM     26  C   UNL     1      -2.963  10.791  15.132  0.00  0.00    +0.000 C 
ENDBRANCH   5  24
BRANCH   1  27
ATOM     27  C   UNL     1       2.015   7.841  17.626  0.00  0.00    +0.000 C 
BRANCH  27  34
ATOM     28  C   UNL     1       6.518   5.678  16.942  0.00  0.00    +0.000 C 
ATOM     29  C   UNL     1       5.279   5.848  17.771  0.00  0.00    +0.000 A 
ATOM     30  C   UNL     1       5.123   5.162  18.981  0.00  0.00    +0.000 A 
ATOM     31  C   UNL     1       3.976   5.357  19.749  0.00  0.00    +0.000 A 
ATOM     32  C   UNL     1       2.988   6.232  19.308  0.00  0.00    +0.000 A 
ATOM     33  F   UNL     1       1.893   6.396  20.065  0.00  0.00    +0.000 F 
ATOM     34  C   UNL     1       3.103   6.919  18.100  0.00  0.00    +0.000 A 
ATOM     35  C   UNL     1       4.267   6.722  17.350  0.00  0.00    +0.000 A 
ATOM     36  F   UNL     1       4.428   7.385  16.194  0.00  0.00    +0.000 F 
ENDBRANCH  27  34
ENDBRANCH   1  27
TORSDOF 4
ENDMDL
