MODEL 1
REMARK VINA RESULT:      -7.1      0.000      0.000
REMARK  Name = 
REMARK  6 active torsions:
REMARK  status: ('A' for Active; 'I' for Inactive)
REMARK    1  A    between atoms: C_1  and  C_2
REMARK    2  A    between atoms: N_4  and  C_5
REMARK    3  A    between atoms: C_5  and  C_6
REMARK    4  A    between atoms: C_9  and  C_10
REMARK    5  A    between atoms: N_17  and  C_18
REMARK    6  A    between atoms: C_18  and  C_19
REMARK                            x       y       z     vdW  Elec       q    Type
REMARK                         _______ _______ _______ _____ _____    ______ ____
ROOT
ATOM      1  C   UNL     1       4.255   4.817  16.584  0.00  0.00    +0.000 A 
ATOM      2  C   UNL     1       3.408   3.786  16.926  0.00  0.00    +0.000 A 
ATOM      3  S   UNL     1       2.297   4.331  18.111  0.00  0.00    +0.000 S 
ATOM      4  C   UNL     1       2.990   5.919  18.048  0.00  0.00    +0.000 A 
ATOM      5  N   UNL     1       2.515   6.962  18.763  0.00  0.00    +0.000 N 
ATOM      6  C   UNL     1       2.084   6.992  20.060  0.00  0.00    +0.000 C 
ATOM      7  N   UNL     1       2.261   6.062  20.934  0.00  0.00    +0.000 NA
ATOM      8  N   UNL     1       1.477   8.173  20.390  0.00  0.00    +0.000 N 
ATOM      9  N   UNL     1       3.991   6.032  17.198  0.00  0.00    +0.000 NA
ATOM     10  H   UNL     1       2.900   7.855  18.478  0.00  0.00    +0.000 HD
ATOM     11  H   UNL     1       2.776   5.287  20.505  0.00  0.00    +0.000 HD
ATOM     12  H   UNL     1       0.914   8.608  19.669  0.00  0.00    +0.000 HD
ENDROOT
BRANCH   1  16
ATOM     13  C   UNL     1       6.524   4.345  13.758  0.00  0.00    +0.000 A 
ATOM     14  C   UNL     1       7.451   4.544  14.759  0.00  0.00    +0.000 A 
ATOM     15  C   UNL     1       6.719   4.751  15.949  0.00  0.00    +0.000 A 
ATOM     16  C   UNL     1       5.381   4.657  15.618  0.00  0.00    +0.000 A 
ATOM     17  O   UNL     1       5.259   4.398  14.279  0.00  0.00    +0.000 OA
BRANCH  13  18
ATOM     18  C   UNL     1       6.655   4.139  12.297  0.00  0.00    +0.000 C 
BRANCH  18  22
ATOM     19  C   UNL     1       6.053   0.562  11.260  0.00  0.00    +0.000 C 
ATOM     20  C   UNL     1       5.720   2.012  11.487  0.00  0.00    +0.000 C 
ATOM     21  O   UNL     1       4.638   2.501  11.186  0.00  0.00    +0.000 OA
ATOM     22  N   UNL     1       6.752   2.718  12.059  0.00  0.00    +0.000 N 
ATOM     23  H   UNL     1       7.667   2.292  12.130  0.00  0.00    +0.000 HD
ENDBRANCH  18  22
ENDBRANCH  13  18
ENDBRANCH   1  16
BRANCH   8  24
ATOM     24  C   UNL     1       1.010   8.396  21.750  0.00  0.00    +0.000 C 
BRANCH  24  25
ATOM     25  C   UNL     1      -0.210   9.270  21.781  0.00  0.00    +0.000 C 
ATOM     26  C   UNL     1      -0.686   9.970  23.030  0.00  0.00    +0.000 C 
ATOM     27  C   UNL     1      -0.015  10.761  21.943  0.00  0.00    +0.000 C 
ENDBRANCH  24  25
ENDBRANCH   8  24
TORSDOF 5
ENDMDL
MODEL 2
REMARK VINA RESULT:      -7.1      2.626      3.150
REMARK  Name = 
REMARK  6 active torsions:
REMARK  status: ('A' for Active; 'I' for Inactive)
REMARK    1  A    between atoms: C_1  and  C_2
REMARK    2  A    between atoms: N_4  and  C_5
REMARK    3  A    between atoms: C_5  and  C_6
REMARK    4  A    between atoms: C_9  and  C_10
REMARK    5  A    between atoms: N_17  and  C_18
REMARK    6  A    between atoms: C_18  and  C_19
REMARK                            x       y       z     vdW  Elec       q    Type
REMARK                         _______ _______ _______ _____ _____    ______ ____
ROOT
ATOM      1  C   UNL     1       4.125   6.156  18.020  0.00  0.00    +0.000 A 
ATOM      2  C   UNL     1       3.629   5.737  19.233  0.00  0.00    +0.000 A 
ATOM      3  S   UNL     1       2.301   6.724  19.678  0.00  0.00    +0.000 S 
ATOM      4  C   UNL     1       2.448   7.611  18.196  0.00  0.00    +0.000 A 
ATOM      5  N   UNL     1       1.601   8.600  17.839  0.00  0.00    +0.000 N 
ATOM      6  C   UNL     1       1.071   9.598  18.608  0.00  0.00    +0.000 C 
ATOM      7  N   UNL     1       1.459   9.924  19.792  0.00  0.00    +0.000 NA
ATOM      8  N   UNL     1       0.089  10.300  17.963  0.00  0.00    +0.000 N 
ATOM      9  N   UNL     1       3.431   7.197  17.421  0.00  0.00    +0.000 NA
ATOM     10  H   UNL     1       1.702   8.888  16.873  0.00  0.00    +0.000 HD
ATOM     11  H   UNL     1       2.232   9.314  20.076  0.00  0.00    +0.000 HD
ATOM     12  H   UNL     1      -0.518   9.768  17.350  0.00  0.00    +0.000 HD
ENDROOT
BRANCH   1  16
ATOM     13  C   UNL     1       6.714   4.735  15.867  0.00  0.00    +0.000 A 
ATOM     14  C   UNL     1       7.356   4.637  17.083  0.00  0.00    +0.000 A 
ATOM     15  C   UNL     1       6.469   5.162  18.049  0.00  0.00    +0.000 A 
ATOM     16  C   UNL     1       5.324   5.544  17.376  0.00  0.00    +0.000 A 
ATOM     17  O   UNL     1       5.468   5.274  16.041  0.00  0.00    +0.000 OA
BRANCH  13  18
ATOM     18  C   UNL     1       7.136   4.415  14.483  0.00  0.00    +0.000 C 
BRANCH  18  22
ATOM     19  C   UNL     1       4.663   3.244  11.886  0.00  0.00    +0.000 C 
ATOM     20  C   UNL     1       6.016   3.527  12.479  0.00  0.00    +0.000 C 
ATOM     21  O   UNL     1       7.064   3.248  11.910  0.00  0.00    +0.000 OA
ATOM     22  N   UNL     1       5.947   4.122  13.717  0.00  0.00    +0.000 N 
ATOM     23  H   UNL     1       5.057   4.175  14.195  0.00  0.00    +0.000 HD
ENDBRANCH  18  22
ENDBRANCH  13  18
ENDBRANCH   1  16
BRANCH   8  24
ATOM     24  C   UNL     1      -0.544  11.435  18.616  0.00  0.00    +0.000 C 
BRANCH  24  25
ATOM     25  C   UNL     1      -1.782  11.874  17.890  0.00  0.00    +0.000 C 
ATOM     26  C   UNL     1      -2.778  10.902  17.305  0.00  0.00    +0.000 C 
ATOM     27  C   UNL     1      -3.119  11.653  18.561  0.00  0.00    +0.000 C 
ENDBRANCH  24  25
ENDBRANCH   8  24
TORSDOF 5
ENDMDL
MODEL 3
REMARK VINA RESULT:      -7.1      1.714      2.287
REMARK  Name = 
REMARK  6 active torsions:
REMARK  status: ('A' for Active; 'I' for Inactive)
REMARK    1  A    between atoms: C_1  and  C_2
REMARK    2  A    between atoms: N_4  and  C_5
REMARK    3  A    between atoms: C_5  and  C_6
REMARK    4  A    between atoms: C_9  and  C_10
REMARK    5  A    between atoms: N_17  and  C_18
REMARK    6  A    between atoms: C_18  and  C_19
REMARK                            x       y       z     vdW  Elec       q    Type
REMARK                         _______ _______ _______ _____ _____    ______ ____
ROOT
ATOM      1  C   UNL     1       4.157   5.518  18.380  0.00  0.00    +0.000 A 
ATOM      2  C   UNL     1       3.472   4.621  19.168  0.00  0.00    +0.000 A 
ATOM      3  S   UNL     1       2.182   5.425  19.959  0.00  0.00    +0.000 S 
ATOM      4  C   UNL     1       2.597   6.905  19.156  0.00  0.00    +0.000 A 
ATOM      5  N   UNL     1       1.889   8.047  19.297  0.00  0.00    +0.000 N 
ATOM      6  C   UNL     1       1.345   8.588  20.428  0.00  0.00    +0.000 C 
ATOM      7  N   UNL     1       1.599   8.220  21.636  0.00  0.00    +0.000 NA
ATOM      8  N   UNL     1       0.518   9.646  20.165  0.00  0.00    +0.000 N 
ATOM      9  N   UNL     1       3.636   6.803  18.351  0.00  0.00    +0.000 NA
ATOM     10  H   UNL     1       2.140   8.762  18.625  0.00  0.00    +0.000 HD
ATOM     11  H   UNL     1       2.275   7.451  21.622  0.00  0.00    +0.000 HD
ATOM     12  H   UNL     1      -0.043   9.582  19.324  0.00  0.00    +0.000 HD
ENDROOT
BRANCH   1  16
ATOM     13  C   UNL     1       6.756   4.740  15.932  0.00  0.00    +0.000 A 
ATOM     14  C   UNL     1       7.474   4.538  17.091  0.00  0.00    +0.000 A 
ATOM     15  C   UNL     1       6.592   4.809  18.161  0.00  0.00    +0.000 A 
ATOM     16  C   UNL     1       5.376   5.150  17.602  0.00  0.00    +0.000 A 
ATOM     17  O   UNL     1       5.471   5.100  16.236  0.00  0.00    +0.000 OA
BRANCH  13  18
ATOM     18  C   UNL     1       7.129   4.680  14.499  0.00  0.00    +0.000 C 
BRANCH  18  22
ATOM     19  C   UNL     1       4.926   3.004  11.935  0.00  0.00    +0.000 C 
ATOM     20  C   UNL     1       6.155   3.692  12.466  0.00  0.00    +0.000 C 
ATOM     21  O   UNL     1       7.153   3.890  11.785  0.00  0.00    +0.000 OA
ATOM     22  N   UNL     1       6.035   4.065  13.784  0.00  0.00    +0.000 N 
ATOM     23  H   UNL     1       5.251   3.727  14.328  0.00  0.00    +0.000 HD
ENDBRANCH  18  22
ENDBRANCH  13  18
ENDBRANCH   1  16
BRANCH   8  24
ATOM     24  C   UNL     1      -0.099  10.378  21.260  0.00  0.00    +0.000 C 
BRANCH  24  25
ATOM     25  C   UNL     1      -0.557  11.740  20.829  0.00  0.00    +0.000 C 
ATOM     26  C   UNL     1      -1.747  11.958  19.924  0.00  0.00    +0.000 C 
ATOM     27  C   UNL     1      -1.859  12.267  21.391  0.00  0.00    +0.000 C 
ENDBRANCH  24  25
ENDBRANCH   8  24
TORSDOF 5
ENDMDL
MODEL 4
REMARK VINA RESULT:      -6.9      2.596      4.400
REMARK  Name = 
REMARK  6 active torsions:
REMARK  status: ('A' for Active; 'I' for Inactive)
REMARK    1  A    between atoms: C_1  and  C_2
REMARK    2  A    between atoms: N_4  and  C_5
REMARK    3  A    between atoms: C_5  and  C_6
REMARK    4  A    between atoms: C_9  and  C_10
REMARK    5  A    between atoms: N_17  and  C_18
REMARK    6  A    between atoms: C_18  and  C_19
REMARK                            x       y       z     vdW  Elec       q    Type
REMARK                         _______ _______ _______ _____ _____    ______ ____
ROOT
ATOM      1  C   UNL     1       2.434   7.579  18.507  0.00  0.00    +0.000 A 
ATOM      2  C   UNL     1       2.331   8.664  17.666  0.00  0.00    +0.000 A 
ATOM      3  S   UNL     1       1.538   9.946  18.481  0.00  0.00    +0.000 S 
ATOM      4  C   UNL     1       1.431   8.981  19.918  0.00  0.00    +0.000 A 
ATOM      5  N   UNL     1       0.913   9.438  21.079  0.00  0.00    +0.000 N 
ATOM      6  C   UNL     1      -0.199  10.206  21.281  0.00  0.00    +0.000 C 
ATOM      7  N   UNL     1      -1.108  10.462  20.404  0.00  0.00    +0.000 NA
ATOM      8  N   UNL     1      -0.309  10.652  22.570  0.00  0.00    +0.000 N 
ATOM      9  N   UNL     1       1.952   7.777  19.793  0.00  0.00    +0.000 NA
ATOM     10  H   UNL     1       1.092   8.829  21.868  0.00  0.00    +0.000 HD
ATOM     11  H   UNL     1      -0.868  10.000  19.522  0.00  0.00    +0.000 HD
ATOM     12  H   UNL     1       0.556  10.895  23.038  0.00  0.00    +0.000 HD
ENDROOT
BRANCH   1  16
ATOM     13  C   UNL     1       4.449   4.735  17.410  0.00  0.00    +0.000 A 
ATOM     14  C   UNL     1       3.239   4.098  17.584  0.00  0.00    +0.000 A 
ATOM     15  C   UNL     1       2.326   5.082  18.023  0.00  0.00    +0.000 A 
ATOM     16  C   UNL     1       3.021   6.275  18.084  0.00  0.00    +0.000 A 
ATOM     17  O   UNL     1       4.319   6.066  17.700  0.00  0.00    +0.000 OA
BRANCH  13  18
ATOM     18  C   UNL     1       5.794   4.245  17.029  0.00  0.00    +0.000 C 
BRANCH  18  22
ATOM     19  C   UNL     1       6.483   4.000  13.328  0.00  0.00    +0.000 C 
ATOM     20  C   UNL     1       6.631   4.522  14.731  0.00  0.00    +0.000 C 
ATOM     21  O   UNL     1       7.445   5.385  15.038  0.00  0.00    +0.000 OA
ATOM     22  N   UNL     1       5.765   3.929  15.620  0.00  0.00    +0.000 N 
ATOM     23  H   UNL     1       5.237   3.115  15.333  0.00  0.00    +0.000 HD
ENDBRANCH  18  22
ENDBRANCH  13  18
ENDBRANCH   1  16
BRANCH   8  24
ATOM     24  C   UNL     1      -1.466  11.437  22.973  0.00  0.00    +0.000 C 
BRANCH  24  25
ATOM     25  C   UNL     1      -1.168  12.908  22.966  0.00  0.00    +0.000 C 
ATOM     26  C   UNL     1      -1.969  13.904  22.162  0.00  0.00    +0.000 C 
ATOM     27  C   UNL     1      -2.144  13.836  23.653  0.00  0.00    +0.000 C 
ENDBRANCH  24  25
ENDBRANCH   8  24
TORSDOF 5
ENDMDL
MODEL 5
REMARK VINA RESULT:      -6.9      2.508      3.157
REMARK  Name = 
REMARK  6 active torsions:
REMARK  status: ('A' for Active; 'I' for Inactive)
REMARK    1  A    between atoms: C_1  and  C_2
REMARK    2  A    between atoms: N_4  and  C_5
REMARK    3  A    between atoms: C_5  and  C_6
REMARK    4  A    between atoms: C_9  and  C_10
REMARK    5  A    between atoms: N_17  and  C_18
REMARK    6  A    between atoms: C_18  and  C_19
REMARK                            x       y       z     vdW  Elec       q    Type
REMARK                         _______ _______ _______ _____ _____    ______ ____
ROOT
ATOM      1  C   UNL     1       4.044   6.247  18.133  0.00  0.00    +0.000 A 
ATOM      2  C   UNL     1       3.501   5.800  19.316  0.00  0.00    +0.000 A 
ATOM      3  S   UNL     1       2.182   6.802  19.754  0.00  0.00    +0.000 S 
ATOM      4  C   UNL     1       2.395   7.734  18.306  0.00  0.00    +0.000 A 
ATOM      5  N   UNL     1       1.582   8.754  17.957  0.00  0.00    +0.000 N 
ATOM      6  C   UNL     1       1.050   9.738  18.742  0.00  0.00    +0.000 C 
ATOM      7  N   UNL     1       1.409  10.016  19.948  0.00  0.00    +0.000 NA
ATOM      8  N   UNL     1       0.104  10.483  18.092  0.00  0.00    +0.000 N 
ATOM      9  N   UNL     1       3.392   7.322  17.548  0.00  0.00    +0.000 NA
ATOM     10  H   UNL     1       1.718   9.071  17.005  0.00  0.00    +0.000 HD
ATOM     11  H   UNL     1       2.159   9.380  20.234  0.00  0.00    +0.000 HD
ATOM     12  H   UNL     1      -0.494   9.986  17.444  0.00  0.00    +0.000 HD
ENDROOT
BRANCH   1  16
ATOM     13  C   UNL     1       6.680   4.866  16.011  0.00  0.00    +0.000 A 
ATOM     14  C   UNL     1       7.252   4.652  17.247  0.00  0.00    +0.000 A 
ATOM     15  C   UNL     1       6.339   5.147  18.204  0.00  0.00    +0.000 A 
ATOM     16  C   UNL     1       5.248   5.628  17.505  0.00  0.00    +0.000 A 
ATOM     17  O   UNL     1       5.451   5.448  16.162  0.00  0.00    +0.000 OA
BRANCH  13  18
ATOM     18  C   UNL     1       7.160   4.628  14.630  0.00  0.00    +0.000 C 
BRANCH  18  22
ATOM     19  C   UNL     1       4.973   3.082  11.973  0.00  0.00    +0.000 C 
ATOM     20  C   UNL     1       6.205   3.725  12.549  0.00  0.00    +0.000 C 
ATOM     21  O   UNL     1       7.221   3.922  11.893  0.00  0.00    +0.000 OA
ATOM     22  N   UNL     1       6.067   4.060  13.875  0.00  0.00    +0.000 N 
ATOM     23  H   UNL     1       5.266   3.723  14.393  0.00  0.00    +0.000 HD
ENDBRANCH  18  22
ENDBRANCH  13  18
ENDBRANCH   1  16
BRANCH   8  24
ATOM     24  C   UNL     1      -0.522  11.611  18.763  0.00  0.00    +0.000 C 
BRANCH  24  25
ATOM     25  C   UNL     1       0.230  12.888  18.522  0.00  0.00    +0.000 C 
ATOM     26  C   UNL     1      -0.370  14.252  18.761  0.00  0.00    +0.000 C 
ATOM     27  C   UNL     1       0.649  13.707  19.723  0.00  0.00    +0.000 C 
ENDBRANCH  24  25
ENDBRANCH   8  24
TORSDOF 5
ENDMDL
MODEL 6
REMARK VINA RESULT:      -6.9      1.325      1.674
REMARK  Name = 
REMARK  6 active torsions:
REMARK  status: ('A' for Active; 'I' for Inactive)
REMARK    1  A    between atoms: C_1  and  C_2
REMARK    2  A    between atoms: N_4  and  C_5
REMARK    3  A    between atoms: C_5  and  C_6
REMARK    4  A    between atoms: C_9  and  C_10
REMARK    5  A    between atoms: N_17  and  C_18
REMARK    6  A    between atoms: C_18  and  C_19
REMARK                            x       y       z     vdW  Elec       q    Type
REMARK                         _______ _______ _______ _____ _____    ______ ____
ROOT
ATOM      1  C   UNL     1       4.021   5.401  17.248  0.00  0.00    +0.000 A 
ATOM      2  C   UNL     1       3.290   4.431  17.896  0.00  0.00    +0.000 A 
ATOM      3  S   UNL     1       2.130   5.176  18.914  0.00  0.00    +0.000 S 
ATOM      4  C   UNL     1       2.651   6.742  18.382  0.00  0.00    +0.000 A 
ATOM      5  N   UNL     1       2.070   7.892  18.787  0.00  0.00    +0.000 N 
ATOM      6  C   UNL     1       1.642   8.246  20.036  0.00  0.00    +0.000 C 
ATOM      7  N   UNL     1       1.919   7.627  21.131  0.00  0.00    +0.000 NA
ATOM      8  N   UNL     1       0.914   9.405  20.038  0.00  0.00    +0.000 N 
ATOM      9  N   UNL     1       3.632   6.708  17.502  0.00  0.00    +0.000 NA
ATOM     10  H   UNL     1       2.357   8.700  18.249  0.00  0.00    +0.000 HD
ATOM     11  H   UNL     1       2.512   6.818  20.923  0.00  0.00    +0.000 HD
ATOM     12  H   UNL     1       0.307   9.558  19.242  0.00  0.00    +0.000 HD
ENDROOT
BRANCH   1  16
ATOM     13  C   UNL     1       6.335   4.292  14.646  0.00  0.00    +0.000 A 
ATOM     14  C   UNL     1       7.206   5.028  15.420  0.00  0.00    +0.000 A 
ATOM     15  C   UNL     1       6.449   5.544  16.496  0.00  0.00    +0.000 A 
ATOM     16  C   UNL     1       5.156   5.087  16.331  0.00  0.00    +0.000 A 
ATOM     17  O   UNL     1       5.086   4.312  15.204  0.00  0.00    +0.000 OA
BRANCH  13  18
ATOM     18  C   UNL     1       6.502   3.563  13.367  0.00  0.00    +0.000 C 
BRANCH  18  22
ATOM     19  C   UNL     1       3.599   3.235  10.980  0.00  0.00    +0.000 C 
ATOM     20  C   UNL     1       4.904   2.864  11.630  0.00  0.00    +0.000 C 
ATOM     21  O   UNL     1       5.532   1.854  11.336  0.00  0.00    +0.000 OA
ATOM     22  N   UNL     1       5.308   3.771  12.581  0.00  0.00    +0.000 N 
ATOM     23  H   UNL     1       4.667   4.491  12.887  0.00  0.00    +0.000 HD
ENDBRANCH  18  22
ENDBRANCH  13  18
ENDBRANCH   1  16
BRANCH   8  24
ATOM     24  C   UNL     1       0.430   9.958  21.293  0.00  0.00    +0.000 C 
BRANCH  24  25
ATOM     25  C   UNL     1       0.173  11.433  21.187  0.00  0.00    +0.000 C 
ATOM     26  C   UNL     1      -0.155  12.117  19.881  0.00  0.00    +0.000 C 
ATOM     27  C   UNL     1      -1.239  11.892  20.897  0.00  0.00    +0.000 C 
ENDBRANCH  24  25
ENDBRANCH   8  24
TORSDOF 5
ENDMDL
MODEL 7
REMARK VINA RESULT:      -6.8      2.893      4.885
REMARK  Name = 
REMARK  6 active torsions:
REMARK  status: ('A' for Active; 'I' for Inactive)
REMARK    1  A    between atoms: C_1  and  C_2
REMARK    2  A    between atoms: N_4  and  C_5
REMARK    3  A    between atoms: C_5  and  C_6
REMARK    4  A    between atoms: C_9  and  C_10
REMARK    5  A    between atoms: N_17  and  C_18
REMARK    6  A    between atoms: C_18  and  C_19
REMARK                            x       y       z     vdW  Elec       q    Type
REMARK                         _______ _______ _______ _____ _____    ______ ____
ROOT
ATOM      1  C   UNL     1       2.350   7.680  18.802  0.00  0.00    +0.000 A 
ATOM      2  C   UNL     1       2.398   8.589  17.769  0.00  0.00    +0.000 A 
ATOM      3  S   UNL     1       1.533  10.001  18.211  0.00  0.00    +0.000 S 
ATOM      4  C   UNL     1       1.196   9.321  19.770  0.00  0.00    +0.000 A 
ATOM      5  N   UNL     1       0.531   9.986  20.739  0.00  0.00    +0.000 N 
ATOM      6  C   UNL     1      -0.577  10.780  20.632  0.00  0.00    +0.000 C 
ATOM      7  N   UNL     1      -1.344  10.869  19.600  0.00  0.00    +0.000 NA
ATOM      8  N   UNL     1      -0.856  11.459  21.787  0.00  0.00    +0.000 N 
ATOM      9  N   UNL     1       1.696   8.114  19.946  0.00  0.00    +0.000 NA
ATOM     10  H   UNL     1       0.579   9.535  21.644  0.00  0.00    +0.000 HD
ATOM     11  H   UNL     1      -0.994  10.250  18.863  0.00  0.00    +0.000 HD
ATOM     12  H   UNL     1      -0.061  11.784  22.323  0.00  0.00    +0.000 HD
ENDROOT
BRANCH   1  16
ATOM     13  C   UNL     1       4.360   4.667  18.315  0.00  0.00    +0.000 A 
ATOM     14  C   UNL     1       3.250   4.102  18.908  0.00  0.00    +0.000 A 
ATOM     15  C   UNL     1       2.353   5.161  19.172  0.00  0.00    +0.000 A 
ATOM     16  C   UNL     1       2.955   6.318  18.716  0.00  0.00    +0.000 A 
ATOM     17  O   UNL     1       4.180   6.017  18.182  0.00  0.00    +0.000 OA
BRANCH  13  18
ATOM     18  C   UNL     1       5.653   4.101  17.866  0.00  0.00    +0.000 C 
BRANCH  18  22
ATOM     19  C   UNL     1       6.286   3.896  14.153  0.00  0.00    +0.000 C 
ATOM     20  C   UNL     1       6.539   4.305  15.578  0.00  0.00    +0.000 C 
ATOM     21  O   UNL     1       7.518   4.955  15.921  0.00  0.00    +0.000 OA
ATOM     22  N   UNL     1       5.562   3.869  16.443  0.00  0.00    +0.000 N 
ATOM     23  H   UNL     1       4.872   3.203  16.120  0.00  0.00    +0.000 HD
ENDBRANCH  18  22
ENDBRANCH  13  18
ENDBRANCH   1  16
BRANCH   8  24
ATOM     24  C   UNL     1      -2.036  12.306  21.866  0.00  0.00    +0.000 C 
BRANCH  24  25
ATOM     25  C   UNL     1      -2.538  12.427  23.276  0.00  0.00    +0.000 C 
ATOM     26  C   UNL     1      -2.980  13.738  23.880  0.00  0.00    +0.000 C 
ATOM     27  C   UNL     1      -4.008  12.713  23.488  0.00  0.00    +0.000 C 
ENDBRANCH  24  25
ENDBRANCH   8  24
TORSDOF 5
ENDMDL
MODEL 8
REMARK VINA RESULT:      -6.8      3.975      5.775
REMARK  Name = 
REMARK  6 active torsions:
REMARK  status: ('A' for Active; 'I' for Inactive)
REMARK    1  A    between atoms: C_1  and  C_2
REMARK    2  A    between atoms: N_4  and  C_5
REMARK    3  A    between atoms: C_5  and  C_6
REMARK    4  A    between atoms: C_9  and  C_10
REMARK    5  A    between atoms: N_17  and  C_18
REMARK    6  A    between atoms: C_18  and  C_19
REMARK                            x       y       z     vdW  Elec       q    Type
REMARK                         _______ _______ _______ _____ _____    ______ ____
ROOT
ATOM      1  C   UNL     1       2.036   7.459  19.504  0.00  0.00    +0.000 A 
ATOM      2  C   UNL     1       2.238   8.122  18.315  0.00  0.00    +0.000 A 
ATOM      3  S   UNL     1       1.538   9.683  18.404  0.00  0.00    +0.000 S 
ATOM      4  C   UNL     1       1.057   9.386  20.044  0.00  0.00    +0.000 A 
ATOM      5  N   UNL     1       0.440  10.309  20.813  0.00  0.00    +0.000 N 
ATOM      6  C   UNL     1      -0.556  11.183  20.476  0.00  0.00    +0.000 C 
ATOM      7  N   UNL     1      -1.264  11.141  19.400  0.00  0.00    +0.000 NA
ATOM      8  N   UNL     1      -0.796  12.115  21.449  0.00  0.00    +0.000 N 
ATOM      9  N   UNL     1       1.395   8.193  20.492  0.00  0.00    +0.000 NA
ATOM     10  H   UNL     1       0.395  10.054  21.792  0.00  0.00    +0.000 HD
ATOM     11  H   UNL     1      -0.963  10.346  18.827  0.00  0.00    +0.000 HD
ATOM     12  H   UNL     1       0.012  12.452  21.959  0.00  0.00    +0.000 HD
ENDROOT
BRANCH   1  16
ATOM     13  C   UNL     1       3.580   4.149  19.611  0.00  0.00    +0.000 A 
ATOM     14  C   UNL     1       2.588   3.963  20.550  0.00  0.00    +0.000 A 
ATOM     15  C   UNL     1       1.882   5.184  20.636  0.00  0.00    +0.000 A 
ATOM     16  C   UNL     1       2.471   6.051  19.735  0.00  0.00    +0.000 A 
ATOM     17  O   UNL     1       3.505   5.416  19.099  0.00  0.00    +0.000 OA
BRANCH  13  18
ATOM     18  C   UNL     1       4.674   3.277  19.123  0.00  0.00    +0.000 C 
BRANCH  18  22
ATOM     19  C   UNL     1       7.639   5.391  18.139  0.00  0.00    +0.000 C 
ATOM     20  C   UNL     1       6.417   4.540  17.929  0.00  0.00    +0.000 C 
ATOM     21  O   UNL     1       5.950   4.307  16.821  0.00  0.00    +0.000 OA
ATOM     22  N   UNL     1       5.887   4.060  19.104  0.00  0.00    +0.000 N 
ATOM     23  H   UNL     1       6.225   4.422  19.986  0.00  0.00    +0.000 HD
ENDBRANCH  18  22
ENDBRANCH  13  18
ENDBRANCH   1  16
BRANCH   8  24
ATOM     24  C   UNL     1      -1.864  13.087  21.279  0.00  0.00    +0.000 C 
BRANCH  24  25
ATOM     25  C   UNL     1      -3.099  12.692  22.034  0.00  0.00    +0.000 C 
ATOM     26  C   UNL     1      -3.073  12.251  23.478  0.00  0.00    +0.000 C 
ATOM     27  C   UNL     1      -3.595  13.615  23.124  0.00  0.00    +0.000 C 
ENDBRANCH  24  25
ENDBRANCH   8  24
TORSDOF 5
ENDMDL
MODEL 9
REMARK VINA RESULT:      -6.7      3.690      5.276
REMARK  Name = 
REMARK  6 active torsions:
REMARK  status: ('A' for Active; 'I' for Inactive)
REMARK    1  A    between atoms: C_1  and  C_2
REMARK    2  A    between atoms: N_4  and  C_5
REMARK    3  A    between atoms: C_5  and  C_6
REMARK    4  A    between atoms: C_9  and  C_10
REMARK    5  A    between atoms: N_17  and  C_18
REMARK    6  A    between atoms: C_18  and  C_19
REMARK                            x       y       z     vdW  Elec       q    Type
REMARK                         _______ _______ _______ _____ _____    ______ ____
ROOT
ATOM      1  C   UNL     1       2.261   7.653  18.513  0.00  0.00    +0.000 A 
ATOM      2  C   UNL     1       2.264   8.737  17.664  0.00  0.00    +0.000 A 
ATOM      3  S   UNL     1       1.523  10.072  18.440  0.00  0.00    +0.000 S 
ATOM      4  C   UNL     1       1.294   9.126  19.876  0.00  0.00    +0.000 A 
ATOM      5  N   UNL     1       0.759   9.623  21.012  0.00  0.00    +0.000 N 
ATOM      6  C   UNL     1      -0.309  10.464  21.164  0.00  0.00    +0.000 C 
ATOM      7  N   UNL     1      -1.162  10.772  20.249  0.00  0.00    +0.000 NA
ATOM      8  N   UNL     1      -0.442  10.925  22.445  0.00  0.00    +0.000 N 
ATOM      9  N   UNL     1       1.741   7.890  19.777  0.00  0.00    +0.000 NA
ATOM     10  H   UNL     1       0.866   9.010  21.810  0.00  0.00    +0.000 HD
ATOM     11  H   UNL     1      -0.916  10.289  19.379  0.00  0.00    +0.000 HD
ATOM     12  H   UNL     1       0.416  11.114  22.949  0.00  0.00    +0.000 HD
ENDROOT
BRANCH   1  16
ATOM     13  C   UNL     1       4.125   4.684  17.482  0.00  0.00    +0.000 A 
ATOM     14  C   UNL     1       2.884   4.114  17.671  0.00  0.00    +0.000 A 
ATOM     15  C   UNL     1       2.024   5.154  18.088  0.00  0.00    +0.000 A 
ATOM     16  C   UNL     1       2.780   6.310  18.120  0.00  0.00    +0.000 A 
ATOM     17  O   UNL     1       4.065   6.026  17.741  0.00  0.00    +0.000 OA
BRANCH  13  18
ATOM     18  C   UNL     1       5.442   4.116  17.112  0.00  0.00    +0.000 C 
BRANCH  18  22
ATOM     19  C   UNL     1       8.149   5.552  19.312  0.00  0.00    +0.000 C 
ATOM     20  C   UNL     1       7.347   5.357  18.054  0.00  0.00    +0.000 C 
ATOM     21  O   UNL     1       7.557   5.990  17.027  0.00  0.00    +0.000 OA
ATOM     22  N   UNL     1       6.364   4.404  18.186  0.00  0.00    +0.000 N 
ATOM     23  H   UNL     1       6.143   4.040  19.103  0.00  0.00    +0.000 HD
ENDBRANCH  18  22
ENDBRANCH  13  18
ENDBRANCH   1  16
BRANCH   8  24
ATOM     24  C   UNL     1      -1.561  11.785  22.796  0.00  0.00    +0.000 C 
BRANCH  24  25
ATOM     25  C   UNL     1      -1.110  13.180  23.116  0.00  0.00    +0.000 C 
ATOM     26  C   UNL     1      -0.218  13.984  22.200  0.00  0.00    +0.000 C 
ATOM     27  C   UNL     1      -1.679  14.319  22.299  0.00  0.00    +0.000 C 
ENDBRANCH  24  25
ENDBRANCH   8  24
TORSDOF 5
ENDMDL
