MODEL 1
REMARK VINA RESULT:      -7.2      0.000      0.000
REMARK  Name = 
REMARK  13 active torsions:
REMARK  status: ('A' for Active; 'I' for Inactive)
REMARK    1  A    between atoms: C_1  and  O_2
REMARK    2  A    between atoms: O_2  and  C_3
REMARK    3  A    between atoms: C_6  and  C_7
REMARK    4  A    between atoms: C_7  and  C_8
REMARK    5  A    between atoms: C_8  and  N_9
REMARK    6  A    between atoms: C_8  and  C_17
REMARK    7  A    between atoms: C_10  and  O_12
REMARK    8  A    between atoms: O_12  and  C_13
REMARK    9  A    between atoms: C_13  and  C_14
REMARK   10  A    between atoms: C_13  and  C_15
REMARK   11  A    between atoms: C_13  and  C_16
REMARK   12  A    between atoms: C_24  and  S_25
REMARK   13  A    between atoms: S_25  and  C_26
REMARK                            x       y       z     vdW  Elec       q    Type
REMARK                         _______ _______ _______ _____ _____    ______ ____
ROOT
ATOM      1  C   UNL     1       0.894  11.355  18.893  0.00  0.00    +0.000 C 
ENDROOT
BRANCH   1   2
ATOM      2  C   UNL     1       1.741  12.546  19.385  0.00  0.00    +0.000 C 
ATOM      3  O   UNL     1       2.750  12.887  18.756  0.00  0.00    +0.000 OA
ATOM      4  N   UNL     1       1.300  13.316  20.454  0.00  0.00    +0.000 N 
ATOM      5  C   UNL     1       2.071  14.514  20.754  0.00  0.00    +0.000 C 
ATOM      6  C   UNL     1       1.401  15.239  21.888  0.00  0.00    +0.000 C 
ATOM      7  C   UNL     1       0.015  14.688  21.805  0.00  0.00    +0.000 C 
ATOM      8  O   UNL     1      -0.917  15.248  22.374  0.00  0.00    +0.000 OA
ATOM      9  C   UNL     1      -0.066  13.381  20.996  0.00  0.00    +0.000 C 
BRANCH   9  10
ATOM     10  S   UNL     1      -0.454  11.969  22.086  0.00  0.00    +0.000 S 
BRANCH  10  11
ATOM     11  C   UNL     1      -2.214  12.217  22.279  0.00  0.00    +0.000 A 
ATOM     12  C   UNL     1      -3.012  12.696  21.234  0.00  0.00    +0.000 A 
ATOM     13  C   UNL     1      -4.302  13.161  21.504  0.00  0.00    +0.000 A 
ATOM     14  C   UNL     1      -4.803  13.117  22.805  0.00  0.00    +0.000 A 
ATOM     15  C   UNL     1      -4.043  12.553  23.827  0.00  0.00    +0.000 A 
ATOM     16  C   UNL     1      -2.755  12.087  23.562  0.00  0.00    +0.000 A 
ENDBRANCH  10  11
ENDBRANCH   9  10
ENDBRANCH   1   2
BRANCH   1  17
ATOM     17  N   UNL     1      -0.232  11.891  18.123  0.00  0.00    +0.000 N 
ATOM     18  C   UNL     1      -1.464  11.301  18.208  0.00  0.00    +0.000 C 
ATOM     19  O   UNL     1      -1.731  10.430  19.024  0.00  0.00    +0.000 OA
ATOM     20  H   UNL     1      -0.064  12.466  17.314  0.00  0.00    +0.000 HD
BRANCH  18  21
ATOM     21  O   UNL     1      -2.302  11.798  17.266  0.00  0.00    +0.000 OA
BRANCH  21  22
ATOM     22  C   UNL     1      -3.263  10.901  16.639  0.00  0.00    +0.000 C 
ATOM     23  C   UNL     1      -2.854  10.520  15.208  0.00  0.00    +0.000 C 
ATOM     24  C   UNL     1      -3.268   9.618  17.488  0.00  0.00    +0.000 C 
ATOM     25  C   UNL     1      -4.672  11.510  16.681  0.00  0.00    +0.000 C 
ENDBRANCH  21  22
ENDBRANCH  18  21
ENDBRANCH   1  17
BRANCH   1  26
ATOM     26  C   UNL     1       1.738  10.381  18.025  0.00  0.00    +0.000 C 
BRANCH  26  30
ATOM     27  C   UNL     1       2.587   6.373  19.497  0.00  0.00    +0.000 A 
ATOM     28  C   UNL     1       1.873   7.275  20.288  0.00  0.00    +0.000 A 
ATOM     29  C   UNL     1       1.560   8.557  19.821  0.00  0.00    +0.000 A 
ATOM     30  C   UNL     1       1.999   8.984  18.565  0.00  0.00    +0.000 A 
ATOM     31  C   UNL     1       2.675   8.053  17.756  0.00  0.00    +0.000 A 
ATOM     32  C   UNL     1       2.969   6.760  18.217  0.00  0.00    +0.000 A 
BRANCH  27  34
ATOM     33  C   UNL     1       1.831   4.562  20.843  0.00  0.00    +0.000 C 
ATOM     34  O   UNL     1       2.876   5.185  20.107  0.00  0.00    +0.000 OA
ENDBRANCH  27  34
ENDBRANCH  26  30
ENDBRANCH   1  26
TORSDOF 9
ENDMDL
MODEL 2
REMARK VINA RESULT:      -7.0      0.529      1.507
REMARK  Name = 
REMARK  13 active torsions:
REMARK  status: ('A' for Active; 'I' for Inactive)
REMARK    1  A    between atoms: C_1  and  O_2
REMARK    2  A    between atoms: O_2  and  C_3
REMARK    3  A    between atoms: C_6  and  C_7
REMARK    4  A    between atoms: C_7  and  C_8
REMARK    5  A    between atoms: C_8  and  N_9
REMARK    6  A    between atoms: C_8  and  C_17
REMARK    7  A    between atoms: C_10  and  O_12
REMARK    8  A    between atoms: O_12  and  C_13
REMARK    9  A    between atoms: C_13  and  C_14
REMARK   10  A    between atoms: C_13  and  C_15
REMARK   11  A    between atoms: C_13  and  C_16
REMARK   12  A    between atoms: C_24  and  S_25
REMARK   13  A    between atoms: S_25  and  C_26
REMARK                            x       y       z     vdW  Elec       q    Type
REMARK                         _______ _______ _______ _____ _____    ______ ____
ROOT
ATOM      1  C   UNL     1       0.947  11.318  18.753  0.00  0.00    +0.000 C 
ENDROOT
BRANCH   1   2
ATOM      2  C   UNL     1       1.871  12.494  19.131  0.00  0.00    +0.000 C 
ATOM      3  O   UNL     1       2.890  12.716  18.467  0.00  0.00    +0.000 OA
ATOM      4  N   UNL     1       1.491  13.380  20.132  0.00  0.00    +0.000 N 
ATOM      5  C   UNL     1       2.336  14.550  20.319  0.00  0.00    +0.000 C 
ATOM      6  C   UNL     1       1.727  15.411  21.389  0.00  0.00    +0.000 C 
ATOM      7  C   UNL     1       0.309  14.940  21.366  0.00  0.00    +0.000 C 
ATOM      8  O   UNL     1      -0.580  15.604  21.890  0.00  0.00    +0.000 OA
ATOM      9  C   UNL     1       0.139  13.575  20.676  0.00  0.00    +0.000 C 
BRANCH   9  10
ATOM     10  S   UNL     1      -0.320  12.291  21.890  0.00  0.00    +0.000 S 
BRANCH  10  11
ATOM     11  C   UNL     1      -2.035  12.722  22.146  0.00  0.00    +0.000 A 
ATOM     12  C   UNL     1      -2.631  12.660  23.412  0.00  0.00    +0.000 A 
ATOM     13  C   UNL     1      -4.023  12.706  23.525  0.00  0.00    +0.000 A 
ATOM     14  C   UNL     1      -4.813  12.845  22.383  0.00  0.00    +0.000 A 
ATOM     15  C   UNL     1      -4.215  13.000  21.135  0.00  0.00    +0.000 A 
ATOM     16  C   UNL     1      -2.826  12.956  21.018  0.00  0.00    +0.000 A 
ENDBRANCH  10  11
ENDBRANCH   9  10
ENDBRANCH   1   2
BRANCH   1  17
ATOM     17  N   UNL     1      -0.202  11.864  18.026  0.00  0.00    +0.000 N 
ATOM     18  C   UNL     1      -1.442  11.307  18.184  0.00  0.00    +0.000 C 
ATOM     19  O   UNL     1      -1.689  10.462  19.032  0.00  0.00    +0.000 OA
ATOM     20  H   UNL     1      -0.060  12.416  17.196  0.00  0.00    +0.000 HD
BRANCH  18  21
ATOM     21  O   UNL     1      -2.312  11.803  17.271  0.00  0.00    +0.000 OA
BRANCH  21  22
ATOM     22  C   UNL     1      -3.348  10.926  16.741  0.00  0.00    +0.000 C 
ATOM     23  C   UNL     1      -4.744  11.561  16.825  0.00  0.00    +0.000 C 
ATOM     24  C   UNL     1      -3.010  10.717  15.255  0.00  0.00    +0.000 C 
ATOM     25  C   UNL     1      -3.304   9.560  17.440  0.00  0.00    +0.000 C 
ENDBRANCH  21  22
ENDBRANCH  18  21
ENDBRANCH   1  17
BRANCH   1  26
ATOM     26  C   UNL     1       1.695  10.266  17.887  0.00  0.00    +0.000 C 
BRANCH  26  30
ATOM     27  C   UNL     1       2.418   6.385  19.722  0.00  0.00    +0.000 A 
ATOM     28  C   UNL     1       2.912   6.661  18.445  0.00  0.00    +0.000 A 
ATOM     29  C   UNL     1       2.719   7.914  17.850  0.00  0.00    +0.000 A 
ATOM     30  C   UNL     1       1.984   8.907  18.503  0.00  0.00    +0.000 A 
ATOM     31  C   UNL     1       1.533   8.637  19.808  0.00  0.00    +0.000 A 
ATOM     32  C   UNL     1       1.746   7.388  20.412  0.00  0.00    +0.000 A 
BRANCH  27  34
ATOM     33  C   UNL     1       3.743   4.412  19.609  0.00  0.00    +0.000 C 
ATOM     34  O   UNL     1       2.624   5.103  20.148  0.00  0.00    +0.000 OA
ENDBRANCH  27  34
ENDBRANCH  26  30
ENDBRANCH   1  26
TORSDOF 9
ENDMDL
MODEL 3
REMARK VINA RESULT:      -7.0      1.506      2.269
REMARK  Name = 
REMARK  13 active torsions:
REMARK  status: ('A' for Active; 'I' for Inactive)
REMARK    1  A    between atoms: C_1  and  O_2
REMARK    2  A    between atoms: O_2  and  C_3
REMARK    3  A    between atoms: C_6  and  C_7
REMARK    4  A    between atoms: C_7  and  C_8
REMARK    5  A    between atoms: C_8  and  N_9
REMARK    6  A    between atoms: C_8  and  C_17
REMARK    7  A    between atoms: C_10  and  O_12
REMARK    8  A    between atoms: O_12  and  C_13
REMARK    9  A    between atoms: C_13  and  C_14
REMARK   10  A    between atoms: C_13  and  C_15
REMARK   11  A    between atoms: C_13  and  C_16
REMARK   12  A    between atoms: C_24  and  S_25
REMARK   13  A    between atoms: S_25  and  C_26
REMARK                            x       y       z     vdW  Elec       q    Type
REMARK                         _______ _______ _______ _____ _____    ______ ____
ROOT
ATOM      1  C   UNL     1      -0.629  11.162  20.497  0.00  0.00    +0.000 C 
ENDROOT
BRANCH   1   2
ATOM      2  C   UNL     1       0.251  12.357  20.915  0.00  0.00    +0.000 C 
ATOM      3  O   UNL     1       1.360  12.519  20.392  0.00  0.00    +0.000 OA
ATOM      4  N   UNL     1      -0.253  13.320  21.781  0.00  0.00    +0.000 N 
ATOM      5  C   UNL     1       0.578  14.495  22.000  0.00  0.00    +0.000 C 
ATOM      6  C   UNL     1      -0.164  15.441  22.902  0.00  0.00    +0.000 C 
ATOM      7  C   UNL     1      -1.572  14.980  22.709  0.00  0.00    +0.000 C 
ATOM      8  O   UNL     1      -2.515  15.689  23.047  0.00  0.00    +0.000 OA
ATOM      9  C   UNL     1      -1.666  13.566  22.107  0.00  0.00    +0.000 C 
BRANCH   9  10
ATOM     10  S   UNL     1      -2.318  12.383  23.334  0.00  0.00    +0.000 S 
BRANCH  10  11
ATOM     11  C   UNL     1      -4.064  12.737  23.191  0.00  0.00    +0.000 A 
ATOM     12  C   UNL     1      -4.913  12.731  24.304  0.00  0.00    +0.000 A 
ATOM     13  C   UNL     1      -6.298  12.709  24.120  0.00  0.00    +0.000 A 
ATOM     14  C   UNL     1      -6.832  12.726  22.831  0.00  0.00    +0.000 A 
ATOM     15  C   UNL     1      -5.988  12.827  21.727  0.00  0.00    +0.000 A 
ATOM     16  C   UNL     1      -4.605  12.851  21.907  0.00  0.00    +0.000 A 
ENDBRANCH  10  11
ENDBRANCH   9  10
ENDBRANCH   1   2
BRANCH   1  17
ATOM     17  N   UNL     1      -0.786  11.207  19.040  0.00  0.00    +0.000 N 
ATOM     18  C   UNL     1      -1.919  11.739  18.488  0.00  0.00    +0.000 C 
ATOM     19  O   UNL     1      -2.762  12.336  19.142  0.00  0.00    +0.000 OA
ATOM     20  H   UNL     1      -0.246  10.591  18.454  0.00  0.00    +0.000 HD
BRANCH  18  21
ATOM     21  O   UNL     1      -1.970  11.488  17.157  0.00  0.00    +0.000 OA
BRANCH  21  22
ATOM     22  C   UNL     1      -3.091  10.722  16.630  0.00  0.00    +0.000 C 
ATOM     23  C   UNL     1      -2.821  10.202  15.210  0.00  0.00    +0.000 C 
ATOM     24  C   UNL     1      -3.251   9.505  17.557  0.00  0.00    +0.000 C 
ATOM     25  C   UNL     1      -4.383  11.548  16.694  0.00  0.00    +0.000 C 
ENDBRANCH  21  22
ENDBRANCH  18  21
ENDBRANCH   1  17
BRANCH   1  26
ATOM     26  C   UNL     1       0.000   9.812  20.940  0.00  0.00    +0.000 C 
BRANCH  26  30
ATOM     27  C   UNL     1       2.674   7.695  18.235  0.00  0.00    +0.000 A 
ATOM     28  C   UNL     1       2.072   8.890  17.835  0.00  0.00    +0.000 A 
ATOM     29  C   UNL     1       1.236   9.604  18.700  0.00  0.00    +0.000 A 
ATOM     30  C   UNL     1       0.943   9.111  19.975  0.00  0.00    +0.000 A 
ATOM     31  C   UNL     1       1.591   7.933  20.387  0.00  0.00    +0.000 A 
ATOM     32  C   UNL     1       2.448   7.229  19.525  0.00  0.00    +0.000 A 
BRANCH  27  34
ATOM     33  C   UNL     1       4.639   6.481  17.663  0.00  0.00    +0.000 C 
ATOM     34  O   UNL     1       3.411   7.075  17.265  0.00  0.00    +0.000 OA
ENDBRANCH  27  34
ENDBRANCH  26  30
ENDBRANCH   1  26
TORSDOF 9
ENDMDL
MODEL 4
REMARK VINA RESULT:      -6.9      1.341      1.891
REMARK  Name = 
REMARK  13 active torsions:
REMARK  status: ('A' for Active; 'I' for Inactive)
REMARK    1  A    between atoms: C_1  and  O_2
REMARK    2  A    between atoms: O_2  and  C_3
REMARK    3  A    between atoms: C_6  and  C_7
REMARK    4  A    between atoms: C_7  and  C_8
REMARK    5  A    between atoms: C_8  and  N_9
REMARK    6  A    between atoms: C_8  and  C_17
REMARK    7  A    between atoms: C_10  and  O_12
REMARK    8  A    between atoms: O_12  and  C_13
REMARK    9  A    between atoms: C_13  and  C_14
REMARK   10  A    between atoms: C_13  and  C_15
REMARK   11  A    between atoms: C_13  and  C_16
REMARK   12  A    between atoms: C_24  and  S_25
REMARK   13  A    between atoms: S_25  and  C_26
REMARK                            x       y       z     vdW  Elec       q    Type
REMARK                         _______ _______ _______ _____ _____    ______ ____
ROOT
ATOM      1  C   UNL     1       1.427  10.322  18.559  0.00  0.00    +0.000 C 
ENDROOT
BRANCH   1   2
ATOM      2  C   UNL     1       2.113  11.687  18.353  0.00  0.00    +0.000 C 
ATOM      3  O   UNL     1       2.978  11.818  17.478  0.00  0.00    +0.000 OA
ATOM      4  N   UNL     1       1.669  12.800  19.058  0.00  0.00    +0.000 N 
ATOM      5  C   UNL     1       2.259  14.079  18.691  0.00  0.00    +0.000 C 
ATOM      6  C   UNL     1       1.605  15.156  19.510  0.00  0.00    +0.000 C 
ATOM      7  C   UNL     1       0.329  14.486  19.903  0.00  0.00    +0.000 C 
ATOM      8  O   UNL     1      -0.616  15.141  20.332  0.00  0.00    +0.000 OA
ATOM      9  C   UNL     1       0.378  12.956  19.745  0.00  0.00    +0.000 C 
BRANCH   9  10
ATOM     10  S   UNL     1       0.349  12.137  21.375  0.00  0.00    +0.000 S 
BRANCH  10  11
ATOM     11  C   UNL     1      -1.211  12.754  21.992  0.00  0.00    +0.000 A 
ATOM     12  C   UNL     1      -1.311  13.412  23.224  0.00  0.00    +0.000 A 
ATOM     13  C   UNL     1      -2.566  13.605  23.806  0.00  0.00    +0.000 A 
ATOM     14  C   UNL     1      -3.717  13.173  23.147  0.00  0.00    +0.000 A 
ATOM     15  C   UNL     1      -3.623  12.604  21.879  0.00  0.00    +0.000 A 
ATOM     16  C   UNL     1      -2.372  12.410  21.293  0.00  0.00    +0.000 A 
ENDBRANCH  10  11
ENDBRANCH   9  10
ENDBRANCH   1   2
BRANCH   1  17
ATOM     17  N   UNL     1       0.243  10.278  17.697  0.00  0.00    +0.000 N 
ATOM     18  C   UNL     1      -0.961   9.873  18.205  0.00  0.00    +0.000 C 
ATOM     19  O   UNL     1      -1.153   9.690  19.399  0.00  0.00    +0.000 OA
ATOM     20  H   UNL     1       0.347  10.233  16.696  0.00  0.00    +0.000 HD
BRANCH  18  21
ATOM     21  O   UNL     1      -1.866   9.691  17.213  0.00  0.00    +0.000 OA
BRANCH  21  22
ATOM     22  C   UNL     1      -2.926  10.676  17.040  0.00  0.00    +0.000 C 
ATOM     23  C   UNL     1      -3.257  10.918  15.561  0.00  0.00    +0.000 C 
ATOM     24  C   UNL     1      -4.175  10.082  17.715  0.00  0.00    +0.000 C 
ATOM     25  C   UNL     1      -2.567  11.983  17.761  0.00  0.00    +0.000 C 
ENDBRANCH  21  22
ENDBRANCH  18  21
ENDBRANCH   1  17
BRANCH   1  26
ATOM     26  C   UNL     1       2.391   9.148  18.227  0.00  0.00    +0.000 C 
BRANCH  26  30
ATOM     27  C   UNL     1       1.774   5.449  20.438  0.00  0.00    +0.000 A 
ATOM     28  C   UNL     1       2.329   5.418  19.157  0.00  0.00    +0.000 A 
ATOM     29  C   UNL     1       2.567   6.597  18.441  0.00  0.00    +0.000 A 
ATOM     30  C   UNL     1       2.208   7.838  18.975  0.00  0.00    +0.000 A 
ATOM     31  C   UNL     1       1.696   7.864  20.285  0.00  0.00    +0.000 A 
ATOM     32  C   UNL     1       1.479   6.682  21.010  0.00  0.00    +0.000 A 
BRANCH  27  34
ATOM     33  C   UNL     1       0.977   3.227  20.141  0.00  0.00    +0.000 C 
ATOM     34  O   UNL     1       1.539   4.221  20.988  0.00  0.00    +0.000 OA
ENDBRANCH  27  34
ENDBRANCH  26  30
ENDBRANCH   1  26
TORSDOF 9
ENDMDL
MODEL 5
REMARK VINA RESULT:      -6.9      2.554      5.988
REMARK  Name = 
REMARK  13 active torsions:
REMARK  status: ('A' for Active; 'I' for Inactive)
REMARK    1  A    between atoms: C_1  and  O_2
REMARK    2  A    between atoms: O_2  and  C_3
REMARK    3  A    between atoms: C_6  and  C_7
REMARK    4  A    between atoms: C_7  and  C_8
REMARK    5  A    between atoms: C_8  and  N_9
REMARK    6  A    between atoms: C_8  and  C_17
REMARK    7  A    between atoms: C_10  and  O_12
REMARK    8  A    between atoms: O_12  and  C_13
REMARK    9  A    between atoms: C_13  and  C_14
REMARK   10  A    between atoms: C_13  and  C_15
REMARK   11  A    between atoms: C_13  and  C_16
REMARK   12  A    between atoms: C_24  and  S_25
REMARK   13  A    between atoms: S_25  and  C_26
REMARK                            x       y       z     vdW  Elec       q    Type
REMARK                         _______ _______ _______ _____ _____    ______ ____
ROOT
ATOM      1  C   UNL     1      -2.471  13.227  21.048  0.00  0.00    +0.000 C 
ENDROOT
BRANCH   1   2
ATOM      2  C   UNL     1      -3.752  14.025  21.363  0.00  0.00    +0.000 C 
ATOM      3  O   UNL     1      -3.734  14.904  22.233  0.00  0.00    +0.000 OA
ATOM      4  N   UNL     1      -4.889  13.847  20.583  0.00  0.00    +0.000 N 
ATOM      5  C   UNL     1      -6.002  14.749  20.843  0.00  0.00    +0.000 C 
ATOM      6  C   UNL     1      -7.099  14.446  19.861  0.00  0.00    +0.000 C 
ATOM      7  C   UNL     1      -6.335  13.754  18.779  0.00  0.00    +0.000 C 
ATOM      8  O   UNL     1      -6.822  13.610  17.662  0.00  0.00    +0.000 OA
ATOM      9  C   UNL     1      -4.959  13.243  19.244  0.00  0.00    +0.000 C 
BRANCH   9  10
ATOM     10  S   UNL     1      -4.931  11.419  19.297  0.00  0.00    +0.000 S 
BRANCH  10  11
ATOM     11  C   UNL     1      -3.956  11.094  17.834  0.00  0.00    +0.000 A 
ATOM     12  C   UNL     1      -4.424  11.401  16.551  0.00  0.00    +0.000 A 
ATOM     13  C   UNL     1      -3.782  10.863  15.432  0.00  0.00    +0.000 A 
ATOM     14  C   UNL     1      -2.660  10.051  15.593  0.00  0.00    +0.000 A 
ATOM     15  C   UNL     1      -2.140   9.823  16.865  0.00  0.00    +0.000 A 
ATOM     16  C   UNL     1      -2.777  10.358  17.985  0.00  0.00    +0.000 A 
ENDBRANCH  10  11
ENDBRANCH   9  10
ENDBRANCH   1   2
BRANCH   1  17
ATOM     17  N   UNL     1      -1.417  14.187  20.707  0.00  0.00    +0.000 N 
ATOM     18  C   UNL     1      -0.763  14.091  19.509  0.00  0.00    +0.000 C 
ATOM     19  O   UNL     1      -1.117  13.333  18.616  0.00  0.00    +0.000 OA
ATOM     20  H   UNL     1      -0.950  14.706  21.433  0.00  0.00    +0.000 HD
BRANCH  18  21
ATOM     21  O   UNL     1       0.310  14.917  19.478  0.00  0.00    +0.000 OA
BRANCH  21  22
ATOM     22  C   UNL     1       1.646  14.335  19.503  0.00  0.00    +0.000 C 
ATOM     23  C   UNL     1       2.745  15.406  19.527  0.00  0.00    +0.000 C 
ATOM     24  C   UNL     1       1.737  13.532  20.812  0.00  0.00    +0.000 C 
ATOM     25  C   UNL     1       1.829  13.362  18.330  0.00  0.00    +0.000 C 
ENDBRANCH  21  22
ENDBRANCH  18  21
ENDBRANCH   1  17
BRANCH   1  26
ATOM     26  C   UNL     1      -2.041  12.346  22.254  0.00  0.00    +0.000 C 
BRANCH  26  30
ATOM     27  C   UNL     1       0.570   8.926  21.598  0.00  0.00    +0.000 A 
ATOM     28  C   UNL     1       0.126   9.688  20.516  0.00  0.00    +0.000 A 
ATOM     29  C   UNL     1      -0.687  10.811  20.707  0.00  0.00    +0.000 A 
ATOM     30  C   UNL     1      -1.115  11.171  21.988  0.00  0.00    +0.000 A 
ATOM     31  C   UNL     1      -0.624  10.427  23.076  0.00  0.00    +0.000 A 
ATOM     32  C   UNL     1       0.210   9.313  22.884  0.00  0.00    +0.000 A 
BRANCH  27  34
ATOM     33  C   UNL     1       1.902   7.815  19.969  0.00  0.00    +0.000 C 
ATOM     34  O   UNL     1       1.301   7.823  21.257  0.00  0.00    +0.000 OA
ENDBRANCH  27  34
ENDBRANCH  26  30
ENDBRANCH   1  26
TORSDOF 9
ENDMDL
MODEL 6
REMARK VINA RESULT:      -6.8      1.415      1.773
REMARK  Name = 
REMARK  13 active torsions:
REMARK  status: ('A' for Active; 'I' for Inactive)
REMARK    1  A    between atoms: C_1  and  O_2
REMARK    2  A    between atoms: O_2  and  C_3
REMARK    3  A    between atoms: C_6  and  C_7
REMARK    4  A    between atoms: C_7  and  C_8
REMARK    5  A    between atoms: C_8  and  N_9
REMARK    6  A    between atoms: C_8  and  C_17
REMARK    7  A    between atoms: C_10  and  O_12
REMARK    8  A    between atoms: O_12  and  C_13
REMARK    9  A    between atoms: C_13  and  C_14
REMARK   10  A    between atoms: C_13  and  C_15
REMARK   11  A    between atoms: C_13  and  C_16
REMARK   12  A    between atoms: C_24  and  S_25
REMARK   13  A    between atoms: S_25  and  C_26
REMARK                            x       y       z     vdW  Elec       q    Type
REMARK                         _______ _______ _______ _____ _____    ______ ____
ROOT
ATOM      1  C   UNL     1       1.516  10.142  18.466  0.00  0.00    +0.000 C 
ENDROOT
BRANCH   1   2
ATOM      2  C   UNL     1       2.233  11.487  18.235  0.00  0.00    +0.000 C 
ATOM      3  O   UNL     1       3.068  11.594  17.329  0.00  0.00    +0.000 OA
ATOM      4  N   UNL     1       1.848  12.611  18.957  0.00  0.00    +0.000 N 
ATOM      5  C   UNL     1       2.461  13.873  18.568  0.00  0.00    +0.000 C 
ATOM      6  C   UNL     1       1.870  14.968  19.411  0.00  0.00    +0.000 C 
ATOM      7  C   UNL     1       0.590  14.335  19.852  0.00  0.00    +0.000 C 
ATOM      8  O   UNL     1      -0.318  15.017  20.316  0.00  0.00    +0.000 OA
ATOM      9  C   UNL     1       0.589  12.804  19.691  0.00  0.00    +0.000 C 
BRANCH   9  10
ATOM     10  S   UNL     1       0.597  11.984  21.322  0.00  0.00    +0.000 S 
BRANCH  10  11
ATOM     11  C   UNL     1      -1.061  12.377  21.862  0.00  0.00    +0.000 A 
ATOM     12  C   UNL     1      -2.167  12.237  21.015  0.00  0.00    +0.000 A 
ATOM     13  C   UNL     1      -3.383  12.832  21.360  0.00  0.00    +0.000 A 
ATOM     14  C   UNL     1      -3.503  13.536  22.559  0.00  0.00    +0.000 A 
ATOM     15  C   UNL     1      -2.428  13.595  23.444  0.00  0.00    +0.000 A 
ATOM     16  C   UNL     1      -1.212  13.001  23.104  0.00  0.00    +0.000 A 
ENDBRANCH  10  11
ENDBRANCH   9  10
ENDBRANCH   1   2
BRANCH   1  17
ATOM     17  N   UNL     1       0.329  10.111  17.607  0.00  0.00    +0.000 N 
ATOM     18  C   UNL     1      -0.889   9.772  18.130  0.00  0.00    +0.000 C 
ATOM     19  O   UNL     1      -1.085   9.641  19.330  0.00  0.00    +0.000 OA
ATOM     20  H   UNL     1       0.429  10.025  16.609  0.00  0.00    +0.000 HD
BRANCH  18  21
ATOM     21  O   UNL     1      -1.802   9.588  17.146  0.00  0.00    +0.000 OA
BRANCH  21  22
ATOM     22  C   UNL     1      -2.787  10.632  16.897  0.00  0.00    +0.000 C 
ATOM     23  C   UNL     1      -4.082  10.408  17.691  0.00  0.00    +0.000 C 
ATOM     24  C   UNL     1      -2.151  11.944  17.388  0.00  0.00    +0.000 C 
ATOM     25  C   UNL     1      -3.060  10.765  15.393  0.00  0.00    +0.000 C 
ENDBRANCH  21  22
ENDBRANCH  18  21
ENDBRANCH   1  17
BRANCH   1  26
ATOM     26  C   UNL     1       2.451   8.940  18.153  0.00  0.00    +0.000 C 
BRANCH  26  30
ATOM     27  C   UNL     1       1.875   5.158  20.229  0.00  0.00    +0.000 A 
ATOM     28  C   UNL     1       1.612   6.364  20.881  0.00  0.00    +0.000 A 
ATOM     29  C   UNL     1       1.759   7.590  20.222  0.00  0.00    +0.000 A 
ATOM     30  C   UNL     1       2.220   7.640  18.904  0.00  0.00    +0.000 A 
ATOM     31  C   UNL     1       2.435   6.419  18.239  0.00  0.00    +0.000 A 
ATOM     32  C   UNL     1       2.266   5.189  18.895  0.00  0.00    +0.000 A 
BRANCH  27  34
ATOM     33  C   UNL     1       2.757   3.049  20.890  0.00  0.00    +0.000 C 
ATOM     34  O   UNL     1       1.752   4.046  21.014  0.00  0.00    +0.000 OA
ENDBRANCH  27  34
ENDBRANCH  26  30
ENDBRANCH   1  26
TORSDOF 9
ENDMDL
MODEL 7
REMARK VINA RESULT:      -6.6      2.673      5.535
REMARK  Name = 
REMARK  13 active torsions:
REMARK  status: ('A' for Active; 'I' for Inactive)
REMARK    1  A    between atoms: C_1  and  O_2
REMARK    2  A    between atoms: O_2  and  C_3
REMARK    3  A    between atoms: C_6  and  C_7
REMARK    4  A    between atoms: C_7  and  C_8
REMARK    5  A    between atoms: C_8  and  N_9
REMARK    6  A    between atoms: C_8  and  C_17
REMARK    7  A    between atoms: C_10  and  O_12
REMARK    8  A    between atoms: O_12  and  C_13
REMARK    9  A    between atoms: C_13  and  C_14
REMARK   10  A    between atoms: C_13  and  C_15
REMARK   11  A    between atoms: C_13  and  C_16
REMARK   12  A    between atoms: C_24  and  S_25
REMARK   13  A    between atoms: S_25  and  C_26
REMARK                            x       y       z     vdW  Elec       q    Type
REMARK                         _______ _______ _______ _____ _____    ______ ____
ROOT
ATOM      1  C   UNL     1      -1.025  14.597  21.285  0.00  0.00    +0.000 C 
ENDROOT
BRANCH   1   2
ATOM      2  C   UNL     1      -1.945  15.723  21.798  0.00  0.00    +0.000 C 
ATOM      3  O   UNL     1      -1.453  16.745  22.292  0.00  0.00    +0.000 OA
ATOM      4  N   UNL     1      -3.317  15.648  21.589  0.00  0.00    +0.000 N 
ATOM      5  C   UNL     1      -4.095  16.821  21.959  0.00  0.00    +0.000 C 
ATOM      6  C   UNL     1      -5.532  16.572  21.595  0.00  0.00    +0.000 C 
ATOM      7  C   UNL     1      -5.388  15.496  20.568  0.00  0.00    +0.000 C 
ATOM      8  O   UNL     1      -6.315  15.224  19.811  0.00  0.00    +0.000 OA
ATOM      9  C   UNL     1      -4.019  14.794  20.620  0.00  0.00    +0.000 C 
BRANCH   9  10
ATOM     10  S   UNL     1      -4.197  13.074  21.203  0.00  0.00    +0.000 S 
BRANCH  10  11
ATOM     11  C   UNL     1      -3.989  12.210  19.652  0.00  0.00    +0.000 A 
ATOM     12  C   UNL     1      -2.722  11.917  19.133  0.00  0.00    +0.000 A 
ATOM     13  C   UNL     1      -2.594  11.523  17.799  0.00  0.00    +0.000 A 
ATOM     14  C   UNL     1      -3.728  11.389  16.997  0.00  0.00    +0.000 A 
ATOM     15  C   UNL     1      -4.994  11.590  17.540  0.00  0.00    +0.000 A 
ATOM     16  C   UNL     1      -5.127  11.982  18.872  0.00  0.00    +0.000 A 
ENDBRANCH  10  11
ENDBRANCH   9  10
ENDBRANCH   1   2
BRANCH   1  17
ATOM     17  N   UNL     1       0.132  15.221  20.638  0.00  0.00    +0.000 N 
ATOM     18  C   UNL     1       0.335  15.063  19.294  0.00  0.00    +0.000 C 
ATOM     19  O   UNL     1      -0.491  14.554  18.551  0.00  0.00    +0.000 OA
ATOM     20  H   UNL     1       0.934  15.490  21.185  0.00  0.00    +0.000 HD
BRANCH  18  21
ATOM     21  O   UNL     1       1.559  15.522  18.935  0.00  0.00    +0.000 OA
BRANCH  21  22
ATOM     22  C   UNL     1       2.644  14.565  18.764  0.00  0.00    +0.000 C 
ATOM     23  C   UNL     1       2.163  13.248  18.138  0.00  0.00    +0.000 C 
ATOM     24  C   UNL     1       3.639  15.217  17.788  0.00  0.00    +0.000 C 
ATOM     25  C   UNL     1       3.366  14.328  20.098  0.00  0.00    +0.000 C 
ENDBRANCH  21  22
ENDBRANCH  18  21
ENDBRANCH   1  17
BRANCH   1  26
ATOM     26  C   UNL     1      -0.570  13.665  22.443  0.00  0.00    +0.000 C 
BRANCH  26  30
ATOM     27  C   UNL     1       0.080   9.462  21.515  0.00  0.00    +0.000 A 
ATOM     28  C   UNL     1      -0.676   9.826  22.631  0.00  0.00    +0.000 A 
ATOM     29  C   UNL     1      -0.926  11.171  22.929  0.00  0.00    +0.000 A 
ATOM     30  C   UNL     1      -0.381  12.188  22.140  0.00  0.00    +0.000 A 
ATOM     31  C   UNL     1       0.338  11.811  20.991  0.00  0.00    +0.000 A 
ATOM     32  C   UNL     1       0.569  10.462  20.681  0.00  0.00    +0.000 A 
BRANCH  27  34
ATOM     33  C   UNL     1       1.535   7.711  20.822  0.00  0.00    +0.000 C 
ATOM     34  O   UNL     1       0.296   8.119  21.386  0.00  0.00    +0.000 OA
ENDBRANCH  27  34
ENDBRANCH  26  30
ENDBRANCH   1  26
TORSDOF 9
ENDMDL
MODEL 8
REMARK VINA RESULT:      -6.6      1.415      2.202
REMARK  Name = 
REMARK  13 active torsions:
REMARK  status: ('A' for Active; 'I' for Inactive)
REMARK    1  A    between atoms: C_1  and  O_2
REMARK    2  A    between atoms: O_2  and  C_3
REMARK    3  A    between atoms: C_6  and  C_7
REMARK    4  A    between atoms: C_7  and  C_8
REMARK    5  A    between atoms: C_8  and  N_9
REMARK    6  A    between atoms: C_8  and  C_17
REMARK    7  A    between atoms: C_10  and  O_12
REMARK    8  A    between atoms: O_12  and  C_13
REMARK    9  A    between atoms: C_13  and  C_14
REMARK   10  A    between atoms: C_13  and  C_15
REMARK   11  A    between atoms: C_13  and  C_16
REMARK   12  A    between atoms: C_24  and  S_25
REMARK   13  A    between atoms: S_25  and  C_26
REMARK                            x       y       z     vdW  Elec       q    Type
REMARK                         _______ _______ _______ _____ _____    ______ ____
ROOT
ATOM      1  C   UNL     1      -0.388  11.708  20.486  0.00  0.00    +0.000 C 
ENDROOT
BRANCH   1   2
ATOM      2  C   UNL     1       0.774  12.693  20.723  0.00  0.00    +0.000 C 
ATOM      3  O   UNL     1       1.825  12.573  20.082  0.00  0.00    +0.000 OA
ATOM      4  N   UNL     1       0.595  13.789  21.559  0.00  0.00    +0.000 N 
ATOM      5  C   UNL     1       1.684  14.755  21.604  0.00  0.00    +0.000 C 
ATOM      6  C   UNL     1       1.274  15.890  22.500  0.00  0.00    +0.000 C 
ATOM      7  C   UNL     1      -0.213  15.750  22.483  0.00  0.00    +0.000 C 
ATOM      8  O   UNL     1      -0.933  16.671  22.857  0.00  0.00    +0.000 OA
ATOM      9  C   UNL     1      -0.682  14.366  22.002  0.00  0.00    +0.000 C 
BRANCH   9  10
ATOM     10  S   UNL     1      -1.435  13.427  23.374  0.00  0.00    +0.000 S 
BRANCH  10  11
ATOM     11  C   UNL     1      -3.156  13.820  23.096  0.00  0.00    +0.000 A 
ATOM     12  C   UNL     1      -3.769  14.925  23.698  0.00  0.00    +0.000 A 
ATOM     13  C   UNL     1      -5.163  15.027  23.705  0.00  0.00    +0.000 A 
ATOM     14  C   UNL     1      -5.938  14.047  23.085  0.00  0.00    +0.000 A 
ATOM     15  C   UNL     1      -5.325  12.997  22.406  0.00  0.00    +0.000 A 
ATOM     16  C   UNL     1      -3.934  12.892  22.395  0.00  0.00    +0.000 A 
ENDBRANCH  10  11
ENDBRANCH   9  10
ENDBRANCH   1   2
BRANCH   1  17
ATOM     17  N   UNL     1      -0.670  11.683  19.048  0.00  0.00    +0.000 N 
ATOM     18  C   UNL     1      -1.910  12.027  18.585  0.00  0.00    +0.000 C 
ATOM     19  O   UNL     1      -2.774  12.517  19.298  0.00  0.00    +0.000 OA
ATOM     20  H   UNL     1      -0.096  11.132  18.430  0.00  0.00    +0.000 HD
BRANCH  18  21
ATOM     21  O   UNL     1      -2.033  11.729  17.269  0.00  0.00    +0.000 OA
BRANCH  21  22
ATOM     22  C   UNL     1      -3.133  10.873  16.843  0.00  0.00    +0.000 C 
ATOM     23  C   UNL     1      -4.485  11.601  16.890  0.00  0.00    +0.000 C 
ATOM     24  C   UNL     1      -2.844  10.503  15.379  0.00  0.00    +0.000 C 
ATOM     25  C   UNL     1      -3.158   9.580  17.670  0.00  0.00    +0.000 C 
ENDBRANCH  21  22
ENDBRANCH  18  21
ENDBRANCH   1  17
BRANCH   1  26
ATOM     26  C   UNL     1      -0.039  10.284  21.002  0.00  0.00    +0.000 C 
BRANCH  26  30
ATOM     27  C   UNL     1       2.337   7.610  18.523  0.00  0.00    +0.000 A 
ATOM     28  C   UNL     1       1.729   8.735  17.960  0.00  0.00    +0.000 A 
ATOM     29  C   UNL     1       0.989   9.626  18.745  0.00  0.00    +0.000 A 
ATOM     30  C   UNL     1       0.798   9.384  20.109  0.00  0.00    +0.000 A 
ATOM     31  C   UNL     1       1.454   8.277  20.676  0.00  0.00    +0.000 A 
ATOM     32  C   UNL     1       2.215   7.396  19.891  0.00  0.00    +0.000 A 
BRANCH  27  34
ATOM     33  C   UNL     1       4.382   6.931  17.513  0.00  0.00    +0.000 C 
ATOM     34  O   UNL     1       2.972   6.797  17.626  0.00  0.00    +0.000 OA
ENDBRANCH  27  34
ENDBRANCH  26  30
ENDBRANCH   1  26
TORSDOF 9
ENDMDL
MODEL 9
REMARK VINA RESULT:      -6.6      2.646      6.553
REMARK  Name = 
REMARK  13 active torsions:
REMARK  status: ('A' for Active; 'I' for Inactive)
REMARK    1  A    between atoms: C_1  and  O_2
REMARK    2  A    between atoms: O_2  and  C_3
REMARK    3  A    between atoms: C_6  and  C_7
REMARK    4  A    between atoms: C_7  and  C_8
REMARK    5  A    between atoms: C_8  and  N_9
REMARK    6  A    between atoms: C_8  and  C_17
REMARK    7  A    between atoms: C_10  and  O_12
REMARK    8  A    between atoms: O_12  and  C_13
REMARK    9  A    between atoms: C_13  and  C_14
REMARK   10  A    between atoms: C_13  and  C_15
REMARK   11  A    between atoms: C_13  and  C_16
REMARK   12  A    between atoms: C_24  and  S_25
REMARK   13  A    between atoms: S_25  and  C_26
REMARK                            x       y       z     vdW  Elec       q    Type
REMARK                         _______ _______ _______ _____ _____    ______ ____
ROOT
ATOM      1  C   UNL     1      -2.011  12.369  18.996  0.00  0.00    +0.000 C 
ENDROOT
BRANCH   1   2
ATOM      2  C   UNL     1      -3.136  11.831  18.090  0.00  0.00    +0.000 C 
ATOM      3  O   UNL     1      -2.854  11.247  17.036  0.00  0.00    +0.000 OA
ATOM      4  N   UNL     1      -4.457  11.884  18.518  0.00  0.00    +0.000 N 
ATOM      5  C   UNL     1      -5.439  11.213  17.679  0.00  0.00    +0.000 C 
ATOM      6  C   UNL     1      -6.785  11.323  18.340  0.00  0.00    +0.000 C 
ATOM      7  C   UNL     1      -6.390  11.589  19.756  0.00  0.00    +0.000 C 
ATOM      8  O   UNL     1      -7.198  11.448  20.669  0.00  0.00    +0.000 OA
ATOM      9  C   UNL     1      -4.935  12.074  19.895  0.00  0.00    +0.000 C 
BRANCH   9  10
ATOM     10  S   UNL     1      -4.884  13.821  20.420  0.00  0.00    +0.000 S 
BRANCH  10  11
ATOM     11  C   UNL     1      -3.578  13.730  21.636  0.00  0.00    +0.000 A 
ATOM     12  C   UNL     1      -2.498  14.621  21.629  0.00  0.00    +0.000 A 
ATOM     13  C   UNL     1      -1.360  14.337  22.389  0.00  0.00    +0.000 A 
ATOM     14  C   UNL     1      -1.315  13.186  23.177  0.00  0.00    +0.000 A 
ATOM     15  C   UNL     1      -2.426  12.349  23.255  0.00  0.00    +0.000 A 
ATOM     16  C   UNL     1      -3.564  12.629  22.499  0.00  0.00    +0.000 A 
ENDBRANCH  10  11
ENDBRANCH   9  10
ENDBRANCH   1   2
BRANCH   1  17
ATOM     17  N   UNL     1      -1.578  11.278  19.873  0.00  0.00    +0.000 N 
ATOM     18  C   UNL     1      -0.680  10.350  19.422  0.00  0.00    +0.000 C 
ATOM     19  O   UNL     1      -0.081  10.463  18.362  0.00  0.00    +0.000 OA
ATOM     20  H   UNL     1      -2.141  11.011  20.665  0.00  0.00    +0.000 HD
BRANCH  18  21
ATOM     21  O   UNL     1      -0.581   9.313  20.289  0.00  0.00    +0.000 OA
BRANCH  21  22
ATOM     22  C   UNL     1       0.295   9.448  21.446  0.00  0.00    +0.000 C 
ATOM     23  C   UNL     1      -0.464   9.277  22.770  0.00  0.00    +0.000 C 
ATOM     24  C   UNL     1       1.323   8.309  21.338  0.00  0.00    +0.000 C 
ATOM     25  C   UNL     1       1.050  10.784  21.395  0.00  0.00    +0.000 C 
ENDBRANCH  21  22
ENDBRANCH  18  21
ENDBRANCH   1  17
BRANCH   1  26
ATOM     26  C   UNL     1      -0.817  12.907  18.159  0.00  0.00    +0.000 C 
BRANCH  26  30
ATOM     27  C   UNL     1       1.687  16.052  19.827  0.00  0.00    +0.000 A 
ATOM     28  C   UNL     1       0.477  16.372  19.207  0.00  0.00    +0.000 A 
ATOM     29  C   UNL     1      -0.359  15.374  18.694  0.00  0.00    +0.000 A 
ATOM     30  C   UNL     1       0.021  14.030  18.746  0.00  0.00    +0.000 A 
ATOM     31  C   UNL     1       1.217  13.713  19.415  0.00  0.00    +0.000 A 
ATOM     32  C   UNL     1       2.044  14.714  19.949  0.00  0.00    +0.000 A 
BRANCH  27  34
ATOM     33  C   UNL     1       1.725  18.233  20.778  0.00  0.00    +0.000 C 
ATOM     34  O   UNL     1       2.428  17.130  20.221  0.00  0.00    +0.000 OA
ENDBRANCH  27  34
ENDBRANCH  26  30
ENDBRANCH   1  26
TORSDOF 9
ENDMDL
