MODEL 1
REMARK VINA RESULT:      -7.0      0.000      0.000
REMARK  Name = 
REMARK  7 active torsions:
REMARK  status: ('A' for Active; 'I' for Inactive)
REMARK    1  A    between atoms: C_1  and  C_2
REMARK    2  A    between atoms: C_2  and  O_4
REMARK    3  A    between atoms: O_4  and  C_5
REMARK    4  A    between atoms: C_11  and  C_12
REMARK    5  A    between atoms: C_13  and  O_14
REMARK    6  A    between atoms: C_19  and  C_20
REMARK    7  A    between atoms: C_21  and  C_22
REMARK                            x       y       z     vdW  Elec       q    Type
REMARK                         _______ _______ _______ _____ _____    ______ ____
ROOT
ATOM      1  C   UNL     1      -1.140  11.640  18.343  0.00  0.00    +0.000 C 
ATOM      2  N   UNL     1      -1.808  12.899  18.720  0.00  0.00    +0.000 N 
ATOM      3  C   UNL     1      -2.381  12.859  20.019  0.00  0.00    +0.000 A 
ATOM      4  C   UNL     1      -1.624  12.761  21.190  0.00  0.00    +0.000 A 
ATOM      5  C   UNL     1      -2.253  12.640  22.437  0.00  0.00    +0.000 A 
ATOM      6  C   UNL     1      -3.640  12.582  22.528  0.00  0.00    +0.000 A 
ATOM      7  C   UNL     1      -4.432  12.673  21.378  0.00  0.00    +0.000 A 
ATOM      8  C   UNL     1      -5.921  12.557  21.520  0.00  0.00    +0.000 C 
ATOM      9  C   UNL     1      -3.790  12.836  20.139  0.00  0.00    +0.000 A 
ATOM     10  C   UNL     1      -0.154  12.620  21.211  0.00  0.00    +0.000 C 
ATOM     11  O   UNL     1       0.496  13.167  22.099  0.00  0.00    +0.000 OA
ATOM     12  N   UNL     1       0.329  11.598  20.431  0.00  0.00    +0.000 N 
ATOM     13  C   UNL     1       0.750  10.406  20.963  0.00  0.00    +0.000 C 
ATOM     14  C   UNL     1       1.080   9.530  20.003  0.00  0.00    +0.000 C 
ATOM     15  C   UNL     1       0.983  10.196  18.650  0.00  0.00    +0.000 C 
ATOM     16  C   UNL     1       0.280  11.535  18.962  0.00  0.00    +0.000 C 
ATOM     17  H   UNL     1      -2.584  13.073  18.075  0.00  0.00    +0.000 HD
ENDROOT
BRANCH   9  18
ATOM     18  O   UNL     1      -4.499  12.922  18.962  0.00  0.00    +0.000 OA
ATOM     19  H   UNL     1      -3.901  13.217  18.256  0.00  0.00    +0.000 HD
ENDBRANCH   9  18
BRANCH  14  20
ATOM     20  C   UNL     1       1.441   8.153  20.220  0.00  0.00    +0.000 C 
ATOM     21  C   UNL     1       2.264   7.466  19.416  0.00  0.00    +0.000 C 
BRANCH  21  22
ATOM     22  C   UNL     1       2.581   6.041  19.658  0.00  0.00    +0.000 C 
ATOM     23  N   UNL     1       2.229   5.622  20.905  0.00  0.00    +0.000 N 
ATOM     24  O   UNL     1       3.111   5.304  18.844  0.00  0.00    +0.000 OA
ATOM     25  H   UNL     1       1.786   6.212  21.594  0.00  0.00    +0.000 HD
ATOM     26  H   UNL     1       2.415   4.660  21.149  0.00  0.00    +0.000 HD
ENDBRANCH  21  22
ENDBRANCH  14  20
BRANCH   1  27
ATOM     27  O   UNL     1      -1.956  10.512  18.699  0.00  0.00    +0.000 OA
BRANCH  27  29
ATOM     28  C   UNL     1      -2.227   9.817  16.479  0.00  0.00    +0.000 C 
ATOM     29  C   UNL     1      -2.882  10.117  17.794  0.00  0.00    +0.000 C 
ATOM     30  O   UNL     1      -4.084  10.034  17.994  0.00  0.00    +0.000 OA
ENDBRANCH  27  29
ENDBRANCH   1  27
TORSDOF 5
ENDMDL
MODEL 2
REMARK VINA RESULT:      -6.8      1.083      1.133
REMARK  Name = 
REMARK  7 active torsions:
REMARK  status: ('A' for Active; 'I' for Inactive)
REMARK    1  A    between atoms: C_1  and  C_2
REMARK    2  A    between atoms: C_2  and  O_4
REMARK    3  A    between atoms: O_4  and  C_5
REMARK    4  A    between atoms: C_11  and  C_12
REMARK    5  A    between atoms: C_13  and  O_14
REMARK    6  A    between atoms: C_19  and  C_20
REMARK    7  A    between atoms: C_21  and  C_22
REMARK                            x       y       z     vdW  Elec       q    Type
REMARK                         _______ _______ _______ _____ _____    ______ ____
ROOT
ATOM      1  C   UNL     1      -1.298  12.208  19.135  0.00  0.00    +0.000 C 
ATOM      2  N   UNL     1      -2.027  13.414  19.567  0.00  0.00    +0.000 N 
ATOM      3  C   UNL     1      -2.839  13.196  20.712  0.00  0.00    +0.000 A 
ATOM      4  C   UNL     1      -2.322  12.901  21.976  0.00  0.00    +0.000 A 
ATOM      5  C   UNL     1      -3.179  12.612  23.047  0.00  0.00    +0.000 A 
ATOM      6  C   UNL     1      -4.557  12.581  22.863  0.00  0.00    +0.000 A 
ATOM      7  C   UNL     1      -5.113  12.866  21.611  0.00  0.00    +0.000 A 
ATOM      8  C   UNL     1      -6.602  12.773  21.448  0.00  0.00    +0.000 C 
ATOM      9  C   UNL     1      -4.245  13.196  20.556  0.00  0.00    +0.000 A 
ATOM     10  C   UNL     1      -0.883  12.717  22.254  0.00  0.00    +0.000 C 
ATOM     11  O   UNL     1      -0.416  13.105  23.323  0.00  0.00    +0.000 OA
ATOM     12  N   UNL     1      -0.258  11.810  21.433  0.00  0.00    +0.000 N 
ATOM     13  C   UNL     1       0.054  10.540  21.846  0.00  0.00    +0.000 C 
ATOM     14  C   UNL     1       0.563   9.809  20.844  0.00  0.00    +0.000 C 
ATOM     15  C   UNL     1       0.727  10.674  19.616  0.00  0.00    +0.000 C 
ATOM     16  C   UNL     1      -0.023  11.970  19.989  0.00  0.00    +0.000 C 
ATOM     17  H   UNL     1      -2.665  13.706  18.821  0.00  0.00    +0.000 HD
ENDROOT
BRANCH   9  18
ATOM     18  O   UNL     1      -4.715  13.478  19.293  0.00  0.00    +0.000 OA
ATOM     19  H   UNL     1      -4.718  14.441  19.168  0.00  0.00    +0.000 HD
ENDBRANCH   9  18
BRANCH  14  20
ATOM     20  C   UNL     1       0.877   8.406  20.912  0.00  0.00    +0.000 C 
ATOM     21  C   UNL     1       1.864   7.831  20.212  0.00  0.00    +0.000 C 
BRANCH  21  22
ATOM     22  C   UNL     1       2.130   6.377  20.287  0.00  0.00    +0.000 C 
ATOM     23  N   UNL     1       3.345   6.032  19.777  0.00  0.00    +0.000 N 
ATOM     24  O   UNL     1       1.353   5.556  20.742  0.00  0.00    +0.000 OA
ATOM     25  H   UNL     1       4.007   6.694  19.398  0.00  0.00    +0.000 HD
ATOM     26  H   UNL     1       3.600   5.056  19.789  0.00  0.00    +0.000 HD
ENDBRANCH  21  22
ENDBRANCH  14  20
BRANCH   1  27
ATOM     27  O   UNL     1      -2.166  11.063  19.153  0.00  0.00    +0.000 OA
BRANCH  27  29
ATOM     28  C   UNL     1      -2.004   9.876  17.141  0.00  0.00    +0.000 C 
ATOM     29  C   UNL     1      -2.828  10.780  18.006  0.00  0.00    +0.000 C 
ATOM     30  O   UNL     1      -3.929  11.210  17.695  0.00  0.00    +0.000 OA
ENDBRANCH  27  29
ENDBRANCH   1  27
TORSDOF 5
ENDMDL
MODEL 3
REMARK VINA RESULT:      -6.6      6.906      9.697
REMARK  Name = 
REMARK  7 active torsions:
REMARK  status: ('A' for Active; 'I' for Inactive)
REMARK    1  A    between atoms: C_1  and  C_2
REMARK    2  A    between atoms: C_2  and  O_4
REMARK    3  A    between atoms: O_4  and  C_5
REMARK    4  A    between atoms: C_11  and  C_12
REMARK    5  A    between atoms: C_13  and  O_14
REMARK    6  A    between atoms: C_19  and  C_20
REMARK    7  A    between atoms: C_21  and  C_22
REMARK                            x       y       z     vdW  Elec       q    Type
REMARK                         _______ _______ _______ _____ _____    ______ ____
ROOT
ATOM      1  C   UNL     1       5.776   4.598  17.111  0.00  0.00    +0.000 C 
ATOM      2  N   UNL     1       4.401   4.066  17.126  0.00  0.00    +0.000 N 
ATOM      3  C   UNL     1       3.614   4.582  18.190  0.00  0.00    +0.000 A 
ATOM      4  C   UNL     1       3.233   5.924  18.283  0.00  0.00    +0.000 A 
ATOM      5  C   UNL     1       2.528   6.388  19.403  0.00  0.00    +0.000 A 
ATOM      6  C   UNL     1       2.226   5.530  20.455  0.00  0.00    +0.000 A 
ATOM      7  C   UNL     1       2.595   4.182  20.401  0.00  0.00    +0.000 A 
ATOM      8  C   UNL     1       2.290   3.306  21.581  0.00  0.00    +0.000 C 
ATOM      9  C   UNL     1       3.263   3.720  19.255  0.00  0.00    +0.000 A 
ATOM     10  C   UNL     1       3.656   6.968  17.328  0.00  0.00    +0.000 C 
ATOM     11  O   UNL     1       2.876   7.869  17.029  0.00  0.00    +0.000 OA
ATOM     12  N   UNL     1       5.013   7.035  17.125  0.00  0.00    +0.000 N 
ATOM     13  C   UNL     1       5.794   8.006  17.697  0.00  0.00    +0.000 C 
ATOM     14  C   UNL     1       7.094   7.806  17.439  0.00  0.00    +0.000 C 
ATOM     15  C   UNL     1       7.252   6.631  16.501  0.00  0.00    +0.000 C 
ATOM     16  C   UNL     1       5.839   6.009  16.468  0.00  0.00    +0.000 C 
ATOM     17  H   UNL     1       4.435   3.052  17.267  0.00  0.00    +0.000 HD
ENDROOT
BRANCH   9  18
ATOM     18  O   UNL     1       3.668   2.410  19.131  0.00  0.00    +0.000 OA
ATOM     19  H   UNL     1       4.139   2.149  19.940  0.00  0.00    +0.000 HD
ENDBRANCH   9  18
BRANCH  14  20
ATOM     20  C   UNL     1       8.181   8.570  17.993  0.00  0.00    +0.000 C 
ATOM     21  C   UNL     1       8.265   9.905  17.913  0.00  0.00    +0.000 C 
BRANCH  21  22
ATOM     22  C   UNL     1       9.419  10.649  18.468  0.00  0.00    +0.000 C 
ATOM     23  N   UNL     1       9.498  10.573  19.825  0.00  0.00    +0.000 N 
ATOM     24  O   UNL     1      10.219  11.279  17.798  0.00  0.00    +0.000 OA
ATOM     25  H   UNL     1       8.849  10.054  20.400  0.00  0.00    +0.000 HD
ATOM     26  H   UNL     1      10.257  11.057  20.280  0.00  0.00    +0.000 HD
ENDBRANCH  21  22
ENDBRANCH  14  20
BRANCH   1  27
ATOM     27  O   UNL     1       6.329   4.596  18.437  0.00  0.00    +0.000 OA
BRANCH  27  29
ATOM     28  C   UNL     1       8.128   5.330  19.745  0.00  0.00    +0.000 C 
ATOM     29  C   UNL     1       7.679   4.566  18.536  0.00  0.00    +0.000 C 
ATOM     30  O   UNL     1       8.439   4.019  17.751  0.00  0.00    +0.000 OA
ENDBRANCH  27  29
ENDBRANCH   1  27
TORSDOF 5
ENDMDL
MODEL 4
REMARK VINA RESULT:      -6.5      4.283     10.069
REMARK  Name = 
REMARK  7 active torsions:
REMARK  status: ('A' for Active; 'I' for Inactive)
REMARK    1  A    between atoms: C_1  and  C_2
REMARK    2  A    between atoms: C_2  and  O_4
REMARK    3  A    between atoms: O_4  and  C_5
REMARK    4  A    between atoms: C_11  and  C_12
REMARK    5  A    between atoms: C_13  and  O_14
REMARK    6  A    between atoms: C_19  and  C_20
REMARK    7  A    between atoms: C_21  and  C_22
REMARK                            x       y       z     vdW  Elec       q    Type
REMARK                         _______ _______ _______ _____ _____    ______ ____
ROOT
ATOM      1  C   UNL     1       4.264   4.339  18.239  0.00  0.00    +0.000 C 
ATOM      2  N   UNL     1       5.563   3.829  17.762  0.00  0.00    +0.000 N 
ATOM      3  C   UNL     1       5.927   4.336  16.485  0.00  0.00    +0.000 A 
ATOM      4  C   UNL     1       6.223   5.681  16.250  0.00  0.00    +0.000 A 
ATOM      5  C   UNL     1       6.493   6.135  14.950  0.00  0.00    +0.000 A 
ATOM      6  C   UNL     1       6.436   5.261  13.869  0.00  0.00    +0.000 A 
ATOM      7  C   UNL     1       6.137   3.908  14.065  0.00  0.00    +0.000 A 
ATOM      8  C   UNL     1       6.039   3.013  12.864  0.00  0.00    +0.000 C 
ATOM      9  C   UNL     1       5.911   3.458  15.377  0.00  0.00    +0.000 A 
ATOM     10  C   UNL     1       6.130   6.738  17.278  0.00  0.00    +0.000 C 
ATOM     11  O   UNL     1       6.946   7.657  17.280  0.00  0.00    +0.000 OA
ATOM     12  N   UNL     1       4.923   6.787  17.932  0.00  0.00    +0.000 N 
ATOM     13  C   UNL     1       3.973   7.734  17.648  0.00  0.00    +0.000 C 
ATOM     14  C   UNL     1       2.844   7.518  18.339  0.00  0.00    +0.000 C 
ATOM     15  C   UNL     1       3.042   6.361  19.290  0.00  0.00    +0.000 C 
ATOM     16  C   UNL     1       4.394   5.762  18.846  0.00  0.00    +0.000 C 
ATOM     17  H   UNL     1       5.505   2.812  17.654  0.00  0.00    +0.000 HD
ENDROOT
BRANCH   9  18
ATOM     18  O   UNL     1       5.602   2.144  15.649  0.00  0.00    +0.000 OA
ATOM     19  H   UNL     1       4.747   2.112  16.109  0.00  0.00    +0.000 HD
ENDBRANCH   9  18
BRANCH  14  20
ATOM     20  C   UNL     1       1.617   8.254  18.180  0.00  0.00    +0.000 C 
ATOM     21  C   UNL     1       1.296   9.329  18.913  0.00  0.00    +0.000 C 
BRANCH  21  22
ATOM     22  C   UNL     1       0.007  10.035  18.739  0.00  0.00    +0.000 C 
ATOM     23  N   UNL     1      -0.439  10.020  17.453  0.00  0.00    +0.000 N 
ATOM     24  O   UNL     1      -0.603  10.589  19.638  0.00  0.00    +0.000 OA
ATOM     25  H   UNL     1       0.046   9.565  16.693  0.00  0.00    +0.000 HD
ATOM     26  H   UNL     1      -1.313  10.484  17.251  0.00  0.00    +0.000 HD
ENDBRANCH  21  22
ENDBRANCH  14  20
BRANCH   1  27
ATOM     27  O   UNL     1       3.291   4.302  17.182  0.00  0.00    +0.000 OA
BRANCH  27  29
ATOM     28  C   UNL     1       2.456   2.197  17.782  0.00  0.00    +0.000 C 
ATOM     29  C   UNL     1       2.147   3.621  17.428  0.00  0.00    +0.000 C 
ATOM     30  O   UNL     1       1.017   4.077  17.355  0.00  0.00    +0.000 OA
ENDBRANCH  27  29
ENDBRANCH   1  27
TORSDOF 5
ENDMDL
MODEL 5
REMARK VINA RESULT:      -6.1      2.710      5.663
REMARK  Name = 
REMARK  7 active torsions:
REMARK  status: ('A' for Active; 'I' for Inactive)
REMARK    1  A    between atoms: C_1  and  C_2
REMARK    2  A    between atoms: C_2  and  O_4
REMARK    3  A    between atoms: O_4  and  C_5
REMARK    4  A    between atoms: C_11  and  C_12
REMARK    5  A    between atoms: C_13  and  O_14
REMARK    6  A    between atoms: C_19  and  C_20
REMARK    7  A    between atoms: C_21  and  C_22
REMARK                            x       y       z     vdW  Elec       q    Type
REMARK                         _______ _______ _______ _____ _____    ______ ____
ROOT
ATOM      1  C   UNL     1      -0.065  10.668  19.486  0.00  0.00    +0.000 C 
ATOM      2  N   UNL     1       0.114  11.354  20.779  0.00  0.00    +0.000 N 
ATOM      3  C   UNL     1      -0.114  12.754  20.704  0.00  0.00    +0.000 A 
ATOM      4  C   UNL     1      -1.366  13.314  20.435  0.00  0.00    +0.000 A 
ATOM      5  C   UNL     1      -1.509  14.702  20.290  0.00  0.00    +0.000 A 
ATOM      6  C   UNL     1      -0.403  15.541  20.379  0.00  0.00    +0.000 A 
ATOM      7  C   UNL     1       0.867  15.016  20.642  0.00  0.00    +0.000 A 
ATOM      8  C   UNL     1       2.038  15.955  20.680  0.00  0.00    +0.000 C 
ATOM      9  C   UNL     1       0.990  13.629  20.827  0.00  0.00    +0.000 A 
ATOM     10  C   UNL     1      -2.575  12.522  20.133  0.00  0.00    +0.000 C 
ATOM     11  O   UNL     1      -3.670  12.908  20.537  0.00  0.00    +0.000 OA
ATOM     12  N   UNL     1      -2.414  11.603  19.125  0.00  0.00    +0.000 N 
ATOM     13  C   UNL     1      -2.893  11.812  17.858  0.00  0.00    +0.000 C 
ATOM     14  C   UNL     1      -2.526  10.827  17.025  0.00  0.00    +0.000 C 
ATOM     15  C   UNL     1      -1.797   9.752  17.799  0.00  0.00    +0.000 C 
ATOM     16  C   UNL     1      -1.564  10.403  19.179  0.00  0.00    +0.000 C 
ATOM     17  H   UNL     1       1.085  11.243  21.085  0.00  0.00    +0.000 HD
ENDROOT
BRANCH   9  18
ATOM     18  O   UNL     1       2.207  13.037  21.079  0.00  0.00    +0.000 OA
ATOM     19  H   UNL     1       2.652  13.524  21.791  0.00  0.00    +0.000 HD
ENDBRANCH   9  18
BRANCH  14  20
ATOM     20  C   UNL     1      -2.760  10.806  15.605  0.00  0.00    +0.000 C 
ATOM     21  C   UNL     1      -3.059   9.694  14.919  0.00  0.00    +0.000 C 
BRANCH  21  22
ATOM     22  C   UNL     1      -3.258   9.712  13.452  0.00  0.00    +0.000 C 
ATOM     23  N   UNL     1      -4.551   9.939  13.094  0.00  0.00    +0.000 N 
ATOM     24  O   UNL     1      -2.372   9.534  12.634  0.00  0.00    +0.000 OA
ATOM     25  H   UNL     1      -5.301  10.093  13.753  0.00  0.00    +0.000 HD
ATOM     26  H   UNL     1      -4.770   9.964  12.109  0.00  0.00    +0.000 HD
ENDBRANCH  21  22
ENDBRANCH  14  20
BRANCH   1  27
ATOM     27  O   UNL     1       0.566  11.412  18.431  0.00  0.00    +0.000 OA
BRANCH  27  29
ATOM     28  C   UNL     1       1.999   9.628  17.929  0.00  0.00    +0.000 C 
ATOM     29  C   UNL     1       1.855  11.103  18.152  0.00  0.00    +0.000 C 
ATOM     30  O   UNL     1       2.784  11.895  18.107  0.00  0.00    +0.000 OA
ENDBRANCH  27  29
ENDBRANCH   1  27
TORSDOF 5
ENDMDL
MODEL 6
REMARK VINA RESULT:      -6.1      3.329      4.862
REMARK  Name = 
REMARK  7 active torsions:
REMARK  status: ('A' for Active; 'I' for Inactive)
REMARK    1  A    between atoms: C_1  and  C_2
REMARK    2  A    between atoms: C_2  and  O_4
REMARK    3  A    between atoms: O_4  and  C_5
REMARK    4  A    between atoms: C_11  and  C_12
REMARK    5  A    between atoms: C_13  and  O_14
REMARK    6  A    between atoms: C_19  and  C_20
REMARK    7  A    between atoms: C_21  and  C_22
REMARK                            x       y       z     vdW  Elec       q    Type
REMARK                         _______ _______ _______ _____ _____    ______ ____
ROOT
ATOM      1  C   UNL     1       0.234  13.677  20.729  0.00  0.00    +0.000 C 
ATOM      2  N   UNL     1       0.261  13.939  22.179  0.00  0.00    +0.000 N 
ATOM      3  C   UNL     1      -0.947  13.580  22.835  0.00  0.00    +0.000 A 
ATOM      4  C   UNL     1      -1.394  12.262  22.952  0.00  0.00    +0.000 A 
ATOM      5  C   UNL     1      -2.638  11.980  23.536  0.00  0.00    +0.000 A 
ATOM      6  C   UNL     1      -3.462  13.011  23.978  0.00  0.00    +0.000 A 
ATOM      7  C   UNL     1      -3.051  14.344  23.872  0.00  0.00    +0.000 A 
ATOM      8  C   UNL     1      -3.994  15.423  24.317  0.00  0.00    +0.000 C 
ATOM      9  C   UNL     1      -1.785  14.610  23.324  0.00  0.00    +0.000 A 
ATOM     10  C   UNL     1      -0.703  11.101  22.356  0.00  0.00    +0.000 C 
ATOM     11  O   UNL     1      -0.688  10.029  22.956  0.00  0.00    +0.000 OA
ATOM     12  N   UNL     1      -0.434  11.229  21.015  0.00  0.00    +0.000 N 
ATOM     13  C   UNL     1      -1.178  10.593  20.054  0.00  0.00    +0.000 C 
ATOM     14  C   UNL     1      -0.793  10.949  18.820  0.00  0.00    +0.000 C 
ATOM     15  C   UNL     1       0.415  11.853  18.904  0.00  0.00    +0.000 C 
ATOM     16  C   UNL     1       0.509  12.182  20.410  0.00  0.00    +0.000 C 
ATOM     17  H   UNL     1       0.379  14.945  22.336  0.00  0.00    +0.000 HD
ENDROOT
BRANCH   9  18
ATOM     18  O   UNL     1      -1.314  15.895  23.178  0.00  0.00    +0.000 OA
ATOM     19  H   UNL     1      -1.984  16.514  23.509  0.00  0.00    +0.000 HD
ENDBRANCH   9  18
BRANCH  14  20
ATOM     20  C   UNL     1      -1.448  10.560  17.598  0.00  0.00    +0.000 C 
ATOM     21  C   UNL     1      -2.439  11.261  17.031  0.00  0.00    +0.000 C 
BRANCH  21  22
ATOM     22  C   UNL     1      -3.108  10.805  15.792  0.00  0.00    +0.000 C 
ATOM     23  N   UNL     1      -4.466  10.848  15.874  0.00  0.00    +0.000 N 
ATOM     24  O   UNL     1      -2.523  10.418  14.795  0.00  0.00    +0.000 OA
ATOM     25  H   UNL     1      -4.972  11.168  16.687  0.00  0.00    +0.000 HD
ATOM     26  H   UNL     1      -4.996  10.550  15.069  0.00  0.00    +0.000 HD
ENDBRANCH  21  22
ENDBRANCH  14  20
BRANCH   1  27
ATOM     27  O   UNL     1      -1.011  14.117  20.163  0.00  0.00    +0.000 OA
BRANCH  27  29
ATOM     28  C   UNL     1       0.000  15.677  18.738  0.00  0.00    +0.000 C 
ATOM     29  C   UNL     1      -1.074  15.404  19.748  0.00  0.00    +0.000 C 
ATOM     30  O   UNL     1      -1.868  16.243  20.145  0.00  0.00    +0.000 OA
ENDBRANCH  27  29
ENDBRANCH   1  27
TORSDOF 5
ENDMDL
MODEL 7
REMARK VINA RESULT:      -6.0      3.935      6.640
REMARK  Name = 
REMARK  7 active torsions:
REMARK  status: ('A' for Active; 'I' for Inactive)
REMARK    1  A    between atoms: C_1  and  C_2
REMARK    2  A    between atoms: C_2  and  O_4
REMARK    3  A    between atoms: O_4  and  C_5
REMARK    4  A    between atoms: C_11  and  C_12
REMARK    5  A    between atoms: C_13  and  O_14
REMARK    6  A    between atoms: C_19  and  C_20
REMARK    7  A    between atoms: C_21  and  C_22
REMARK                            x       y       z     vdW  Elec       q    Type
REMARK                         _______ _______ _______ _____ _____    ______ ____
ROOT
ATOM      1  C   UNL     1      -0.968  12.692  21.259  0.00  0.00    +0.000 C 
ATOM      2  N   UNL     1       0.131  13.577  20.833  0.00  0.00    +0.000 N 
ATOM      3  C   UNL     1      -0.230  14.952  20.827  0.00  0.00    +0.000 A 
ATOM      4  C   UNL     1      -0.533  15.671  21.986  0.00  0.00    +0.000 A 
ATOM      5  C   UNL     1      -0.964  17.003  21.905  0.00  0.00    +0.000 A 
ATOM      6  C   UNL     1      -1.132  17.620  20.669  0.00  0.00    +0.000 A 
ATOM      7  C   UNL     1      -0.844  16.930  19.487  0.00  0.00    +0.000 A 
ATOM      8  C   UNL     1      -1.086  17.619  18.176  0.00  0.00    +0.000 C 
ATOM      9  C   UNL     1      -0.371  15.610  19.583  0.00  0.00    +0.000 A 
ATOM     10  C   UNL     1      -0.577  15.076  23.337  0.00  0.00    +0.000 C 
ATOM     11  O   UNL     1      -0.196  15.734  24.303  0.00  0.00    +0.000 OA
ATOM     12  N   UNL     1      -1.370  13.959  23.439  0.00  0.00    +0.000 N 
ATOM     13  C   UNL     1      -2.619  13.995  24.004  0.00  0.00    +0.000 C 
ATOM     14  C   UNL     1      -3.240  12.812  23.897  0.00  0.00    +0.000 C 
ATOM     15  C   UNL     1      -2.302  11.798  23.286  0.00  0.00    +0.000 C 
ATOM     16  C   UNL     1      -1.113  12.657  22.804  0.00  0.00    +0.000 C 
ATOM     17  H   UNL     1       0.391  13.350  19.869  0.00  0.00    +0.000 HD
ENDROOT
BRANCH   9  18
ATOM     18  O   UNL     1      -0.076  14.863  18.465  0.00  0.00    +0.000 OA
ATOM     19  H   UNL     1      -0.501  15.271  17.694  0.00  0.00    +0.000 HD
ENDBRANCH   9  18
BRANCH  14  20
ATOM     20  C   UNL     1      -4.604  12.550  24.276  0.00  0.00    +0.000 C 
ATOM     21  C   UNL     1      -5.663  12.960  23.565  0.00  0.00    +0.000 C 
BRANCH  21  22
ATOM     22  C   UNL     1      -7.051  12.698  24.009  0.00  0.00    +0.000 C 
ATOM     23  N   UNL     1      -7.616  13.763  24.641  0.00  0.00    +0.000 N 
ATOM     24  O   UNL     1      -7.640  11.643  23.847  0.00  0.00    +0.000 OA
ATOM     25  H   UNL     1      -7.150  14.648  24.784  0.00  0.00    +0.000 HD
ATOM     26  H   UNL     1      -8.563  13.663  24.977  0.00  0.00    +0.000 HD
ENDBRANCH  21  22
ENDBRANCH  14  20
BRANCH   1  27
ATOM     27  O   UNL     1      -2.198  13.076  20.622  0.00  0.00    +0.000 OA
BRANCH  27  29
ATOM     28  C   UNL     1      -3.943  12.141  19.371  0.00  0.00    +0.000 C 
ATOM     29  C   UNL     1      -2.485  12.483  19.440  0.00  0.00    +0.000 C 
ATOM     30  O   UNL     1      -1.682  12.232  18.554  0.00  0.00    +0.000 OA
ENDBRANCH  27  29
ENDBRANCH   1  27
TORSDOF 5
ENDMDL
MODEL 8
REMARK VINA RESULT:      -5.9      2.968      5.722
REMARK  Name = 
REMARK  7 active torsions:
REMARK  status: ('A' for Active; 'I' for Inactive)
REMARK    1  A    between atoms: C_1  and  C_2
REMARK    2  A    between atoms: C_2  and  O_4
REMARK    3  A    between atoms: O_4  and  C_5
REMARK    4  A    between atoms: C_11  and  C_12
REMARK    5  A    between atoms: C_13  and  O_14
REMARK    6  A    between atoms: C_19  and  C_20
REMARK    7  A    between atoms: C_21  and  C_22
REMARK                            x       y       z     vdW  Elec       q    Type
REMARK                         _______ _______ _______ _____ _____    ______ ____
ROOT
ATOM      1  C   UNL     1       0.477  11.175  19.768  0.00  0.00    +0.000 C 
ATOM      2  N   UNL     1       0.878  12.255  20.687  0.00  0.00    +0.000 N 
ATOM      3  C   UNL     1       0.581  13.552  20.188  0.00  0.00    +0.000 A 
ATOM      4  C   UNL     1      -0.721  14.023  19.999  0.00  0.00    +0.000 A 
ATOM      5  C   UNL     1      -0.947  15.281  19.422  0.00  0.00    +0.000 A 
ATOM      6  C   UNL     1       0.119  16.068  18.998  0.00  0.00    +0.000 A 
ATOM      7  C   UNL     1       1.437  15.628  19.167  0.00  0.00    +0.000 A 
ATOM      8  C   UNL     1       2.552  16.490  18.650  0.00  0.00    +0.000 C 
ATOM      9  C   UNL     1       1.651  14.385  19.784  0.00  0.00    +0.000 A 
ATOM     10  C   UNL     1      -1.932  13.210  20.230  0.00  0.00    +0.000 C 
ATOM     11  O   UNL     1      -2.942  13.741  20.688  0.00  0.00    +0.000 OA
ATOM     12  N   UNL     1      -1.934  11.997  19.585  0.00  0.00    +0.000 N 
ATOM     13  C   UNL     1      -2.661  11.774  18.444  0.00  0.00    +0.000 C 
ATOM     14  C   UNL     1      -2.424  10.554  17.941  0.00  0.00    +0.000 C 
ATOM     15  C   UNL     1      -1.513   9.788  18.872  0.00  0.00    +0.000 C 
ATOM     16  C   UNL     1      -1.041  10.864  19.874  0.00  0.00    +0.000 C 
ATOM     17  H   UNL     1       1.894  12.228  20.814  0.00  0.00    +0.000 HD
ENDROOT
BRANCH   9  18
ATOM     18  O   UNL     1       2.917  13.879  19.975  0.00  0.00    +0.000 OA
ATOM     19  H   UNL     1       3.566  14.559  19.732  0.00  0.00    +0.000 HD
ENDBRANCH   9  18
BRANCH  14  20
ATOM     20  C   UNL     1      -2.930  10.057  16.689  0.00  0.00    +0.000 C 
ATOM     21  C   UNL     1      -2.576  10.552  15.495  0.00  0.00    +0.000 C 
BRANCH  21  22
ATOM     22  C   UNL     1      -3.148  10.032  14.233  0.00  0.00    +0.000 C 
ATOM     23  N   UNL     1      -4.507   9.942  14.263  0.00  0.00    +0.000 N 
ATOM     24  O   UNL     1      -2.490   9.703  13.261  0.00  0.00    +0.000 OA
ATOM     25  H   UNL     1      -5.073  10.212  15.054  0.00  0.00    +0.000 HD
ATOM     26  H   UNL     1      -4.974   9.593  13.439  0.00  0.00    +0.000 HD
ENDBRANCH  21  22
ENDBRANCH  14  20
BRANCH   1  27
ATOM     27  O   UNL     1       0.858  11.496  18.420  0.00  0.00    +0.000 OA
BRANCH  27  29
ATOM     28  C   UNL     1       2.117   9.583  17.928  0.00  0.00    +0.000 C 
ATOM     29  C   UNL     1       2.080  11.079  18.014  0.00  0.00    +0.000 C 
ATOM     30  O   UNL     1       3.035  11.801  17.771  0.00  0.00    +0.000 OA
ENDBRANCH  27  29
ENDBRANCH   1  27
TORSDOF 5
ENDMDL
MODEL 9
REMARK VINA RESULT:      -5.9      9.582     10.999
REMARK  Name = 
REMARK  7 active torsions:
REMARK  status: ('A' for Active; 'I' for Inactive)
REMARK    1  A    between atoms: C_1  and  C_2
REMARK    2  A    between atoms: C_2  and  O_4
REMARK    3  A    between atoms: O_4  and  C_5
REMARK    4  A    between atoms: C_11  and  C_12
REMARK    5  A    between atoms: C_13  and  O_14
REMARK    6  A    between atoms: C_19  and  C_20
REMARK    7  A    between atoms: C_21  and  C_22
REMARK                            x       y       z     vdW  Elec       q    Type
REMARK                         _______ _______ _______ _____ _____    ______ ____
ROOT
ATOM      1  C   UNL     1      10.941  13.830  19.734  0.00  0.00    +0.000 C 
ATOM      2  N   UNL     1      10.925  14.882  20.767  0.00  0.00    +0.000 N 
ATOM      3  C   UNL     1       9.623  15.152  21.269  0.00  0.00    +0.000 A 
ATOM      4  C   UNL     1       8.881  14.231  22.013  0.00  0.00    +0.000 A 
ATOM      5  C   UNL     1       7.568  14.527  22.407  0.00  0.00    +0.000 A 
ATOM      6  C   UNL     1       6.970  15.727  22.036  0.00  0.00    +0.000 A 
ATOM      7  C   UNL     1       7.680  16.672  21.287  0.00  0.00    +0.000 A 
ATOM      8  C   UNL     1       6.978  17.930  20.868  0.00  0.00    +0.000 C 
ATOM      9  C   UNL     1       9.009  16.381  20.935  0.00  0.00    +0.000 A 
ATOM     10  C   UNL     1       9.331  12.856  22.307  0.00  0.00    +0.000 C 
ATOM     11  O   UNL     1       9.060  12.347  23.392  0.00  0.00    +0.000 OA
ATOM     12  N   UNL     1       9.716  12.137  21.201  0.00  0.00    +0.000 N 
ATOM     13  C   UNL     1       8.917  11.175  20.637  0.00  0.00    +0.000 C 
ATOM     14  C   UNL     1       9.459  10.685  19.513  0.00  0.00    +0.000 C 
ATOM     15  C   UNL     1      10.831  11.283  19.307  0.00  0.00    +0.000 C 
ATOM     16  C   UNL     1      10.892  12.410  20.360  0.00  0.00    +0.000 C 
ATOM     17  H   UNL     1      11.256  15.760  20.357  0.00  0.00    +0.000 HD
ENDROOT
BRANCH   9  18
ATOM     18  O   UNL     1       9.769  17.255  20.190  0.00  0.00    +0.000 OA
ATOM     19  H   UNL     1      10.696  16.969  20.220  0.00  0.00    +0.000 HD
ENDBRANCH   9  18
BRANCH  14  20
ATOM     20  C   UNL     1       8.821   9.756  18.617  0.00  0.00    +0.000 C 
ATOM     21  C   UNL     1       8.558   8.481  18.935  0.00  0.00    +0.000 C 
BRANCH  21  22
ATOM     22  C   UNL     1       7.931   7.549  17.971  0.00  0.00    +0.000 C 
ATOM     23  N   UNL     1       7.717   6.310  18.491  0.00  0.00    +0.000 N 
ATOM     24  O   UNL     1       7.639   7.838  16.823  0.00  0.00    +0.000 OA
ATOM     25  H   UNL     1       7.947   6.048  19.439  0.00  0.00    +0.000 HD
ATOM     26  H   UNL     1       7.294   5.614  17.894  0.00  0.00    +0.000 HD
ENDBRANCH  21  22
ENDBRANCH  14  20
BRANCH   1  27
ATOM     27  O   UNL     1       9.871  14.032  18.796  0.00  0.00    +0.000 OA
BRANCH  27  29
ATOM     28  C   UNL     1      11.246  14.139  16.903  0.00  0.00    +0.000 C 
ATOM     29  C   UNL     1      10.150  14.778  17.702  0.00  0.00    +0.000 C 
ATOM     30  O   UNL     1       9.613  15.834  17.404  0.00  0.00    +0.000 OA
ENDBRANCH  27  29
ENDBRANCH   1  27
TORSDOF 5
ENDMDL
