MODEL 1
REMARK VINA RESULT:      -5.6      0.000      0.000
REMARK  Name = 
REMARK  15 active torsions:
REMARK  status: ('A' for Active; 'I' for Inactive)
REMARK    1  A    between atoms: C_1  and  O_2
REMARK    2  A    between atoms: O_2  and  C_3
REMARK    3  A    between atoms: C_3  and  C_4
REMARK    4  A    between atoms: C_4  and  N_5
REMARK    5  A    between atoms: C_7  and  C_8
REMARK    6  A    between atoms: C_8  and  O_10
REMARK    7  A    between atoms: O_10  and  C_11
REMARK    8  A    between atoms: C_12  and  C_13
REMARK    9  A    between atoms: C_16  and  O_17
REMARK   10  A    between atoms: O_17  and  C_18
REMARK   11  A    between atoms: C_19  and  O_20
REMARK   12  A    between atoms: O_20  and  C_21
REMARK   13  A    between atoms: C_23  and  C_24
REMARK   14  A    between atoms: C_24  and  O_26
REMARK   15  A    between atoms: O_26  and  C_27
REMARK                            x       y       z     vdW  Elec       q    Type
REMARK                         _______ _______ _______ _____ _____    ______ ____
ROOT
ATOM      1  N   UNL     1       5.694   3.937  15.522  0.00  0.00    +0.000 N 
ATOM      2  C   UNL     1       6.308   4.868  16.343  0.00  0.00    +0.000 C 
ATOM      3  C   UNL     1       5.845   5.229  17.557  0.00  0.00    +0.000 C 
ATOM      4  C   UNL     1       4.598   4.552  18.141  0.00  0.00    +0.000 C 
ATOM      5  C   UNL     1       3.856   3.728  17.076  0.00  0.00    +0.000 C 
ATOM      6  C   UNL     1       4.435   3.471  15.888  0.00  0.00    +0.000 C 
ENDROOT
BRANCH   4   7
ATOM      7  C   UNL     1       3.673   5.545  18.836  0.00  0.00    +0.000 A 
ATOM      8  C   UNL     1       3.273   5.334  20.160  0.00  0.00    +0.000 A 
ATOM      9  C   UNL     1       2.371   6.209  20.761  0.00  0.00    +0.000 A 
ATOM     10  C   UNL     1       1.856   7.309  20.060  0.00  0.00    +0.000 A 
ATOM     11  C   UNL     1       2.255   7.535  18.729  0.00  0.00    +0.000 A 
ATOM     12  C   UNL     1       3.167   6.649  18.139  0.00  0.00    +0.000 A 
BRANCH  10  13
ATOM     13  O   UNL     1       0.985   8.041  20.826  0.00  0.00    +0.000 OA
ATOM     14  C   UNL     1       1.516   8.973  21.751  0.00  0.00    +0.000 C 
ENDBRANCH  10  13
BRANCH  11  15
ATOM     15  O   UNL     1       1.728   8.597  18.044  0.00  0.00    +0.000 OA
ATOM     16  C   UNL     1       2.405   9.846  18.127  0.00  0.00    +0.000 C 
ENDBRANCH  11  15
ENDBRANCH   4   7
BRANCH   3  17
ATOM     17  C   UNL     1       6.580   6.284  18.297  0.00  0.00    +0.000 C 
ATOM     18  O   UNL     1       7.130   6.123  19.376  0.00  0.00    +0.000 OA
BRANCH  17  19
ATOM     19  O   UNL     1       6.525   7.456  17.603  0.00  0.00    +0.000 OA
ATOM     20  C   UNL     1       7.721   8.234  17.570  0.00  0.00    +0.000 C 
ENDBRANCH  17  19
ENDBRANCH   3  17
BRANCH   5  21
ATOM     21  C   UNL     1       2.460   3.241  17.224  0.00  0.00    +0.000 C 
ATOM     22  O   UNL     1       1.480   3.886  16.887  0.00  0.00    +0.000 OA
BRANCH  21  23
ATOM     23  O   UNL     1       2.426   2.005  17.778  0.00  0.00    +0.000 OA
ATOM     24  C   UNL     1       1.980   1.982  19.137  0.00  0.00    +0.000 C 
ENDBRANCH  21  23
ENDBRANCH   5  21
BRANCH   1  25
ATOM     25  C   UNL     1       6.331   3.509  14.258  0.00  0.00    +0.000 C 
BRANCH  25  26
ATOM     26  C   UNL     1       5.603   4.066  13.020  0.00  0.00    +0.000 C 
BRANCH  26  28
ATOM     27  C   UNL     1       4.252   3.070  11.368  0.00  0.00    +0.000 C 
ATOM     28  O   UNL     1       5.530   3.076  11.990  0.00  0.00    +0.000 OA
ENDBRANCH  26  28
ENDBRANCH  25  26
ENDBRANCH   1  25
TORSDOF 10
ENDMDL
MODEL 2
REMARK VINA RESULT:      -5.5      0.707      1.035
REMARK  Name = 
REMARK  15 active torsions:
REMARK  status: ('A' for Active; 'I' for Inactive)
REMARK    1  A    between atoms: C_1  and  O_2
REMARK    2  A    between atoms: O_2  and  C_3
REMARK    3  A    between atoms: C_3  and  C_4
REMARK    4  A    between atoms: C_4  and  N_5
REMARK    5  A    between atoms: C_7  and  C_8
REMARK    6  A    between atoms: C_8  and  O_10
REMARK    7  A    between atoms: O_10  and  C_11
REMARK    8  A    between atoms: C_12  and  C_13
REMARK    9  A    between atoms: C_16  and  O_17
REMARK   10  A    between atoms: O_17  and  C_18
REMARK   11  A    between atoms: C_19  and  O_20
REMARK   12  A    between atoms: O_20  and  C_21
REMARK   13  A    between atoms: C_23  and  C_24
REMARK   14  A    between atoms: C_24  and  O_26
REMARK   15  A    between atoms: O_26  and  C_27
REMARK                            x       y       z     vdW  Elec       q    Type
REMARK                         _______ _______ _______ _____ _____    ______ ____
ROOT
ATOM      1  N   UNL     1       6.046   4.196  15.036  0.00  0.00    +0.000 N 
ATOM      2  C   UNL     1       6.559   5.266  15.750  0.00  0.00    +0.000 C 
ATOM      3  C   UNL     1       6.150   5.618  16.986  0.00  0.00    +0.000 C 
ATOM      4  C   UNL     1       5.097   4.776  17.720  0.00  0.00    +0.000 C 
ATOM      5  C   UNL     1       4.419   3.774  16.771  0.00  0.00    +0.000 C 
ATOM      6  C   UNL     1       4.925   3.546  15.545  0.00  0.00    +0.000 C 
ENDROOT
BRANCH   4   7
ATOM      7  C   UNL     1       4.079   5.638  18.456  0.00  0.00    +0.000 A 
ATOM      8  C   UNL     1       3.759   5.372  19.792  0.00  0.00    +0.000 A 
ATOM      9  C   UNL     1       2.774   6.120  20.433  0.00  0.00    +0.000 A 
ATOM     10  C   UNL     1       2.096   7.147  19.762  0.00  0.00    +0.000 A 
ATOM     11  C   UNL     1       2.413   7.429  18.419  0.00  0.00    +0.000 A 
ATOM     12  C   UNL     1       3.408   6.670  17.789  0.00  0.00    +0.000 A 
BRANCH  10  13
ATOM     13  O   UNL     1       1.167   7.758  20.566  0.00  0.00    +0.000 OA
ATOM     14  C   UNL     1       1.584   8.837  21.383  0.00  0.00    +0.000 C 
ENDBRANCH  10  13
BRANCH  11  15
ATOM     15  O   UNL     1       1.728   8.417  17.763  0.00  0.00    +0.000 OA
ATOM     16  C   UNL     1       2.215   9.750  17.872  0.00  0.00    +0.000 C 
ENDBRANCH  11  15
ENDBRANCH   4   7
BRANCH   3  17
ATOM     17  C   UNL     1       6.752   6.825  17.602  0.00  0.00    +0.000 C 
ATOM     18  O   UNL     1       6.327   7.962  17.466  0.00  0.00    +0.000 OA
BRANCH  17  19
ATOM     19  O   UNL     1       7.858   6.473  18.317  0.00  0.00    +0.000 OA
ATOM     20  C   UNL     1       7.634   5.728  19.513  0.00  0.00    +0.000 C 
ENDBRANCH  17  19
ENDBRANCH   3  17
BRANCH   5  21
ATOM     21  C   UNL     1       3.148   3.067  17.077  0.00  0.00    +0.000 C 
ATOM     22  O   UNL     1       2.057   3.427  16.662  0.00  0.00    +0.000 OA
BRANCH  21  23
ATOM     23  O   UNL     1       3.363   1.989  17.869  0.00  0.00    +0.000 OA
ATOM     24  C   UNL     1       2.488   1.906  18.998  0.00  0.00    +0.000 C 
ENDBRANCH  21  23
ENDBRANCH   5  21
BRANCH   1  25
ATOM     25  C   UNL     1       6.633   3.806  13.736  0.00  0.00    +0.000 C 
BRANCH  25  26
ATOM     26  C   UNL     1       5.670   4.061  12.561  0.00  0.00    +0.000 C 
BRANCH  26  28
ATOM     27  C   UNL     1       4.069   3.078  11.142  0.00  0.00    +0.000 C 
ATOM     28  O   UNL     1       5.045   2.843  12.147  0.00  0.00    +0.000 OA
ENDBRANCH  26  28
ENDBRANCH  25  26
ENDBRANCH   1  25
TORSDOF 10
ENDMDL
MODEL 3
REMARK VINA RESULT:      -5.4      0.859      1.152
REMARK  Name = 
REMARK  15 active torsions:
REMARK  status: ('A' for Active; 'I' for Inactive)
REMARK    1  A    between atoms: C_1  and  O_2
REMARK    2  A    between atoms: O_2  and  C_3
REMARK    3  A    between atoms: C_3  and  C_4
REMARK    4  A    between atoms: C_4  and  N_5
REMARK    5  A    between atoms: C_7  and  C_8
REMARK    6  A    between atoms: C_8  and  O_10
REMARK    7  A    between atoms: O_10  and  C_11
REMARK    8  A    between atoms: C_12  and  C_13
REMARK    9  A    between atoms: C_16  and  O_17
REMARK   10  A    between atoms: O_17  and  C_18
REMARK   11  A    between atoms: C_19  and  O_20
REMARK   12  A    between atoms: O_20  and  C_21
REMARK   13  A    between atoms: C_23  and  C_24
REMARK   14  A    between atoms: C_24  and  O_26
REMARK   15  A    between atoms: O_26  and  C_27
REMARK                            x       y       z     vdW  Elec       q    Type
REMARK                         _______ _______ _______ _____ _____    ______ ____
ROOT
ATOM      1  N   UNL     1       5.380   3.933  15.570  0.00  0.00    +0.000 N 
ATOM      2  C   UNL     1       6.035   4.995  16.172  0.00  0.00    +0.000 C 
ATOM      3  C   UNL     1       5.640   5.574  17.324  0.00  0.00    +0.000 C 
ATOM      4  C   UNL     1       4.432   5.021  18.092  0.00  0.00    +0.000 C 
ATOM      5  C   UNL     1       3.635   4.021  17.239  0.00  0.00    +0.000 C 
ATOM      6  C   UNL     1       4.146   3.548  16.086  0.00  0.00    +0.000 C 
ENDROOT
BRANCH   4   7
ATOM      7  C   UNL     1       3.543   6.128  18.645  0.00  0.00    +0.000 A 
ATOM      8  C   UNL     1       3.071   6.068  19.961  0.00  0.00    +0.000 A 
ATOM      9  C   UNL     1       2.201   7.048  20.433  0.00  0.00    +0.000 A 
ATOM     10  C   UNL     1       1.790   8.106  19.611  0.00  0.00    +0.000 A 
ATOM     11  C   UNL     1       2.264   8.182  18.286  0.00  0.00    +0.000 A 
ATOM     12  C   UNL     1       3.141   7.191  17.826  0.00  0.00    +0.000 A 
BRANCH  10  13
ATOM     13  O   UNL     1       0.935   8.958  20.262  0.00  0.00    +0.000 OA
ATOM     14  C   UNL     1       0.099   8.433  21.276  0.00  0.00    +0.000 C 
ENDBRANCH  10  13
BRANCH  11  15
ATOM     15  O   UNL     1       1.838   9.205  17.482  0.00  0.00    +0.000 OA
ATOM     16  C   UNL     1       2.216  10.531  17.834  0.00  0.00    +0.000 C 
ENDBRANCH  11  15
ENDBRANCH   4   7
BRANCH   3  17
ATOM     17  C   UNL     1       6.411   6.742  17.817  0.00  0.00    +0.000 C 
ATOM     18  O   UNL     1       6.602   7.768  17.182  0.00  0.00    +0.000 OA
BRANCH  17  19
ATOM     19  O   UNL     1       6.889   6.483  19.066  0.00  0.00    +0.000 OA
ATOM     20  C   UNL     1       8.007   5.600  19.151  0.00  0.00    +0.000 C 
ENDBRANCH  17  19
ENDBRANCH   3  17
BRANCH   5  21
ATOM     21  C   UNL     1       2.252   3.576  17.552  0.00  0.00    +0.000 C 
ATOM     22  O   UNL     1       1.252   4.190  17.217  0.00  0.00    +0.000 OA
BRANCH  21  23
ATOM     23  O   UNL     1       2.255   2.416  18.252  0.00  0.00    +0.000 OA
ATOM     24  C   UNL     1       1.596   2.494  19.520  0.00  0.00    +0.000 C 
ENDBRANCH  21  23
ENDBRANCH   5  21
BRANCH   1  25
ATOM     25  C   UNL     1       5.946   3.279  14.371  0.00  0.00    +0.000 C 
BRANCH  25  26
ATOM     26  C   UNL     1       6.527   4.297  13.371  0.00  0.00    +0.000 C 
BRANCH  26  28
ATOM     27  C   UNL     1       5.588   2.904  11.721  0.00  0.00    +0.000 C 
ATOM     28  O   UNL     1       6.712   3.693  12.088  0.00  0.00    +0.000 OA
ENDBRANCH  26  28
ENDBRANCH  25  26
ENDBRANCH   1  25
TORSDOF 10
ENDMDL
MODEL 4
REMARK VINA RESULT:      -5.2      1.253      2.143
REMARK  Name = 
REMARK  15 active torsions:
REMARK  status: ('A' for Active; 'I' for Inactive)
REMARK    1  A    between atoms: C_1  and  O_2
REMARK    2  A    between atoms: O_2  and  C_3
REMARK    3  A    between atoms: C_3  and  C_4
REMARK    4  A    between atoms: C_4  and  N_5
REMARK    5  A    between atoms: C_7  and  C_8
REMARK    6  A    between atoms: C_8  and  O_10
REMARK    7  A    between atoms: O_10  and  C_11
REMARK    8  A    between atoms: C_12  and  C_13
REMARK    9  A    between atoms: C_16  and  O_17
REMARK   10  A    between atoms: O_17  and  C_18
REMARK   11  A    between atoms: C_19  and  O_20
REMARK   12  A    between atoms: O_20  and  C_21
REMARK   13  A    between atoms: C_23  and  C_24
REMARK   14  A    between atoms: C_24  and  O_26
REMARK   15  A    between atoms: O_26  and  C_27
REMARK                            x       y       z     vdW  Elec       q    Type
REMARK                         _______ _______ _______ _____ _____    ______ ____
ROOT
ATOM      1  N   UNL     1       6.267   4.432  14.966  0.00  0.00    +0.000 N 
ATOM      2  C   UNL     1       6.749   5.365  15.870  0.00  0.00    +0.000 C 
ATOM      3  C   UNL     1       6.291   5.506  17.130  0.00  0.00    +0.000 C 
ATOM      4  C   UNL     1       5.213   4.557  17.671  0.00  0.00    +0.000 C 
ATOM      5  C   UNL     1       4.575   3.732  16.541  0.00  0.00    +0.000 C 
ATOM      6  C   UNL     1       5.129   3.711  15.315  0.00  0.00    +0.000 C 
ENDROOT
BRANCH   4   7
ATOM      7  C   UNL     1       4.164   5.288  18.501  0.00  0.00    +0.000 A 
ATOM      8  C   UNL     1       3.725   6.562  18.127  0.00  0.00    +0.000 A 
ATOM      9  C   UNL     1       2.821   7.250  18.933  0.00  0.00    +0.000 A 
ATOM     10  C   UNL     1       2.333   6.683  20.119  0.00  0.00    +0.000 A 
ATOM     11  C   UNL     1       2.763   5.398  20.503  0.00  0.00    +0.000 A 
ATOM     12  C   UNL     1       3.670   4.716  19.681  0.00  0.00    +0.000 A 
BRANCH  10  13
ATOM     13  O   UNL     1       1.458   7.519  20.764  0.00  0.00    +0.000 OA
ATOM     14  C   UNL     1       1.315   8.846  20.289  0.00  0.00    +0.000 C 
ENDBRANCH  10  13
BRANCH  11  15
ATOM     15  O   UNL     1       2.300   4.861  21.675  0.00  0.00    +0.000 OA
ATOM     16  C   UNL     1       2.089   3.455  21.727  0.00  0.00    +0.000 C 
ENDBRANCH  11  15
ENDBRANCH   4   7
BRANCH   3  17
ATOM     17  C   UNL     1       6.866   6.590  17.963  0.00  0.00    +0.000 C 
ATOM     18  O   UNL     1       7.258   6.453  19.112  0.00  0.00    +0.000 OA
BRANCH  17  19
ATOM     19  O   UNL     1       6.865   7.758  17.262  0.00  0.00    +0.000 OA
ATOM     20  C   UNL     1       7.833   8.734  17.647  0.00  0.00    +0.000 C 
ENDBRANCH  17  19
ENDBRANCH   3  17
BRANCH   5  21
ATOM     21  C   UNL     1       3.295   2.989  16.674  0.00  0.00    +0.000 C 
ATOM     22  O   UNL     1       2.241   3.364  16.186  0.00  0.00    +0.000 OA
BRANCH  21  23
ATOM     23  O   UNL     1       3.455   1.859  17.404  0.00  0.00    +0.000 OA
ATOM     24  C   UNL     1       2.515   1.711  18.473  0.00  0.00    +0.000 C 
ENDBRANCH  21  23
ENDBRANCH   5  21
BRANCH   1  25
ATOM     25  C   UNL     1       6.906   4.264  13.644  0.00  0.00    +0.000 C 
BRANCH  25  26
ATOM     26  C   UNL     1       6.000   3.510  12.651  0.00  0.00    +0.000 C 
BRANCH  26  28
ATOM     27  C   UNL     1       6.013   1.610  11.261  0.00  0.00    +0.000 C 
ATOM     28  O   UNL     1       6.782   2.685  11.782  0.00  0.00    +0.000 OA
ENDBRANCH  26  28
ENDBRANCH  25  26
ENDBRANCH   1  25
TORSDOF 10
ENDMDL
MODEL 5
REMARK VINA RESULT:      -4.9      1.241      2.097
REMARK  Name = 
REMARK  15 active torsions:
REMARK  status: ('A' for Active; 'I' for Inactive)
REMARK    1  A    between atoms: C_1  and  O_2
REMARK    2  A    between atoms: O_2  and  C_3
REMARK    3  A    between atoms: C_3  and  C_4
REMARK    4  A    between atoms: C_4  and  N_5
REMARK    5  A    between atoms: C_7  and  C_8
REMARK    6  A    between atoms: C_8  and  O_10
REMARK    7  A    between atoms: O_10  and  C_11
REMARK    8  A    between atoms: C_12  and  C_13
REMARK    9  A    between atoms: C_16  and  O_17
REMARK   10  A    between atoms: O_17  and  C_18
REMARK   11  A    between atoms: C_19  and  O_20
REMARK   12  A    between atoms: O_20  and  C_21
REMARK   13  A    between atoms: C_23  and  C_24
REMARK   14  A    between atoms: C_24  and  O_26
REMARK   15  A    between atoms: O_26  and  C_27
REMARK                            x       y       z     vdW  Elec       q    Type
REMARK                         _______ _______ _______ _____ _____    ______ ____
ROOT
ATOM      1  N   UNL     1       5.224   4.177  15.889  0.00  0.00    +0.000 N 
ATOM      2  C   UNL     1       5.794   5.367  16.310  0.00  0.00    +0.000 C 
ATOM      3  C   UNL     1       5.328   6.110  17.334  0.00  0.00    +0.000 C 
ATOM      4  C   UNL     1       4.131   5.620  18.162  0.00  0.00    +0.000 C 
ATOM      5  C   UNL     1       3.425   4.436  17.480  0.00  0.00    +0.000 C 
ATOM      6  C   UNL     1       4.001   3.806  16.439  0.00  0.00    +0.000 C 
ENDROOT
BRANCH   4   7
ATOM      7  C   UNL     1       3.159   6.745  18.494  0.00  0.00    +0.000 A 
ATOM      8  C   UNL     1       2.879   7.742  17.553  0.00  0.00    +0.000 A 
ATOM      9  C   UNL     1       2.046   8.804  17.893  0.00  0.00    +0.000 A 
ATOM     10  C   UNL     1       1.471   8.892  19.169  0.00  0.00    +0.000 A 
ATOM     11  C   UNL     1       1.740   7.892  20.124  0.00  0.00    +0.000 A 
ATOM     12  C   UNL     1       2.578   6.827  19.766  0.00  0.00    +0.000 A 
BRANCH  10  13
ATOM     13  O   UNL     1       0.688  10.011  19.302  0.00  0.00    +0.000 OA
ATOM     14  C   UNL     1      -0.543  10.061  18.604  0.00  0.00    +0.000 C 
ENDBRANCH  10  13
BRANCH  11  15
ATOM     15  O   UNL     1       1.195   7.998  21.376  0.00  0.00    +0.000 OA
ATOM     16  C   UNL     1       1.561   9.122  22.168  0.00  0.00    +0.000 C 
ENDBRANCH  11  15
ENDBRANCH   4   7
BRANCH   3  17
ATOM     17  C   UNL     1       6.009   7.393  17.631  0.00  0.00    +0.000 C 
ATOM     18  O   UNL     1       5.536   8.499  17.415  0.00  0.00    +0.000 OA
BRANCH  17  19
ATOM     19  O   UNL     1       7.243   7.148  18.155  0.00  0.00    +0.000 OA
ATOM     20  C   UNL     1       8.190   8.213  18.080  0.00  0.00    +0.000 C 
ENDBRANCH  17  19
ENDBRANCH   3  17
BRANCH   5  21
ATOM     21  C   UNL     1       2.063   3.962  17.837  0.00  0.00    +0.000 C 
ATOM     22  O   UNL     1       1.065   4.214  17.180  0.00  0.00    +0.000 OA
BRANCH  21  23
ATOM     23  O   UNL     1       2.080   3.228  18.975  0.00  0.00    +0.000 OA
ATOM     24  C   UNL     1       0.936   3.417  19.814  0.00  0.00    +0.000 C 
ENDBRANCH  21  23
ENDBRANCH   5  21
BRANCH   1  25
ATOM     25  C   UNL     1       5.868   3.364  14.835  0.00  0.00    +0.000 C 
BRANCH  25  26
ATOM     26  C   UNL     1       6.612   4.231  13.802  0.00  0.00    +0.000 C 
BRANCH  26  28
ATOM     27  C   UNL     1       5.221   3.264  12.167  0.00  0.00    +0.000 C 
ATOM     28  O   UNL     1       6.551   3.634  12.504  0.00  0.00    +0.000 OA
ENDBRANCH  26  28
ENDBRANCH  25  26
ENDBRANCH   1  25
TORSDOF 10
ENDMDL
MODEL 6
REMARK VINA RESULT:      -4.9      2.641      6.993
REMARK  Name = 
REMARK  15 active torsions:
REMARK  status: ('A' for Active; 'I' for Inactive)
REMARK    1  A    between atoms: C_1  and  O_2
REMARK    2  A    between atoms: O_2  and  C_3
REMARK    3  A    between atoms: C_3  and  C_4
REMARK    4  A    between atoms: C_4  and  N_5
REMARK    5  A    between atoms: C_7  and  C_8
REMARK    6  A    between atoms: C_8  and  O_10
REMARK    7  A    between atoms: O_10  and  C_11
REMARK    8  A    between atoms: C_12  and  C_13
REMARK    9  A    between atoms: C_16  and  O_17
REMARK   10  A    between atoms: O_17  and  C_18
REMARK   11  A    between atoms: C_19  and  O_20
REMARK   12  A    between atoms: O_20  and  C_21
REMARK   13  A    between atoms: C_23  and  C_24
REMARK   14  A    between atoms: C_24  and  O_26
REMARK   15  A    between atoms: O_26  and  C_27
REMARK                            x       y       z     vdW  Elec       q    Type
REMARK                         _______ _______ _______ _____ _____    ______ ____
ROOT
ATOM      1  N   UNL     1       0.865   7.901  21.011  0.00  0.00    +0.000 N 
ATOM      2  C   UNL     1       1.496   8.442  19.902  0.00  0.00    +0.000 C 
ATOM      3  C   UNL     1       2.108   7.712  18.948  0.00  0.00    +0.000 C 
ATOM      4  C   UNL     1       2.079   6.178  19.010  0.00  0.00    +0.000 C 
ATOM      5  C   UNL     1       1.581   5.682  20.378  0.00  0.00    +0.000 C 
ATOM      6  C   UNL     1       1.015   6.539  21.249  0.00  0.00    +0.000 C 
ENDROOT
BRANCH   4   7
ATOM      7  C   UNL     1       3.420   5.559  18.636  0.00  0.00    +0.000 A 
ATOM      8  C   UNL     1       4.518   5.673  19.497  0.00  0.00    +0.000 A 
ATOM      9  C   UNL     1       5.757   5.166  19.112  0.00  0.00    +0.000 A 
ATOM     10  C   UNL     1       5.926   4.533  17.872  0.00  0.00    +0.000 A 
ATOM     11  C   UNL     1       4.827   4.407  17.000  0.00  0.00    +0.000 A 
ATOM     12  C   UNL     1       3.586   4.919  17.402  0.00  0.00    +0.000 A 
BRANCH  10  13
ATOM     13  O   UNL     1       7.217   4.109  17.686  0.00  0.00    +0.000 OA
ATOM     14  C   UNL     1       8.252   4.759  18.401  0.00  0.00    +0.000 C 
ENDBRANCH  10  13
BRANCH  11  15
ATOM     15  O   UNL     1       5.007   3.810  15.781  0.00  0.00    +0.000 OA
ATOM     16  C   UNL     1       5.527   4.604  14.721  0.00  0.00    +0.000 C 
ENDBRANCH  11  15
ENDBRANCH   4   7
BRANCH   3  17
ATOM     17  C   UNL     1       2.792   8.435  17.848  0.00  0.00    +0.000 C 
ATOM     18  O   UNL     1       3.926   8.199  17.459  0.00  0.00    +0.000 OA
BRANCH  17  19
ATOM     19  O   UNL     1       1.975   9.411  17.362  0.00  0.00    +0.000 OA
ATOM     20  C   UNL     1       2.222  10.739  17.824  0.00  0.00    +0.000 C 
ENDBRANCH  17  19
ENDBRANCH   3  17
BRANCH   5  21
ATOM     21  C   UNL     1       1.756   4.293  20.874  0.00  0.00    +0.000 C 
ATOM     22  O   UNL     1       2.635   3.957  21.652  0.00  0.00    +0.000 OA
BRANCH  21  23
ATOM     23  O   UNL     1       0.824   3.462  20.348  0.00  0.00    +0.000 OA
ATOM     24  C   UNL     1       1.321   2.590  19.328  0.00  0.00    +0.000 C 
ENDBRANCH  21  23
ENDBRANCH   5  21
BRANCH   1  25
ATOM     25  C   UNL     1       0.115   8.765  21.947  0.00  0.00    +0.000 C 
BRANCH  25  26
ATOM     26  C   UNL     1      -0.176  10.156  21.353  0.00  0.00    +0.000 C 
BRANCH  26  28
ATOM     27  C   UNL     1      -1.246  11.457  22.998  0.00  0.00    +0.000 C 
ATOM     28  O   UNL     1      -0.016  11.172  22.345  0.00  0.00    +0.000 OA
ENDBRANCH  26  28
ENDBRANCH  25  26
ENDBRANCH   1  25
TORSDOF 10
ENDMDL
MODEL 7
REMARK VINA RESULT:      -4.8      2.436      6.788
REMARK  Name = 
REMARK  15 active torsions:
REMARK  status: ('A' for Active; 'I' for Inactive)
REMARK    1  A    between atoms: C_1  and  O_2
REMARK    2  A    between atoms: O_2  and  C_3
REMARK    3  A    between atoms: C_3  and  C_4
REMARK    4  A    between atoms: C_4  and  N_5
REMARK    5  A    between atoms: C_7  and  C_8
REMARK    6  A    between atoms: C_8  and  O_10
REMARK    7  A    between atoms: O_10  and  C_11
REMARK    8  A    between atoms: C_12  and  C_13
REMARK    9  A    between atoms: C_16  and  O_17
REMARK   10  A    between atoms: O_17  and  C_18
REMARK   11  A    between atoms: C_19  and  O_20
REMARK   12  A    between atoms: O_20  and  C_21
REMARK   13  A    between atoms: C_23  and  C_24
REMARK   14  A    between atoms: C_24  and  O_26
REMARK   15  A    between atoms: O_26  and  C_27
REMARK                            x       y       z     vdW  Elec       q    Type
REMARK                         _______ _______ _______ _____ _____    ______ ____
ROOT
ATOM      1  N   UNL     1       1.381   7.413  20.866  0.00  0.00    +0.000 N 
ATOM      2  C   UNL     1       1.689   8.146  19.731  0.00  0.00    +0.000 C 
ATOM      3  C   UNL     1       2.202   7.616  18.603  0.00  0.00    +0.000 C 
ATOM      4  C   UNL     1       2.422   6.101  18.491  0.00  0.00    +0.000 C 
ATOM      5  C   UNL     1       2.288   5.413  19.860  0.00  0.00    +0.000 C 
ATOM      6  C   UNL     1       1.783   6.082  20.913  0.00  0.00    +0.000 C 
ENDROOT
BRANCH   4   7
ATOM      7  C   UNL     1       3.740   5.757  17.810  0.00  0.00    +0.000 A 
ATOM      8  C   UNL     1       3.782   4.798  16.791  0.00  0.00    +0.000 A 
ATOM      9  C   UNL     1       5.003   4.439  16.225  0.00  0.00    +0.000 A 
ATOM     10  C   UNL     1       6.200   5.028  16.655  0.00  0.00    +0.000 A 
ATOM     11  C   UNL     1       6.170   5.999  17.676  0.00  0.00    +0.000 A 
ATOM     12  C   UNL     1       4.934   6.353  18.233  0.00  0.00    +0.000 A 
BRANCH  10  13
ATOM     13  O   UNL     1       7.286   4.537  15.976  0.00  0.00    +0.000 OA
ATOM     14  C   UNL     1       7.280   4.591  14.561  0.00  0.00    +0.000 C 
ENDBRANCH  10  13
BRANCH  11  15
ATOM     15  O   UNL     1       7.347   6.552  18.107  0.00  0.00    +0.000 OA
ATOM     16  C   UNL     1       7.707   7.831  17.600  0.00  0.00    +0.000 C 
ENDBRANCH  11  15
ENDBRANCH   4   7
BRANCH   3  17
ATOM     17  C   UNL     1       2.535   8.537  17.489  0.00  0.00    +0.000 C 
ATOM     18  O   UNL     1       3.424   8.350  16.672  0.00  0.00    +0.000 OA
BRANCH  17  19
ATOM     19  O   UNL     1       1.718   9.627  17.534  0.00  0.00    +0.000 OA
ATOM     20  C   UNL     1       2.334  10.873  17.857  0.00  0.00    +0.000 C 
ENDBRANCH  17  19
ENDBRANCH   3  17
BRANCH   5  21
ATOM     21  C   UNL     1       2.769   4.037  20.150  0.00  0.00    +0.000 C 
ATOM     22  O   UNL     1       3.948   3.742  20.263  0.00  0.00    +0.000 OA
BRANCH  21  23
ATOM     23  O   UNL     1       1.735   3.169  20.265  0.00  0.00    +0.000 OA
ATOM     24  C   UNL     1       1.575   2.615  21.574  0.00  0.00    +0.000 C 
ENDBRANCH  21  23
ENDBRANCH   5  21
BRANCH   1  25
ATOM     25  C   UNL     1       0.710   8.052  22.018  0.00  0.00    +0.000 C 
BRANCH  25  26
ATOM     26  C   UNL     1      -0.083   9.308  21.608  0.00  0.00    +0.000 C 
BRANCH  26  28
ATOM     27  C   UNL     1       0.602  11.494  21.064  0.00  0.00    +0.000 C 
ATOM     28  O   UNL     1       0.573  10.492  22.071  0.00  0.00    +0.000 OA
ENDBRANCH  26  28
ENDBRANCH  25  26
ENDBRANCH   1  25
TORSDOF 10
ENDMDL
MODEL 8
REMARK VINA RESULT:      -4.8      8.604     11.473
REMARK  Name = 
REMARK  15 active torsions:
REMARK  status: ('A' for Active; 'I' for Inactive)
REMARK    1  A    between atoms: C_1  and  O_2
REMARK    2  A    between atoms: O_2  and  C_3
REMARK    3  A    between atoms: C_3  and  C_4
REMARK    4  A    between atoms: C_4  and  N_5
REMARK    5  A    between atoms: C_7  and  C_8
REMARK    6  A    between atoms: C_8  and  O_10
REMARK    7  A    between atoms: O_10  and  C_11
REMARK    8  A    between atoms: C_12  and  C_13
REMARK    9  A    between atoms: C_16  and  O_17
REMARK   10  A    between atoms: O_17  and  C_18
REMARK   11  A    between atoms: C_19  and  O_20
REMARK   12  A    between atoms: O_20  and  C_21
REMARK   13  A    between atoms: C_23  and  C_24
REMARK   14  A    between atoms: C_24  and  O_26
REMARK   15  A    between atoms: O_26  and  C_27
REMARK                            x       y       z     vdW  Elec       q    Type
REMARK                         _______ _______ _______ _____ _____    ______ ____
ROOT
ATOM      1  N   UNL     1      -2.508  11.810  18.992  0.00  0.00    +0.000 N 
ATOM      2  C   UNL     1      -1.460  11.909  19.893  0.00  0.00    +0.000 C 
ATOM      3  C   UNL     1      -1.605  12.242  21.191  0.00  0.00    +0.000 C 
ATOM      4  C   UNL     1      -3.005  12.475  21.777  0.00  0.00    +0.000 C 
ATOM      5  C   UNL     1      -4.065  12.585  20.669  0.00  0.00    +0.000 C 
ATOM      6  C   UNL     1      -3.765  12.245  19.402  0.00  0.00    +0.000 C 
ENDROOT
BRANCH   4   7
ATOM      7  C   UNL     1      -3.045  13.670  22.721  0.00  0.00    +0.000 A 
ATOM      8  C   UNL     1      -3.453  13.511  24.050  0.00  0.00    +0.000 A 
ATOM      9  C   UNL     1      -3.555  14.623  24.883  0.00  0.00    +0.000 A 
ATOM     10  C   UNL     1      -3.248  15.908  24.415  0.00  0.00    +0.000 A 
ATOM     11  C   UNL     1      -2.830  16.080  23.081  0.00  0.00    +0.000 A 
ATOM     12  C   UNL     1      -2.728  14.952  22.255  0.00  0.00    +0.000 A 
BRANCH  10  13
ATOM     13  O   UNL     1      -3.415  16.861  25.387  0.00  0.00    +0.000 OA
ATOM     14  C   UNL     1      -4.590  17.649  25.367  0.00  0.00    +0.000 C 
ENDBRANCH  10  13
BRANCH  11  15
ATOM     15  O   UNL     1      -2.556  17.342  22.624  0.00  0.00    +0.000 OA
ATOM     16  C   UNL     1      -1.222  17.821  22.751  0.00  0.00    +0.000 C 
ENDBRANCH  11  15
ENDBRANCH   4   7
BRANCH   3  17
ATOM     17  C   UNL     1      -0.382  12.365  22.020  0.00  0.00    +0.000 C 
ATOM     18  O   UNL     1       0.575  13.076  21.749  0.00  0.00    +0.000 OA
BRANCH  17  19
ATOM     19  O   UNL     1      -0.480  11.550  23.108  0.00  0.00    +0.000 OA
ATOM     20  C   UNL     1      -0.336  10.150  22.871  0.00  0.00    +0.000 C 
ENDBRANCH  17  19
ENDBRANCH   3  17
BRANCH   5  21
ATOM     21  C   UNL     1      -5.429  13.138  20.874  0.00  0.00    +0.000 C 
ATOM     22  O   UNL     1      -5.813  14.189  20.386  0.00  0.00    +0.000 OA
BRANCH  21  23
ATOM     23  O   UNL     1      -6.173  12.331  21.668  0.00  0.00    +0.000 OA
ATOM     24  C   UNL     1      -6.874  13.016  22.711  0.00  0.00    +0.000 C 
ENDBRANCH  21  23
ENDBRANCH   5  21
BRANCH   1  25
ATOM     25  C   UNL     1      -2.277  11.323  17.616  0.00  0.00    +0.000 C 
BRANCH  25  26
ATOM     26  C   UNL     1      -2.902   9.937  17.374  0.00  0.00    +0.000 C 
BRANCH  26  28
ATOM     27  C   UNL     1      -3.093  10.651  15.139  0.00  0.00    +0.000 C 
ATOM     28  O   UNL     1      -2.784   9.562  15.999  0.00  0.00    +0.000 OA
ENDBRANCH  26  28
ENDBRANCH  25  26
ENDBRANCH   1  25
TORSDOF 10
ENDMDL
MODEL 9
REMARK VINA RESULT:      -4.8      5.556     10.252
REMARK  Name = 
REMARK  15 active torsions:
REMARK  status: ('A' for Active; 'I' for Inactive)
REMARK    1  A    between atoms: C_1  and  O_2
REMARK    2  A    between atoms: O_2  and  C_3
REMARK    3  A    between atoms: C_3  and  C_4
REMARK    4  A    between atoms: C_4  and  N_5
REMARK    5  A    between atoms: C_7  and  C_8
REMARK    6  A    between atoms: C_8  and  O_10
REMARK    7  A    between atoms: O_10  and  C_11
REMARK    8  A    between atoms: C_12  and  C_13
REMARK    9  A    between atoms: C_16  and  O_17
REMARK   10  A    between atoms: O_17  and  C_18
REMARK   11  A    between atoms: C_19  and  O_20
REMARK   12  A    between atoms: O_20  and  C_21
REMARK   13  A    between atoms: C_23  and  C_24
REMARK   14  A    between atoms: C_24  and  O_26
REMARK   15  A    between atoms: O_26  and  C_27
REMARK                            x       y       z     vdW  Elec       q    Type
REMARK                         _______ _______ _______ _____ _____    ______ ____
ROOT
ATOM      1  N   UNL     1      -3.532  12.946  20.042  0.00  0.00    +0.000 N 
ATOM      2  C   UNL     1      -2.301  13.266  20.590  0.00  0.00    +0.000 C 
ATOM      3  C   UNL     1      -1.120  12.831  20.105  0.00  0.00    +0.000 C 
ATOM      4  C   UNL     1      -1.075  11.977  18.831  0.00  0.00    +0.000 C 
ATOM      5  C   UNL     1      -2.476  11.475  18.443  0.00  0.00    +0.000 C 
ATOM      6  C   UNL     1      -3.572  11.983  19.039  0.00  0.00    +0.000 C 
ENDROOT
BRANCH   4   7
ATOM      7  C   UNL     1      -0.073  10.834  18.936  0.00  0.00    +0.000 A 
ATOM      8  C   UNL     1       0.679  10.446  17.822  0.00  0.00    +0.000 A 
ATOM      9  C   UNL     1       1.539   9.353  17.911  0.00  0.00    +0.000 A 
ATOM     10  C   UNL     1       1.671   8.632  19.106  0.00  0.00    +0.000 A 
ATOM     11  C   UNL     1       0.924   9.017  20.236  0.00  0.00    +0.000 A 
ATOM     12  C   UNL     1       0.066  10.120  20.133  0.00  0.00    +0.000 A 
BRANCH  10  13
ATOM     13  O   UNL     1       2.562   7.597  18.984  0.00  0.00    +0.000 OA
ATOM     14  C   UNL     1       3.316   7.491  17.790  0.00  0.00    +0.000 C 
ENDBRANCH  10  13
BRANCH  11  15
ATOM     15  O   UNL     1       1.040   8.293  21.393  0.00  0.00    +0.000 OA
ATOM     16  C   UNL     1       1.247   9.005  22.607  0.00  0.00    +0.000 C 
ENDBRANCH  11  15
ENDBRANCH   4   7
BRANCH   3  17
ATOM     17  C   UNL     1       0.115  13.210  20.834  0.00  0.00    +0.000 C 
ATOM     18  O   UNL     1       0.379  12.875  21.979  0.00  0.00    +0.000 OA
BRANCH  17  19
ATOM     19  O   UNL     1       0.890  14.005  20.043  0.00  0.00    +0.000 OA
ATOM     20  C   UNL     1       2.238  13.582  19.841  0.00  0.00    +0.000 C 
ENDBRANCH  17  19
ENDBRANCH   3  17
BRANCH   5  21
ATOM     21  C   UNL     1      -2.728  10.370  17.482  0.00  0.00    +0.000 C 
ATOM     22  O   UNL     1      -3.193   9.288  17.803  0.00  0.00    +0.000 OA
BRANCH  21  23
ATOM     23  O   UNL     1      -2.373  10.722  16.223  0.00  0.00    +0.000 OA
ATOM     24  C   UNL     1      -3.076  10.017  15.195  0.00  0.00    +0.000 C 
ENDBRANCH  21  23
ENDBRANCH   5  21
BRANCH   1  25
ATOM     25  C   UNL     1      -4.772  13.562  20.563  0.00  0.00    +0.000 C 
BRANCH  25  26
ATOM     26  C   UNL     1      -4.682  13.871  22.069  0.00  0.00    +0.000 C 
BRANCH  26  28
ATOM     27  C   UNL     1      -3.908  16.040  22.562  0.00  0.00    +0.000 C 
ATOM     28  O   UNL     1      -5.051  15.228  22.328  0.00  0.00    +0.000 OA
ENDBRANCH  26  28
ENDBRANCH  25  26
ENDBRANCH   1  25
TORSDOF 10
ENDMDL
