MODEL 1
REMARK VINA RESULT:      -6.8      0.000      0.000
REMARK  Name = 
REMARK  6 active torsions:
REMARK  status: ('A' for Active; 'I' for Inactive)
REMARK    1  A    between atoms: C_2  and  C_15
REMARK    2  A    between atoms: N_3  and  C_4
REMARK    3  A    between atoms: C_4  and  C_5
REMARK    4  A    between atoms: C_5  and  C_6
REMARK    5  A    between atoms: C_6  and  N_7
REMARK    6  A    between atoms: C_8  and  C_10
REMARK                            x       y       z     vdW  Elec       q    Type
REMARK                         _______ _______ _______ _____ _____    ______ ____
ROOT
ATOM      1  C   UNL     1       7.587   5.403  18.439  0.00  0.00    +0.000 C 
ENDROOT
BRANCH   1   2
ATOM      2  C   UNL     1       6.470   5.432  19.473  0.00  0.00    +0.000 C 
BRANCH   2   5
ATOM      3  O   UNL     1       3.772   6.021  19.554  0.00  0.00    +0.000 OA
ATOM      4  C   UNL     1       4.091   4.870  19.267  0.00  0.00    +0.000 C 
ATOM      5  N   UNL     1       5.416   4.478  19.203  0.00  0.00    +0.000 N 
ATOM      6  H   UNL     1       5.617   3.519  18.944  0.00  0.00    +0.000 HD
BRANCH   4   7
ATOM      7  C   UNL     1       3.120   3.837  18.963  0.00  0.00    +0.000 A 
ATOM      8  C   UNL     1       1.807   3.704  19.377  0.00  0.00    +0.000 A 
ATOM      9  C   UNL     1       1.314   2.511  18.801  0.00  0.00    +0.000 A 
ATOM     10  C   UNL     1       2.355   1.983  18.073  0.00  0.00    +0.000 A 
ATOM     11  O   UNL     1       3.453   2.782  18.154  0.00  0.00    +0.000 OA
ENDBRANCH   4   7
ENDBRANCH   2   5
ENDBRANCH   1   2
BRANCH   1  12
ATOM     12  C   UNL     1       7.362   6.480  17.380  0.00  0.00    +0.000 C 
BRANCH  12  13
ATOM     13  N   UNL     1       7.386   5.927  16.045  0.00  0.00    +0.000 N 
ATOM     14  C   UNL     1       6.332   5.215  15.511  0.00  0.00    +0.000 C 
ATOM     15  O   UNL     1       5.291   5.012  16.134  0.00  0.00    +0.000 OA
ATOM     16  H   UNL     1       8.177   6.103  15.434  0.00  0.00    +0.000 HD
BRANCH  14  17
ATOM     17  C   UNL     1       6.563   4.738  14.164  0.00  0.00    +0.000 A 
ATOM     18  C   UNL     1       5.973   3.715  13.446  0.00  0.00    +0.000 A 
ATOM     19  C   UNL     1       6.599   3.691  12.177  0.00  0.00    +0.000 A 
ATOM     20  C   UNL     1       7.536   4.696  12.194  0.00  0.00    +0.000 A 
ATOM     21  O   UNL     1       7.523   5.341  13.389  0.00  0.00    +0.000 OA
ENDBRANCH  14  17
ENDBRANCH  12  13
ENDBRANCH   1  12
TORSDOF 6
ENDMDL
MODEL 2
REMARK VINA RESULT:      -6.6      0.913      5.876
REMARK  Name = 
REMARK  6 active torsions:
REMARK  status: ('A' for Active; 'I' for Inactive)
REMARK    1  A    between atoms: C_2  and  C_15
REMARK    2  A    between atoms: N_3  and  C_4
REMARK    3  A    between atoms: C_4  and  C_5
REMARK    4  A    between atoms: C_5  and  C_6
REMARK    5  A    between atoms: C_6  and  N_7
REMARK    6  A    between atoms: C_8  and  C_10
REMARK                            x       y       z     vdW  Elec       q    Type
REMARK                         _______ _______ _______ _____ _____    ______ ____
ROOT
ATOM      1  C   UNL     1       7.700   5.474  18.380  0.00  0.00    +0.000 C 
ENDROOT
BRANCH   1   2
ATOM      2  C   UNL     1       7.328   6.435  17.259  0.00  0.00    +0.000 C 
BRANCH   2   5
ATOM      3  O   UNL     1       5.271   5.070  16.020  0.00  0.00    +0.000 OA
ATOM      4  C   UNL     1       6.329   5.178  15.405  0.00  0.00    +0.000 C 
ATOM      5  N   UNL     1       7.418   5.841  15.943  0.00  0.00    +0.000 N 
ATOM      6  H   UNL     1       8.257   5.912  15.380  0.00  0.00    +0.000 HD
BRANCH   4   7
ATOM      7  C   UNL     1       6.525   4.636  14.075  0.00  0.00    +0.000 A 
ATOM      8  C   UNL     1       7.457   4.968  13.109  0.00  0.00    +0.000 A 
ATOM      9  C   UNL     1       7.201   4.143  11.990  0.00  0.00    +0.000 A 
ATOM     10  C   UNL     1       6.126   3.357  12.336  0.00  0.00    +0.000 A 
ATOM     11  O   UNL     1       5.712   3.639  13.601  0.00  0.00    +0.000 OA
ENDBRANCH   4   7
ENDBRANCH   2   5
ENDBRANCH   1   2
BRANCH   1  12
ATOM     12  C   UNL     1       6.593   5.427  19.431  0.00  0.00    +0.000 C 
BRANCH  12  13
ATOM     13  N   UNL     1       5.575   4.461  19.088  0.00  0.00    +0.000 N 
ATOM     14  C   UNL     1       4.229   4.691  19.285  0.00  0.00    +0.000 C 
ATOM     15  O   UNL     1       3.802   5.743  19.758  0.00  0.00    +0.000 OA
ATOM     16  H   UNL     1       5.830   3.591  18.631  0.00  0.00    +0.000 HD
BRANCH  14  17
ATOM     17  C   UNL     1       3.377   3.590  18.886  0.00  0.00    +0.000 A 
ATOM     18  C   UNL     1       3.301   2.878  17.704  0.00  0.00    +0.000 A 
ATOM     19  C   UNL     1       2.277   1.915  17.871  0.00  0.00    +0.000 A 
ATOM     20  C   UNL     1       1.785   2.097  19.141  0.00  0.00    +0.000 A 
ATOM     21  O   UNL     1       2.443   3.105  19.769  0.00  0.00    +0.000 OA
ENDBRANCH  14  17
ENDBRANCH  12  13
ENDBRANCH   1  12
TORSDOF 6
ENDMDL
MODEL 3
REMARK VINA RESULT:      -6.5      1.298      1.535
REMARK  Name = 
REMARK  6 active torsions:
REMARK  status: ('A' for Active; 'I' for Inactive)
REMARK    1  A    between atoms: C_2  and  C_15
REMARK    2  A    between atoms: N_3  and  C_4
REMARK    3  A    between atoms: C_4  and  C_5
REMARK    4  A    between atoms: C_5  and  C_6
REMARK    5  A    between atoms: C_6  and  N_7
REMARK    6  A    between atoms: C_8  and  C_10
REMARK                            x       y       z     vdW  Elec       q    Type
REMARK                         _______ _______ _______ _____ _____    ______ ____
ROOT
ATOM      1  C   UNL     1       7.507   5.188  18.148  0.00  0.00    +0.000 C 
ENDROOT
BRANCH   1   2
ATOM      2  C   UNL     1       6.577   5.471  19.319  0.00  0.00    +0.000 C 
BRANCH   2   5
ATOM      3  O   UNL     1       5.315   3.058  19.782  0.00  0.00    +0.000 OA
ATOM      4  C   UNL     1       4.643   3.962  19.292  0.00  0.00    +0.000 C 
ATOM      5  N   UNL     1       5.186   5.205  19.021  0.00  0.00    +0.000 N 
ATOM      6  H   UNL     1       4.577   5.916  18.633  0.00  0.00    +0.000 HD
BRANCH   4   7
ATOM      7  C   UNL     1       3.238   3.811  18.969  0.00  0.00    +0.000 A 
ATOM      8  C   UNL     1       2.570   4.046  17.780  0.00  0.00    +0.000 A 
ATOM      9  C   UNL     1       1.207   3.751  18.010  0.00  0.00    +0.000 A 
ATOM     10  C   UNL     1       1.121   3.357  19.326  0.00  0.00    +0.000 A 
ATOM     11  O   UNL     1       2.346   3.380  19.916  0.00  0.00    +0.000 OA
ENDBRANCH   4   7
ENDBRANCH   2   5
ENDBRANCH   1   2
BRANCH   1  12
ATOM     12  C   UNL     1       7.327   6.241  17.056  0.00  0.00    +0.000 C 
BRANCH  12  13
ATOM     13  N   UNL     1       7.280   5.642  15.742  0.00  0.00    +0.000 N 
ATOM     14  C   UNL     1       6.169   4.981  15.261  0.00  0.00    +0.000 C 
ATOM     15  O   UNL     1       5.135   4.867  15.916  0.00  0.00    +0.000 OA
ATOM     16  H   UNL     1       8.064   5.746  15.106  0.00  0.00    +0.000 HD
BRANCH  14  17
ATOM     17  C   UNL     1       6.333   4.444  13.926  0.00  0.00    +0.000 A 
ATOM     18  C   UNL     1       7.380   4.537  13.028  0.00  0.00    +0.000 A 
ATOM     19  C   UNL     1       6.990   3.822  11.870  0.00  0.00    +0.000 A 
ATOM     20  C   UNL     1       5.730   3.339  12.126  0.00  0.00    +0.000 A 
ATOM     21  O   UNL     1       5.320   3.703  13.368  0.00  0.00    +0.000 OA
ENDBRANCH  14  17
ENDBRANCH  12  13
ENDBRANCH   1  12
TORSDOF 6
ENDMDL
MODEL 4
REMARK VINA RESULT:      -6.5      1.724      2.245
REMARK  Name = 
REMARK  6 active torsions:
REMARK  status: ('A' for Active; 'I' for Inactive)
REMARK    1  A    between atoms: C_2  and  C_15
REMARK    2  A    between atoms: N_3  and  C_4
REMARK    3  A    between atoms: C_4  and  C_5
REMARK    4  A    between atoms: C_5  and  C_6
REMARK    5  A    between atoms: C_6  and  N_7
REMARK    6  A    between atoms: C_8  and  C_10
REMARK                            x       y       z     vdW  Elec       q    Type
REMARK                         _______ _______ _______ _____ _____    ______ ____
ROOT
ATOM      1  C   UNL     1       5.991   5.620  17.327  0.00  0.00    +0.000 C 
ENDROOT
BRANCH   1   2
ATOM      2  C   UNL     1       5.898   5.512  18.842  0.00  0.00    +0.000 C 
BRANCH   2   5
ATOM      3  O   UNL     1       5.167   2.924  19.476  0.00  0.00    +0.000 OA
ATOM      4  C   UNL     1       4.314   3.800  19.603  0.00  0.00    +0.000 C 
ATOM      5  N   UNL     1       4.584   5.124  19.308  0.00  0.00    +0.000 N 
ATOM      6  H   UNL     1       3.844   5.803  19.448  0.00  0.00    +0.000 HD
BRANCH   4   7
ATOM      7  C   UNL     1       2.972   3.527  20.076  0.00  0.00    +0.000 A 
ATOM      8  C   UNL     1       1.750   3.828  19.501  0.00  0.00    +0.000 A 
ATOM      9  C   UNL     1       0.753   3.350  20.383  0.00  0.00    +0.000 A 
ATOM     10  C   UNL     1       1.423   2.787  21.444  0.00  0.00    +0.000 A 
ATOM     11  O   UNL     1       2.769   2.879  21.267  0.00  0.00    +0.000 OA
ENDBRANCH   4   7
ENDBRANCH   2   5
ENDBRANCH   1   2
BRANCH   1  12
ATOM     12  C   UNL     1       6.918   4.541  16.771  0.00  0.00    +0.000 C 
BRANCH  12  13
ATOM     13  N   UNL     1       6.418   3.998  15.528  0.00  0.00    +0.000 N 
ATOM     14  C   UNL     1       6.820   4.464  14.293  0.00  0.00    +0.000 C 
ATOM     15  O   UNL     1       7.643   5.368  14.165  0.00  0.00    +0.000 OA
ATOM     16  H   UNL     1       5.786   3.205  15.537  0.00  0.00    +0.000 HD
BRANCH  14  17
ATOM     17  C   UNL     1       6.190   3.793  13.176  0.00  0.00    +0.000 A 
ATOM     18  C   UNL     1       6.712   2.976  12.191  0.00  0.00    +0.000 A 
ATOM     19  C   UNL     1       5.634   2.608  11.350  0.00  0.00    +0.000 A 
ATOM     20  C   UNL     1       4.520   3.223  11.866  0.00  0.00    +0.000 A 
ATOM     21  O   UNL     1       4.839   3.941  12.974  0.00  0.00    +0.000 OA
ENDBRANCH  14  17
ENDBRANCH  12  13
ENDBRANCH   1  12
TORSDOF 6
ENDMDL
MODEL 5
REMARK VINA RESULT:      -6.4      1.331      6.215
REMARK  Name = 
REMARK  6 active torsions:
REMARK  status: ('A' for Active; 'I' for Inactive)
REMARK    1  A    between atoms: C_2  and  C_15
REMARK    2  A    between atoms: N_3  and  C_4
REMARK    3  A    between atoms: C_4  and  C_5
REMARK    4  A    between atoms: C_5  and  C_6
REMARK    5  A    between atoms: C_6  and  N_7
REMARK    6  A    between atoms: C_8  and  C_10
REMARK                            x       y       z     vdW  Elec       q    Type
REMARK                         _______ _______ _______ _____ _____    ______ ____
ROOT
ATOM      1  C   UNL     1       6.678   6.537  17.870  0.00  0.00    +0.000 C 
ENDROOT
BRANCH   1   2
ATOM      2  C   UNL     1       5.478   6.551  16.934  0.00  0.00    +0.000 C 
BRANCH   2   5
ATOM      3  O   UNL     1       5.051   3.916  16.224  0.00  0.00    +0.000 OA
ATOM      4  C   UNL     1       5.514   4.664  15.367  0.00  0.00    +0.000 C 
ATOM      5  N   UNL     1       5.765   5.999  15.627  0.00  0.00    +0.000 N 
ATOM      6  H   UNL     1       6.132   6.570  14.875  0.00  0.00    +0.000 HD
BRANCH   4   7
ATOM      7  C   UNL     1       5.824   4.222  14.022  0.00  0.00    +0.000 A 
ATOM      8  C   UNL     1       5.059   3.496  13.127  0.00  0.00    +0.000 A 
ATOM      9  C   UNL     1       5.841   3.327  11.961  0.00  0.00    +0.000 A 
ATOM     10  C   UNL     1       7.038   3.957  12.212  0.00  0.00    +0.000 A 
ATOM     11  O   UNL     1       7.038   4.512  13.454  0.00  0.00    +0.000 OA
ENDBRANCH   4   7
ENDBRANCH   2   5
ENDBRANCH   1   2
BRANCH   1  12
ATOM     12  C   UNL     1       6.477   5.506  18.979  0.00  0.00    +0.000 C 
BRANCH  12  13
ATOM     13  N   UNL     1       5.075   5.269  19.238  0.00  0.00    +0.000 N 
ATOM     14  C   UNL     1       4.570   4.020  19.536  0.00  0.00    +0.000 C 
ATOM     15  O   UNL     1       5.284   3.022  19.615  0.00  0.00    +0.000 OA
ATOM     16  H   UNL     1       4.423   6.046  19.261  0.00  0.00    +0.000 HD
BRANCH  14  17
ATOM     17  C   UNL     1       3.138   3.997  19.748  0.00  0.00    +0.000 A 
ATOM     18  C   UNL     1       2.317   4.805  20.512  0.00  0.00    +0.000 A 
ATOM     19  C   UNL     1       0.998   4.316  20.352  0.00  0.00    +0.000 A 
ATOM     20  C   UNL     1       1.091   3.239  19.505  0.00  0.00    +0.000 A 
ATOM     21  O   UNL     1       2.379   3.036  19.127  0.00  0.00    +0.000 OA
ENDBRANCH  14  17
ENDBRANCH  12  13
ENDBRANCH   1  12
TORSDOF 6
ENDMDL
MODEL 6
REMARK VINA RESULT:      -6.4      1.616      6.616
REMARK  Name = 
REMARK  6 active torsions:
REMARK  status: ('A' for Active; 'I' for Inactive)
REMARK    1  A    between atoms: C_2  and  C_15
REMARK    2  A    between atoms: N_3  and  C_4
REMARK    3  A    between atoms: C_4  and  C_5
REMARK    4  A    between atoms: C_5  and  C_6
REMARK    5  A    between atoms: C_6  and  N_7
REMARK    6  A    between atoms: C_8  and  C_10
REMARK                            x       y       z     vdW  Elec       q    Type
REMARK                         _______ _______ _______ _____ _____    ______ ____
ROOT
ATOM      1  C   UNL     1       4.990   7.151  17.819  0.00  0.00    +0.000 C 
ENDROOT
BRANCH   1   2
ATOM      2  C   UNL     1       6.343   6.675  17.308  0.00  0.00    +0.000 C 
BRANCH   2   5
ATOM      3  O   UNL     1       7.810   4.520  16.394  0.00  0.00    +0.000 OA
ATOM      4  C   UNL     1       7.070   5.082  15.590  0.00  0.00    +0.000 C 
ATOM      5  N   UNL     1       6.298   6.171  15.952  0.00  0.00    +0.000 N 
ATOM      6  H   UNL     1       5.694   6.581  15.249  0.00  0.00    +0.000 HD
BRANCH   4   7
ATOM      7  C   UNL     1       6.935   4.653  14.213  0.00  0.00    +0.000 A 
ATOM      8  C   UNL     1       6.145   3.657  13.666  0.00  0.00    +0.000 A 
ATOM      9  C   UNL     1       6.402   3.646  12.276  0.00  0.00    +0.000 A 
ATOM     10  C   UNL     1       7.335   4.632  12.054  0.00  0.00    +0.000 A 
ATOM     11  O   UNL     1       7.660   5.257  13.218  0.00  0.00    +0.000 OA
ENDBRANCH   4   7
ENDBRANCH   2   5
ENDBRANCH   1   2
BRANCH   1  12
ATOM     12  C   UNL     1       3.870   6.282  17.251  0.00  0.00    +0.000 C 
BRANCH  12  13
ATOM     13  N   UNL     1       3.195   5.537  18.290  0.00  0.00    +0.000 N 
ATOM     14  C   UNL     1       3.568   4.261  18.657  0.00  0.00    +0.000 C 
ATOM     15  O   UNL     1       4.510   3.672  18.131  0.00  0.00    +0.000 OA
ATOM     16  H   UNL     1       2.449   5.970  18.824  0.00  0.00    +0.000 HD
BRANCH  14  17
ATOM     17  C   UNL     1       2.754   3.688  19.709  0.00  0.00    +0.000 A 
ATOM     18  C   UNL     1       1.396   3.763  19.954  0.00  0.00    +0.000 A 
ATOM     19  C   UNL     1       1.151   3.015  21.131  0.00  0.00    +0.000 A 
ATOM     20  C   UNL     1       2.370   2.531  21.537  0.00  0.00    +0.000 A 
ATOM     21  O   UNL     1       3.350   2.926  20.684  0.00  0.00    +0.000 OA
ENDBRANCH  14  17
ENDBRANCH  12  13
ENDBRANCH   1  12
TORSDOF 6
ENDMDL
MODEL 7
REMARK VINA RESULT:      -6.4      1.585      2.282
REMARK  Name = 
REMARK  6 active torsions:
REMARK  status: ('A' for Active; 'I' for Inactive)
REMARK    1  A    between atoms: C_2  and  C_15
REMARK    2  A    between atoms: N_3  and  C_4
REMARK    3  A    between atoms: C_4  and  C_5
REMARK    4  A    between atoms: C_5  and  C_6
REMARK    5  A    between atoms: C_6  and  N_7
REMARK    6  A    between atoms: C_8  and  C_10
REMARK                            x       y       z     vdW  Elec       q    Type
REMARK                         _______ _______ _______ _____ _____    ______ ____
ROOT
ATOM      1  C   UNL     1       6.450   6.235  17.180  0.00  0.00    +0.000 C 
ENDROOT
BRANCH   1   2
ATOM      2  C   UNL     1       4.977   6.195  16.797  0.00  0.00    +0.000 C 
BRANCH   2   5
ATOM      3  O   UNL     1       3.783   3.706  16.899  0.00  0.00    +0.000 OA
ATOM      4  C   UNL     1       3.568   4.475  17.833  0.00  0.00    +0.000 C 
ATOM      5  N   UNL     1       4.119   5.743  17.871  0.00  0.00    +0.000 N 
ATOM      6  H   UNL     1       3.918   6.325  18.676  0.00  0.00    +0.000 HD
BRANCH   4   7
ATOM      7  C   UNL     1       2.738   4.122  18.967  0.00  0.00    +0.000 A 
ATOM      8  C   UNL     1       1.363   3.993  19.056  0.00  0.00    +0.000 A 
ATOM      9  C   UNL     1       1.069   3.643  20.393  0.00  0.00    +0.000 A 
ATOM     10  C   UNL     1       2.279   3.580  21.045  0.00  0.00    +0.000 A 
ATOM     11  O   UNL     1       3.300   3.859  20.190  0.00  0.00    +0.000 OA
ENDBRANCH   4   7
ENDBRANCH   2   5
ENDBRANCH   1   2
BRANCH   1  12
ATOM     12  C   UNL     1       7.126   4.908  16.841  0.00  0.00    +0.000 C 
BRANCH  12  13
ATOM     13  N   UNL     1       6.576   4.322  15.640  0.00  0.00    +0.000 N 
ATOM     14  C   UNL     1       7.006   4.667  14.375  0.00  0.00    +0.000 C 
ATOM     15  O   UNL     1       7.899   5.491  14.184  0.00  0.00    +0.000 OA
ATOM     16  H   UNL     1       5.882   3.585  15.704  0.00  0.00    +0.000 HD
BRANCH  14  17
ATOM     17  C   UNL     1       6.317   3.973  13.307  0.00  0.00    +0.000 A 
ATOM     18  C   UNL     1       6.797   3.252  12.231  0.00  0.00    +0.000 A 
ATOM     19  C   UNL     1       5.669   2.802  11.504  0.00  0.00    +0.000 A 
ATOM     20  C   UNL     1       4.568   3.277  12.174  0.00  0.00    +0.000 A 
ATOM     21  O   UNL     1       4.944   3.985  13.271  0.00  0.00    +0.000 OA
ENDBRANCH  14  17
ENDBRANCH  12  13
ENDBRANCH   1  12
TORSDOF 6
ENDMDL
MODEL 8
REMARK VINA RESULT:      -6.4      0.861      1.117
REMARK  Name = 
REMARK  6 active torsions:
REMARK  status: ('A' for Active; 'I' for Inactive)
REMARK    1  A    between atoms: C_2  and  C_15
REMARK    2  A    between atoms: N_3  and  C_4
REMARK    3  A    between atoms: C_4  and  C_5
REMARK    4  A    between atoms: C_5  and  C_6
REMARK    5  A    between atoms: C_6  and  N_7
REMARK    6  A    between atoms: C_8  and  C_10
REMARK                            x       y       z     vdW  Elec       q    Type
REMARK                         _______ _______ _______ _____ _____    ______ ____
ROOT
ATOM      1  C   UNL     1       7.398   5.843  18.265  0.00  0.00    +0.000 C 
ENDROOT
BRANCH   1   2
ATOM      2  C   UNL     1       6.309   5.718  19.321  0.00  0.00    +0.000 C 
BRANCH   2   5
ATOM      3  O   UNL     1       3.574   5.980  19.609  0.00  0.00    +0.000 OA
ATOM      4  C   UNL     1       3.999   4.900  19.208  0.00  0.00    +0.000 C 
ATOM      5  N   UNL     1       5.352   4.671  19.035  0.00  0.00    +0.000 N 
ATOM      6  H   UNL     1       5.640   3.764  18.685  0.00  0.00    +0.000 HD
BRANCH   4   7
ATOM      7  C   UNL     1       3.131   3.788  18.877  0.00  0.00    +0.000 A 
ATOM      8  C   UNL     1       1.794   3.586  19.169  0.00  0.00    +0.000 A 
ATOM      9  C   UNL     1       1.438   2.332  18.623  0.00  0.00    +0.000 A 
ATOM     10  C   UNL     1       2.578   1.839  18.031  0.00  0.00    +0.000 A 
ATOM     11  O   UNL     1       3.610   2.715  18.170  0.00  0.00    +0.000 OA
ENDBRANCH   4   7
ENDBRANCH   2   5
ENDBRANCH   1   2
BRANCH   1  12
ATOM     12  C   UNL     1       7.759   4.468  17.706  0.00  0.00    +0.000 C 
BRANCH  12  13
ATOM     13  N   UNL     1       7.724   4.456  16.261  0.00  0.00    +0.000 N 
ATOM     14  C   UNL     1       6.562   4.266  15.543  0.00  0.00    +0.000 C 
ATOM     15  O   UNL     1       5.470   4.104  16.085  0.00  0.00    +0.000 OA
ATOM     16  H   UNL     1       8.567   4.648  15.729  0.00  0.00    +0.000 HD
BRANCH  14  17
ATOM     17  C   UNL     1       6.747   4.276  14.107  0.00  0.00    +0.000 A 
ATOM     18  C   UNL     1       7.567   5.041  13.298  0.00  0.00    +0.000 A 
ATOM     19  C   UNL     1       7.328   4.628  11.966  0.00  0.00    +0.000 A 
ATOM     20  C   UNL     1       6.376   3.640  12.036  0.00  0.00    +0.000 A 
ATOM     21  O   UNL     1       6.017   3.413  13.326  0.00  0.00    +0.000 OA
ENDBRANCH  14  17
ENDBRANCH  12  13
ENDBRANCH   1  12
TORSDOF 6
ENDMDL
MODEL 9
REMARK VINA RESULT:      -6.3      3.149      6.209
REMARK  Name = 
REMARK  6 active torsions:
REMARK  status: ('A' for Active; 'I' for Inactive)
REMARK    1  A    between atoms: C_2  and  C_15
REMARK    2  A    between atoms: N_3  and  C_4
REMARK    3  A    between atoms: C_4  and  C_5
REMARK    4  A    between atoms: C_5  and  C_6
REMARK    5  A    between atoms: C_6  and  N_7
REMARK    6  A    between atoms: C_8  and  C_10
REMARK                            x       y       z     vdW  Elec       q    Type
REMARK                         _______ _______ _______ _____ _____    ______ ____
ROOT
ATOM      1  C   UNL     1       4.839   5.458  16.271  0.00  0.00    +0.000 C 
ENDROOT
BRANCH   1   2
ATOM      2  C   UNL     1       4.942   6.262  17.560  0.00  0.00    +0.000 C 
BRANCH   2   5
ATOM      3  O   UNL     1       3.015   6.281  19.539  0.00  0.00    +0.000 OA
ATOM      4  C   UNL     1       2.991   7.195  18.718  0.00  0.00    +0.000 C 
ATOM      5  N   UNL     1       3.913   7.271  17.689  0.00  0.00    +0.000 N 
ATOM      6  H   UNL     1       3.853   8.057  17.053  0.00  0.00    +0.000 HD
BRANCH   4   7
ATOM      7  C   UNL     1       2.015   8.266  18.760  0.00  0.00    +0.000 A 
ATOM      8  C   UNL     1       1.500   9.038  17.735  0.00  0.00    +0.000 A 
ATOM      9  C   UNL     1       0.590   9.946  18.324  0.00  0.00    +0.000 A 
ATOM     10  C   UNL     1       0.605   9.678  19.673  0.00  0.00    +0.000 A 
ATOM     11  O   UNL     1       1.458   8.655  19.951  0.00  0.00    +0.000 OA
ENDBRANCH   4   7
ENDBRANCH   2   5
ENDBRANCH   1   2
BRANCH   1  12
ATOM     12  C   UNL     1       4.771   3.964  16.578  0.00  0.00    +0.000 C 
BRANCH  12  13
ATOM     13  N   UNL     1       4.123   3.710  17.845  0.00  0.00    +0.000 N 
ATOM     14  C   UNL     1       2.821   3.266  17.943  0.00  0.00    +0.000 C 
ATOM     15  O   UNL     1       2.124   3.044  16.955  0.00  0.00    +0.000 OA
ATOM     16  H   UNL     1       4.643   3.802  18.711  0.00  0.00    +0.000 HD
BRANCH  14  17
ATOM     17  C   UNL     1       2.359   3.086  19.303  0.00  0.00    +0.000 A 
ATOM     18  C   UNL     1       1.087   3.110  19.845  0.00  0.00    +0.000 A 
ATOM     19  C   UNL     1       1.230   2.882  21.234  0.00  0.00    +0.000 A 
ATOM     20  C   UNL     1       2.576   2.736  21.462  0.00  0.00    +0.000 A 
ATOM     21  O   UNL     1       3.273   2.853  20.302  0.00  0.00    +0.000 OA
ENDBRANCH  14  17
ENDBRANCH  12  13
ENDBRANCH   1  12
TORSDOF 6
ENDMDL
