MODEL 1
REMARK VINA RESULT:      -9.6      0.000      0.000
REMARK  Name = 
REMARK  6 active torsions:
REMARK  status: ('A' for Active; 'I' for Inactive)
REMARK    1  A    between atoms: C_1  and  C_2
REMARK    2  A    between atoms: C_6  and  N_7
REMARK    3  A    between atoms: C_8  and  C_10
REMARK    4  A    between atoms: C_10  and  N_11
REMARK    5  A    between atoms: N_14  and  C_15
REMARK    6  A    between atoms: C_15  and  C_16
REMARK                            x       y       z     vdW  Elec       q    Type
REMARK                         _______ _______ _______ _____ _____    ______ ____
ROOT
ATOM      1  N   UNL     1       6.568   5.294  17.786  0.00  0.00    +0.000 N 
ATOM      2  C   UNL     1       5.557   5.163  18.732  0.00  0.00    +0.000 A 
ATOM      3  O   UNL     1       5.769   5.447  19.916  0.00  0.00    +0.000 OA
ATOM      4  N   UNL     1       4.323   4.710  18.288  0.00  0.00    +0.000 N 
ATOM      5  C   UNL     1       4.062   4.277  16.995  0.00  0.00    +0.000 A 
ATOM      6  O   UNL     1       2.973   3.835  16.629  0.00  0.00    +0.000 OA
ATOM      7  C   UNL     1       5.165   4.372  16.025  0.00  0.00    +0.000 A 
ATOM      8  C   UNL     1       4.947   3.960  14.699  0.00  0.00    +0.000 A 
ATOM      9  C   UNL     1       5.955   4.091  13.751  0.00  0.00    +0.000 A 
ATOM     10  C   UNL     1       7.179   4.635  14.129  0.00  0.00    +0.000 A 
ATOM     11  C   UNL     1       7.396   5.035  15.455  0.00  0.00    +0.000 A 
ATOM     12  C   UNL     1       6.389   4.911  16.426  0.00  0.00    +0.000 A 
ENDROOT
BRANCH   1  13
ATOM     13  C   UNL     1       7.811   5.925  18.242  0.00  0.00    +0.000 C 
BRANCH  13  15
ATOM     14  N   UNL     1       8.694   8.164  18.808  0.00  0.00    +0.000 N 
ATOM     15  C   UNL     1       7.789   7.444  18.034  0.00  0.00    +0.000 C 
ATOM     16  O   UNL     1       6.991   7.934  17.231  0.00  0.00    +0.000 OA
ATOM     17  H   UNL     1       9.364   7.642  19.361  0.00  0.00    +0.000 HD
BRANCH  14  23
ATOM     18  C   UNL     1      10.085  12.301  21.179  0.00  0.00    +0.000 C 
ATOM     19  C   UNL     1       9.501  11.618  19.973  0.00  0.00    +0.000 A 
ATOM     20  C   UNL     1       9.158  12.375  18.848  0.00  0.00    +0.000 A 
ATOM     21  C   UNL     1       8.649  11.746  17.716  0.00  0.00    +0.000 A 
ATOM     22  C   UNL     1       8.496  10.359  17.691  0.00  0.00    +0.000 A 
ATOM     23  C   UNL     1       8.836   9.576  18.798  0.00  0.00    +0.000 A 
ATOM     24  C   UNL     1       9.316  10.222  19.949  0.00  0.00    +0.000 A 
ENDBRANCH  14  23
ENDBRANCH  13  15
ENDBRANCH   1  13
BRANCH   4  25
ATOM     25  C   UNL     1       3.185   4.785  19.214  0.00  0.00    +0.000 C 
BRANCH  25  26
ATOM     26  C   UNL     1       2.823   6.241  19.458  0.00  0.00    +0.000 A 
ATOM     27  C   UNL     1       2.158   6.633  20.648  0.00  0.00    +0.000 A 
ATOM     28  C   UNL     1       1.488   7.859  20.723  0.00  0.00    +0.000 A 
ATOM     29  C   UNL     1       1.469   8.632  19.583  0.00  0.00    +0.000 A 
ATOM     30  C   UNL     1       2.198   8.299  18.463  0.00  0.00    +0.000 A 
ATOM     31  C   UNL     1       2.929   7.142  18.388  0.00  0.00    +0.000 A 
ATOM     32  O   UNL     1       1.938   9.127  17.413  0.00  0.00    +0.000 OA
ATOM     33  C   UNL     1       0.696   9.676  17.895  0.00  0.00    +0.000 C 
ATOM     34  O   UNL     1       0.647   9.694  19.339  0.00  0.00    +0.000 OA
ENDBRANCH  25  26
ENDBRANCH   4  25
TORSDOF 5
ENDMDL
MODEL 2
REMARK VINA RESULT:      -9.3      3.702      5.577
REMARK  Name = 
REMARK  6 active torsions:
REMARK  status: ('A' for Active; 'I' for Inactive)
REMARK    1  A    between atoms: C_1  and  C_2
REMARK    2  A    between atoms: C_6  and  N_7
REMARK    3  A    between atoms: C_8  and  C_10
REMARK    4  A    between atoms: C_10  and  N_11
REMARK    5  A    between atoms: N_14  and  C_15
REMARK    6  A    between atoms: C_15  and  C_16
REMARK                            x       y       z     vdW  Elec       q    Type
REMARK                         _______ _______ _______ _____ _____    ______ ____
ROOT
ATOM      1  N   UNL     1       4.938   4.872  18.302  0.00  0.00    +0.000 N 
ATOM      2  C   UNL     1       4.511   6.165  18.021  0.00  0.00    +0.000 A 
ATOM      3  O   UNL     1       5.322   7.098  17.992  0.00  0.00    +0.000 OA
ATOM      4  N   UNL     1       3.158   6.352  17.777  0.00  0.00    +0.000 N 
ATOM      5  C   UNL     1       2.192   5.364  17.903  0.00  0.00    +0.000 A 
ATOM      6  O   UNL     1       0.989   5.557  17.727  0.00  0.00    +0.000 OA
ATOM      7  C   UNL     1       2.661   4.015  18.256  0.00  0.00    +0.000 A 
ATOM      8  C   UNL     1       1.723   2.975  18.381  0.00  0.00    +0.000 A 
ATOM      9  C   UNL     1       2.146   1.680  18.660  0.00  0.00    +0.000 A 
ATOM     10  C   UNL     1       3.506   1.427  18.813  0.00  0.00    +0.000 A 
ATOM     11  C   UNL     1       4.437   2.468  18.699  0.00  0.00    +0.000 A 
ATOM     12  C   UNL     1       4.029   3.782  18.417  0.00  0.00    +0.000 A 
ENDROOT
BRANCH   1  13
ATOM     13  C   UNL     1       6.387   4.668  18.397  0.00  0.00    +0.000 C 
BRANCH  13  15
ATOM     14  N   UNL     1       6.176   4.694  15.933  0.00  0.00    +0.000 N 
ATOM     15  C   UNL     1       7.029   4.494  17.015  0.00  0.00    +0.000 C 
ATOM     16  O   UNL     1       8.220   4.186  16.935  0.00  0.00    +0.000 OA
ATOM     17  H   UNL     1       5.242   5.039  16.124  0.00  0.00    +0.000 HD
BRANCH  14  23
ATOM     18  C   UNL     1       5.547   2.415  11.566  0.00  0.00    +0.000 C 
ATOM     19  C   UNL     1       6.251   3.431  12.420  0.00  0.00    +0.000 A 
ATOM     20  C   UNL     1       7.215   4.268  11.848  0.00  0.00    +0.000 A 
ATOM     21  C   UNL     1       7.846   5.234  12.625  0.00  0.00    +0.000 A 
ATOM     22  C   UNL     1       7.509   5.386  13.971  0.00  0.00    +0.000 A 
ATOM     23  C   UNL     1       6.545   4.569  14.568  0.00  0.00    +0.000 A 
ATOM     24  C   UNL     1       5.937   3.572  13.786  0.00  0.00    +0.000 A 
ENDBRANCH  14  23
ENDBRANCH  13  15
ENDBRANCH   1  13
BRANCH   4  25
ATOM     25  C   UNL     1       2.723   7.655  17.254  0.00  0.00    +0.000 C 
BRANCH  25  26
ATOM     26  C   UNL     1       2.203   8.512  18.397  0.00  0.00    +0.000 A 
ATOM     27  C   UNL     1       2.035   7.965  19.695  0.00  0.00    +0.000 A 
ATOM     28  C   UNL     1       1.220   8.599  20.639  0.00  0.00    +0.000 A 
ATOM     29  C   UNL     1       0.561   9.738  20.233  0.00  0.00    +0.000 A 
ATOM     30  C   UNL     1       0.801  10.322  19.009  0.00  0.00    +0.000 A 
ATOM     31  C   UNL     1       1.656   9.768  18.093  0.00  0.00    +0.000 A 
ATOM     32  O   UNL     1      -0.045  11.361  18.758  0.00  0.00    +0.000 OA
ATOM     33  C   UNL     1      -1.052  11.038  19.737  0.00  0.00    +0.000 C 
ATOM     34  O   UNL     1      -0.490  10.335  20.868  0.00  0.00    +0.000 OA
ENDBRANCH  25  26
ENDBRANCH   4  25
TORSDOF 5
ENDMDL
MODEL 3
REMARK VINA RESULT:      -9.2      0.659      1.305
REMARK  Name = 
REMARK  6 active torsions:
REMARK  status: ('A' for Active; 'I' for Inactive)
REMARK    1  A    between atoms: C_1  and  C_2
REMARK    2  A    between atoms: C_6  and  N_7
REMARK    3  A    between atoms: C_8  and  C_10
REMARK    4  A    between atoms: C_10  and  N_11
REMARK    5  A    between atoms: N_14  and  C_15
REMARK    6  A    between atoms: C_15  and  C_16
REMARK                            x       y       z     vdW  Elec       q    Type
REMARK                         _______ _______ _______ _____ _____    ______ ____
ROOT
ATOM      1  N   UNL     1       6.779   5.385  17.870  0.00  0.00    +0.000 N 
ATOM      2  C   UNL     1       5.853   5.215  18.894  0.00  0.00    +0.000 A 
ATOM      3  O   UNL     1       6.151   5.500  20.059  0.00  0.00    +0.000 OA
ATOM      4  N   UNL     1       4.603   4.723  18.549  0.00  0.00    +0.000 N 
ATOM      5  C   UNL     1       4.252   4.287  17.279  0.00  0.00    +0.000 A 
ATOM      6  O   UNL     1       3.152   3.810  16.999  0.00  0.00    +0.000 OA
ATOM      7  C   UNL     1       5.267   4.425  16.223  0.00  0.00    +0.000 A 
ATOM      8  C   UNL     1       4.956   4.012  14.916  0.00  0.00    +0.000 A 
ATOM      9  C   UNL     1       5.878   4.182  13.890  0.00  0.00    +0.000 A 
ATOM     10  C   UNL     1       7.110   4.766  14.171  0.00  0.00    +0.000 A 
ATOM     11  C   UNL     1       7.421   5.167  15.478  0.00  0.00    +0.000 A 
ATOM     12  C   UNL     1       6.502   5.003  16.527  0.00  0.00    +0.000 A 
ENDROOT
BRANCH   1  13
ATOM     13  C   UNL     1       8.033   6.056  18.228  0.00  0.00    +0.000 C 
BRANCH  13  15
ATOM     14  N   UNL     1       8.844   8.315  18.823  0.00  0.00    +0.000 N 
ATOM     15  C   UNL     1       7.928   7.579  18.077  0.00  0.00    +0.000 C 
ATOM     16  O   UNL     1       7.061   8.056  17.342  0.00  0.00    +0.000 OA
ATOM     17  H   UNL     1       9.571   7.807  19.316  0.00  0.00    +0.000 HD
BRANCH  14  23
ATOM     18  C   UNL     1       9.803  12.448  21.404  0.00  0.00    +0.000 C 
ATOM     19  C   UNL     1       9.372  11.771  20.133  0.00  0.00    +0.000 A 
ATOM     20  C   UNL     1       9.105  12.540  18.995  0.00  0.00    +0.000 A 
ATOM     21  C   UNL     1       8.739  11.917  17.806  0.00  0.00    +0.000 A 
ATOM     22  C   UNL     1       8.654  10.526  17.737  0.00  0.00    +0.000 A 
ATOM     23  C   UNL     1       8.921   9.731  18.856  0.00  0.00    +0.000 A 
ATOM     24  C   UNL     1       9.256  10.369  20.062  0.00  0.00    +0.000 A 
ENDBRANCH  14  23
ENDBRANCH  13  15
ENDBRANCH   1  13
BRANCH   4  25
ATOM     25  C   UNL     1       3.543   4.754  19.566  0.00  0.00    +0.000 C 
BRANCH  25  26
ATOM     26  C   UNL     1       2.673   5.983  19.355  0.00  0.00    +0.000 A 
ATOM     27  C   UNL     1       2.934   6.882  18.289  0.00  0.00    +0.000 A 
ATOM     28  C   UNL     1       2.413   8.180  18.303  0.00  0.00    +0.000 A 
ATOM     29  C   UNL     1       1.683   8.549  19.411  0.00  0.00    +0.000 A 
ATOM     30  C   UNL     1       1.346   7.647  20.396  0.00  0.00    +0.000 A 
ATOM     31  C   UNL     1       1.775   6.346  20.370  0.00  0.00    +0.000 A 
ATOM     32  O   UNL     1       0.734   8.247  21.457  0.00  0.00    +0.000 OA
ATOM     33  C   UNL     1       1.144   9.601  21.183  0.00  0.00    +0.000 C 
ATOM     34  O   UNL     1       1.343   9.822  19.769  0.00  0.00    +0.000 OA
ENDBRANCH  25  26
ENDBRANCH   4  25
TORSDOF 5
ENDMDL
MODEL 4
REMARK VINA RESULT:      -9.0      0.288      1.195
REMARK  Name = 
REMARK  6 active torsions:
REMARK  status: ('A' for Active; 'I' for Inactive)
REMARK    1  A    between atoms: C_1  and  C_2
REMARK    2  A    between atoms: C_6  and  N_7
REMARK    3  A    between atoms: C_8  and  C_10
REMARK    4  A    between atoms: C_10  and  N_11
REMARK    5  A    between atoms: N_14  and  C_15
REMARK    6  A    between atoms: C_15  and  C_16
REMARK                            x       y       z     vdW  Elec       q    Type
REMARK                         _______ _______ _______ _____ _____    ______ ____
ROOT
ATOM      1  N   UNL     1       6.613   5.319  17.760  0.00  0.00    +0.000 N 
ATOM      2  C   UNL     1       5.609   5.184  18.712  0.00  0.00    +0.000 A 
ATOM      3  O   UNL     1       5.834   5.450  19.898  0.00  0.00    +0.000 OA
ATOM      4  N   UNL     1       4.367   4.750  18.273  0.00  0.00    +0.000 N 
ATOM      5  C   UNL     1       4.091   4.336  16.977  0.00  0.00    +0.000 A 
ATOM      6  O   UNL     1       2.994   3.910  16.615  0.00  0.00    +0.000 OA
ATOM      7  C   UNL     1       5.185   4.435  15.999  0.00  0.00    +0.000 A 
ATOM      8  C   UNL     1       4.952   4.043  14.669  0.00  0.00    +0.000 A 
ATOM      9  C   UNL     1       5.953   4.177  13.714  0.00  0.00    +0.000 A 
ATOM     10  C   UNL     1       7.185   4.704  14.089  0.00  0.00    +0.000 A 
ATOM     11  C   UNL     1       7.418   5.084  15.418  0.00  0.00    +0.000 A 
ATOM     12  C   UNL     1       6.418   4.956  16.396  0.00  0.00    +0.000 A 
ENDROOT
BRANCH   1  13
ATOM     13  C   UNL     1       7.866   5.931  18.213  0.00  0.00    +0.000 C 
BRANCH  13  15
ATOM     14  N   UNL     1       8.755   8.143  18.869  0.00  0.00    +0.000 N 
ATOM     15  C   UNL     1       7.834   7.459  18.082  0.00  0.00    +0.000 C 
ATOM     16  O   UNL     1       7.015   7.984  17.324  0.00  0.00    +0.000 OA
ATOM     17  H   UNL     1       9.441   7.597  19.379  0.00  0.00    +0.000 HD
BRANCH  14  23
ATOM     18  C   UNL     1       7.702  12.586  16.915  0.00  0.00    +0.000 C 
ATOM     19  C   UNL     1       8.393  11.744  17.951  0.00  0.00    +0.000 A 
ATOM     20  C   UNL     1       9.112  12.363  18.979  0.00  0.00    +0.000 A 
ATOM     21  C   UNL     1       9.725  11.591  19.961  0.00  0.00    +0.000 A 
ATOM     22  C   UNL     1       9.611  10.201  19.937  0.00  0.00    +0.000 A 
ATOM     23  C   UNL     1       8.893   9.555  18.926  0.00  0.00    +0.000 A 
ATOM     24  C   UNL     1       8.306  10.339  17.919  0.00  0.00    +0.000 A 
ENDBRANCH  14  23
ENDBRANCH  13  15
ENDBRANCH   1  13
BRANCH   4  25
ATOM     25  C   UNL     1       3.238   4.822  19.211  0.00  0.00    +0.000 C 
BRANCH  25  26
ATOM     26  C   UNL     1       2.865   6.277  19.444  0.00  0.00    +0.000 A 
ATOM     27  C   UNL     1       2.198   6.673  20.633  0.00  0.00    +0.000 A 
ATOM     28  C   UNL     1       1.519   7.894  20.700  0.00  0.00    +0.000 A 
ATOM     29  C   UNL     1       1.492   8.659  19.555  0.00  0.00    +0.000 A 
ATOM     30  C   UNL     1       2.222   8.323  18.435  0.00  0.00    +0.000 A 
ATOM     31  C   UNL     1       2.962   7.172  18.368  0.00  0.00    +0.000 A 
ATOM     32  O   UNL     1       1.953   9.142  17.380  0.00  0.00    +0.000 OA
ATOM     33  C   UNL     1       0.707   9.684  17.860  0.00  0.00    +0.000 C 
ATOM     34  O   UNL     1       0.660   9.712  19.304  0.00  0.00    +0.000 OA
ENDBRANCH  25  26
ENDBRANCH   4  25
TORSDOF 5
ENDMDL
MODEL 5
REMARK VINA RESULT:      -8.7      5.133     10.268
REMARK  Name = 
REMARK  6 active torsions:
REMARK  status: ('A' for Active; 'I' for Inactive)
REMARK    1  A    between atoms: C_1  and  C_2
REMARK    2  A    between atoms: C_6  and  N_7
REMARK    3  A    between atoms: C_8  and  C_10
REMARK    4  A    between atoms: C_10  and  N_11
REMARK    5  A    between atoms: N_14  and  C_15
REMARK    6  A    between atoms: C_15  and  C_16
REMARK                            x       y       z     vdW  Elec       q    Type
REMARK                         _______ _______ _______ _____ _____    ______ ____
ROOT
ATOM      1  N   UNL     1      -0.262  10.236  19.115  0.00  0.00    +0.000 N 
ATOM      2  C   UNL     1       0.630   9.228  18.763  0.00  0.00    +0.000 A 
ATOM      3  O   UNL     1       0.796   8.927  17.576  0.00  0.00    +0.000 OA
ATOM      4  N   UNL     1       1.312   8.593  19.791  0.00  0.00    +0.000 N 
ATOM      5  C   UNL     1       1.085   8.816  21.142  0.00  0.00    +0.000 A 
ATOM      6  O   UNL     1       1.667   8.211  22.042  0.00  0.00    +0.000 OA
ATOM      7  C   UNL     1       0.095   9.848  21.490  0.00  0.00    +0.000 A 
ATOM      8  C   UNL     1      -0.160  10.122  22.845  0.00  0.00    +0.000 A 
ATOM      9  C   UNL     1      -1.050  11.130  23.199  0.00  0.00    +0.000 A 
ATOM     10  C   UNL     1      -1.682  11.862  22.200  0.00  0.00    +0.000 A 
ATOM     11  C   UNL     1      -1.433  11.579  20.850  0.00  0.00    +0.000 A 
ATOM     12  C   UNL     1      -0.537  10.565  20.472  0.00  0.00    +0.000 A 
ENDROOT
BRANCH   1  13
ATOM     13  C   UNL     1      -0.850  11.002  18.011  0.00  0.00    +0.000 C 
BRANCH  13  15
ATOM     14  N   UNL     1      -3.116  11.962  18.253  0.00  0.00    +0.000 N 
ATOM     15  C   UNL     1      -2.372  10.827  17.943  0.00  0.00    +0.000 C 
ATOM     16  O   UNL     1      -2.842   9.728  17.642  0.00  0.00    +0.000 OA
ATOM     17  H   UNL     1      -2.616  12.833  18.391  0.00  0.00    +0.000 HD
BRANCH  14  23
ATOM     18  C   UNL     1      -7.321  11.930  20.896  0.00  0.00    +0.000 C 
ATOM     19  C   UNL     1      -6.608  11.991  19.574  0.00  0.00    +0.000 A 
ATOM     20  C   UNL     1      -7.345  12.166  18.398  0.00  0.00    +0.000 A 
ATOM     21  C   UNL     1      -6.690  12.258  17.174  0.00  0.00    +0.000 A 
ATOM     22  C   UNL     1      -5.297  12.196  17.115  0.00  0.00    +0.000 A 
ATOM     23  C   UNL     1      -4.534  12.029  18.275  0.00  0.00    +0.000 A 
ATOM     24  C   UNL     1      -5.204  11.902  19.503  0.00  0.00    +0.000 A 
ENDBRANCH  14  23
ENDBRANCH  13  15
ENDBRANCH   1  13
BRANCH   4  25
ATOM     25  C   UNL     1       2.419   7.695  19.435  0.00  0.00    +0.000 C 
BRANCH  25  26
ATOM     26  C   UNL     1       1.908   6.266  19.354  0.00  0.00    +0.000 A 
ATOM     27  C   UNL     1       1.670   5.513  20.532  0.00  0.00    +0.000 A 
ATOM     28  C   UNL     1       1.576   4.118  20.484  0.00  0.00    +0.000 A 
ATOM     29  C   UNL     1       1.771   3.520  19.259  0.00  0.00    +0.000 A 
ATOM     30  C   UNL     1       1.901   4.255  18.101  0.00  0.00    +0.000 A 
ATOM     31  C   UNL     1       1.917   5.625  18.106  0.00  0.00    +0.000 A 
ATOM     32  O   UNL     1       2.210   3.474  17.027  0.00  0.00    +0.000 OA
ATOM     33  C   UNL     1       2.668   2.314  17.749  0.00  0.00    +0.000 C 
ATOM     34  O   UNL     1       2.018   2.196  19.034  0.00  0.00    +0.000 OA
ENDBRANCH  25  26
ENDBRANCH   4  25
TORSDOF 5
ENDMDL
MODEL 6
REMARK VINA RESULT:      -8.6      3.653      5.703
REMARK  Name = 
REMARK  6 active torsions:
REMARK  status: ('A' for Active; 'I' for Inactive)
REMARK    1  A    between atoms: C_1  and  C_2
REMARK    2  A    between atoms: C_6  and  N_7
REMARK    3  A    between atoms: C_8  and  C_10
REMARK    4  A    between atoms: C_10  and  N_11
REMARK    5  A    between atoms: N_14  and  C_15
REMARK    6  A    between atoms: C_15  and  C_16
REMARK                            x       y       z     vdW  Elec       q    Type
REMARK                         _______ _______ _______ _____ _____    ______ ____
ROOT
ATOM      1  N   UNL     1       4.944   4.931  18.317  0.00  0.00    +0.000 N 
ATOM      2  C   UNL     1       4.616   6.267  18.116  0.00  0.00    +0.000 A 
ATOM      3  O   UNL     1       5.493   7.138  18.149  0.00  0.00    +0.000 OA
ATOM      4  N   UNL     1       3.283   6.568  17.880  0.00  0.00    +0.000 N 
ATOM      5  C   UNL     1       2.245   5.648  17.939  0.00  0.00    +0.000 A 
ATOM      6  O   UNL     1       1.061   5.940  17.771  0.00  0.00    +0.000 OA
ATOM      7  C   UNL     1       2.611   4.249  18.209  0.00  0.00    +0.000 A 
ATOM      8  C   UNL     1       1.599   3.275  18.264  0.00  0.00    +0.000 A 
ATOM      9  C   UNL     1       1.924   1.938  18.462  0.00  0.00    +0.000 A 
ATOM     10  C   UNL     1       3.260   1.576  18.605  0.00  0.00    +0.000 A 
ATOM     11  C   UNL     1       4.266   2.551  18.559  0.00  0.00    +0.000 A 
ATOM     12  C   UNL     1       3.957   3.906  18.359  0.00  0.00    +0.000 A 
ENDROOT
BRANCH   1  13
ATOM     13  C   UNL     1       6.374   4.615  18.404  0.00  0.00    +0.000 C 
BRANCH  13  15
ATOM     14  N   UNL     1       6.137   4.614  15.943  0.00  0.00    +0.000 N 
ATOM     15  C   UNL     1       7.012   4.476  17.016  0.00  0.00    +0.000 C 
ATOM     16  O   UNL     1       8.219   4.244  16.926  0.00  0.00    +0.000 OA
ATOM     17  H   UNL     1       5.185   4.899  16.142  0.00  0.00    +0.000 HD
BRANCH  14  23
ATOM     18  C   UNL     1       5.435   2.437  11.534  0.00  0.00    +0.000 C 
ATOM     19  C   UNL     1       6.169   3.417  12.406  0.00  0.00    +0.000 A 
ATOM     20  C   UNL     1       7.154   4.237  11.847  0.00  0.00    +0.000 A 
ATOM     21  C   UNL     1       7.814   5.170  12.641  0.00  0.00    +0.000 A 
ATOM     22  C   UNL     1       7.484   5.306  13.990  0.00  0.00    +0.000 A 
ATOM     23  C   UNL     1       6.499   4.504  14.575  0.00  0.00    +0.000 A 
ATOM     24  C   UNL     1       5.862   3.540  13.775  0.00  0.00    +0.000 A 
ENDBRANCH  14  23
ENDBRANCH  13  15
ENDBRANCH   1  13
BRANCH   4  25
ATOM     25  C   UNL     1       2.948   7.929  17.438  0.00  0.00    +0.000 C 
BRANCH  25  26
ATOM     26  C   UNL     1       1.794   8.464  18.270  0.00  0.00    +0.000 A 
ATOM     27  C   UNL     1       0.812   9.308  17.690  0.00  0.00    +0.000 A 
ATOM     28  C   UNL     1      -0.014  10.102  18.493  0.00  0.00    +0.000 A 
ATOM     29  C   UNL     1       0.205  10.057  19.852  0.00  0.00    +0.000 A 
ATOM     30  C   UNL     1       1.087   9.165  20.421  0.00  0.00    +0.000 A 
ATOM     31  C   UNL     1       1.853   8.318  19.664  0.00  0.00    +0.000 A 
ATOM     32  O   UNL     1       1.243   9.375  21.758  0.00  0.00    +0.000 OA
ATOM     33  C   UNL     1       0.720  10.717  21.811  0.00  0.00    +0.000 C 
ATOM     34  O   UNL     1      -0.263  10.946  20.777  0.00  0.00    +0.000 OA
ENDBRANCH  25  26
ENDBRANCH   4  25
TORSDOF 5
ENDMDL
MODEL 7
REMARK VINA RESULT:      -8.4      0.720      1.774
REMARK  Name = 
REMARK  6 active torsions:
REMARK  status: ('A' for Active; 'I' for Inactive)
REMARK    1  A    between atoms: C_1  and  C_2
REMARK    2  A    between atoms: C_6  and  N_7
REMARK    3  A    between atoms: C_8  and  C_10
REMARK    4  A    between atoms: C_10  and  N_11
REMARK    5  A    between atoms: N_14  and  C_15
REMARK    6  A    between atoms: C_15  and  C_16
REMARK                            x       y       z     vdW  Elec       q    Type
REMARK                         _______ _______ _______ _____ _____    ______ ____
ROOT
ATOM      1  N   UNL     1       6.788   5.401  17.788  0.00  0.00    +0.000 N 
ATOM      2  C   UNL     1       5.908   5.241  18.852  0.00  0.00    +0.000 A 
ATOM      3  O   UNL     1       6.256   5.537  20.001  0.00  0.00    +0.000 OA
ATOM      4  N   UNL     1       4.643   4.747  18.566  0.00  0.00    +0.000 N 
ATOM      5  C   UNL     1       4.237   4.300  17.317  0.00  0.00    +0.000 A 
ATOM      6  O   UNL     1       3.125   3.822  17.090  0.00  0.00    +0.000 OA
ATOM      7  C   UNL     1       5.206   4.426  16.217  0.00  0.00    +0.000 A 
ATOM      8  C   UNL     1       4.837   4.002  14.928  0.00  0.00    +0.000 A 
ATOM      9  C   UNL     1       5.714   4.161  13.861  0.00  0.00    +0.000 A 
ATOM     10  C   UNL     1       6.957   4.745  14.083  0.00  0.00    +0.000 A 
ATOM     11  C   UNL     1       7.325   5.158  15.371  0.00  0.00    +0.000 A 
ATOM     12  C   UNL     1       6.453   5.006  16.461  0.00  0.00    +0.000 A 
ENDROOT
BRANCH   1  13
ATOM     13  C   UNL     1       8.057   6.073  18.084  0.00  0.00    +0.000 C 
BRANCH  13  15
ATOM     14  N   UNL     1       8.926   8.291  18.747  0.00  0.00    +0.000 N 
ATOM     15  C   UNL     1       7.902   7.599  18.108  0.00  0.00    +0.000 C 
ATOM     16  O   UNL     1       6.908   8.114  17.591  0.00  0.00    +0.000 OA
ATOM     17  H   UNL     1       9.738   7.763  19.049  0.00  0.00    +0.000 HD
BRANCH  14  23
ATOM     18  C   UNL     1       7.880  12.806  16.963  0.00  0.00    +0.000 C 
ATOM     19  C   UNL     1       8.488  11.927  18.019  0.00  0.00    +0.000 A 
ATOM     20  C   UNL     1       9.052  12.505  19.161  0.00  0.00    +0.000 A 
ATOM     21  C   UNL     1       9.587  11.696  20.159  0.00  0.00    +0.000 A 
ATOM     22  C   UNL     1       9.547  10.306  20.035  0.00  0.00    +0.000 A 
ATOM     23  C   UNL     1       8.984   9.700  18.908  0.00  0.00    +0.000 A 
ATOM     24  C   UNL     1       8.478  10.524  17.889  0.00  0.00    +0.000 A 
ENDBRANCH  14  23
ENDBRANCH  13  15
ENDBRANCH   1  13
BRANCH   4  25
ATOM     25  C   UNL     1       3.628   4.789  19.628  0.00  0.00    +0.000 C 
BRANCH  25  26
ATOM     26  C   UNL     1       2.728   5.997  19.422  0.00  0.00    +0.000 A 
ATOM     27  C   UNL     1       2.961   6.902  18.355  0.00  0.00    +0.000 A 
ATOM     28  C   UNL     1       2.409   8.187  18.372  0.00  0.00    +0.000 A 
ATOM     29  C   UNL     1       1.677   8.538  19.484  0.00  0.00    +0.000 A 
ATOM     30  C   UNL     1       1.367   7.629  20.471  0.00  0.00    +0.000 A 
ATOM     31  C   UNL     1       1.827   6.339  20.442  0.00  0.00    +0.000 A 
ATOM     32  O   UNL     1       0.747   8.214  21.535  0.00  0.00    +0.000 OA
ATOM     33  C   UNL     1       1.123   9.577  21.259  0.00  0.00    +0.000 C 
ATOM     34  O   UNL     1       1.309   9.803  19.844  0.00  0.00    +0.000 OA
ENDBRANCH  25  26
ENDBRANCH   4  25
TORSDOF 5
ENDMDL
MODEL 8
REMARK VINA RESULT:      -8.4      5.715      9.838
REMARK  Name = 
REMARK  6 active torsions:
REMARK  status: ('A' for Active; 'I' for Inactive)
REMARK    1  A    between atoms: C_1  and  C_2
REMARK    2  A    between atoms: C_6  and  N_7
REMARK    3  A    between atoms: C_8  and  C_10
REMARK    4  A    between atoms: C_10  and  N_11
REMARK    5  A    between atoms: N_14  and  C_15
REMARK    6  A    between atoms: C_15  and  C_16
REMARK                            x       y       z     vdW  Elec       q    Type
REMARK                         _______ _______ _______ _____ _____    ______ ____
ROOT
ATOM      1  N   UNL     1      -0.227  11.296  19.814  0.00  0.00    +0.000 N 
ATOM      2  C   UNL     1      -0.420  12.210  20.844  0.00  0.00    +0.000 A 
ATOM      3  O   UNL     1       0.451  12.374  21.706  0.00  0.00    +0.000 OA
ATOM      4  N   UNL     1      -1.614  12.917  20.854  0.00  0.00    +0.000 N 
ATOM      5  C   UNL     1      -2.667  12.697  19.977  0.00  0.00    +0.000 A 
ATOM      6  O   UNL     1      -3.737  13.302  20.028  0.00  0.00    +0.000 OA
ATOM      7  C   UNL     1      -2.460  11.684  18.929  0.00  0.00    +0.000 A 
ATOM      8  C   UNL     1      -3.490  11.434  18.006  0.00  0.00    +0.000 A 
ATOM      9  C   UNL     1      -3.299  10.523  16.974  0.00  0.00    +0.000 A 
ATOM     10  C   UNL     1      -2.079   9.863  16.866  0.00  0.00    +0.000 A 
ATOM     11  C   UNL     1      -1.057  10.107  17.794  0.00  0.00    +0.000 A 
ATOM     12  C   UNL     1      -1.232  11.025  18.842  0.00  0.00    +0.000 A 
ENDROOT
BRANCH   1  13
ATOM     13  C   UNL     1       1.101  10.680  19.728  0.00  0.00    +0.000 C 
BRANCH  13  15
ATOM     14  N   UNL     1       1.936   8.381  19.364  0.00  0.00    +0.000 N 
ATOM     15  C   UNL     1       1.061   9.188  20.084  0.00  0.00    +0.000 C 
ATOM     16  O   UNL     1       0.276   8.793  20.949  0.00  0.00    +0.000 OA
ATOM     17  H   UNL     1       2.601   8.836  18.747  0.00  0.00    +0.000 HD
BRANCH  14  23
ATOM     18  C   UNL     1       2.944   3.979  17.297  0.00  0.00    +0.000 C 
ATOM     19  C   UNL     1       2.533   4.801  18.486  0.00  0.00    +0.000 A 
ATOM     20  C   UNL     1       2.329   4.178  19.722  0.00  0.00    +0.000 A 
ATOM     21  C   UNL     1       1.982   4.938  20.835  0.00  0.00    +0.000 A 
ATOM     22  C   UNL     1       1.854   6.324  20.729  0.00  0.00    +0.000 A 
ATOM     23  C   UNL     1       2.058   6.975  19.509  0.00  0.00    +0.000 A 
ATOM     24  C   UNL     1       2.374   6.197  18.382  0.00  0.00    +0.000 A 
ENDBRANCH  14  23
ENDBRANCH  13  15
ENDBRANCH   1  13
BRANCH   4  25
ATOM     25  C   UNL     1      -1.743  14.044  21.789  0.00  0.00    +0.000 C 
BRANCH  25  26
ATOM     26  C   UNL     1      -2.753  13.694  22.869  0.00  0.00    +0.000 A 
ATOM     27  C   UNL     1      -2.714  12.433  23.518  0.00  0.00    +0.000 A 
ATOM     28  C   UNL     1      -3.828  11.951  24.213  0.00  0.00    +0.000 A 
ATOM     29  C   UNL     1      -4.963  12.731  24.195  0.00  0.00    +0.000 A 
ATOM     30  C   UNL     1      -4.969  13.997  23.652  0.00  0.00    +0.000 A 
ATOM     31  C   UNL     1      -3.869  14.529  23.034  0.00  0.00    +0.000 A 
ATOM     32  O   UNL     1      -6.219  14.540  23.626  0.00  0.00    +0.000 OA
ATOM     33  C   UNL     1      -6.970  13.322  23.793  0.00  0.00    +0.000 C 
ATOM     34  O   UNL     1      -6.223  12.334  24.539  0.00  0.00    +0.000 OA
ENDBRANCH  25  26
ENDBRANCH   4  25
TORSDOF 5
ENDMDL
MODEL 9
REMARK VINA RESULT:      -8.4      3.253      7.652
REMARK  Name = 
REMARK  6 active torsions:
REMARK  status: ('A' for Active; 'I' for Inactive)
REMARK    1  A    between atoms: C_1  and  C_2
REMARK    2  A    between atoms: C_6  and  N_7
REMARK    3  A    between atoms: C_8  and  C_10
REMARK    4  A    between atoms: C_10  and  N_11
REMARK    5  A    between atoms: N_14  and  C_15
REMARK    6  A    between atoms: C_15  and  C_16
REMARK                            x       y       z     vdW  Elec       q    Type
REMARK                         _______ _______ _______ _____ _____    ______ ____
ROOT
ATOM      1  N   UNL     1       2.280   6.610  19.714  0.00  0.00    +0.000 N 
ATOM      2  C   UNL     1       2.796   7.103  18.520  0.00  0.00    +0.000 A 
ATOM      3  O   UNL     1       2.934   8.320  18.354  0.00  0.00    +0.000 OA
ATOM      4  N   UNL     1       3.144   6.178  17.546  0.00  0.00    +0.000 N 
ATOM      5  C   UNL     1       2.911   4.813  17.637  0.00  0.00    +0.000 A 
ATOM      6  O   UNL     1       3.185   4.012  16.744  0.00  0.00    +0.000 OA
ATOM      7  C   UNL     1       2.312   4.322  18.888  0.00  0.00    +0.000 A 
ATOM      8  C   UNL     1       2.071   2.945  19.036  0.00  0.00    +0.000 A 
ATOM      9  C   UNL     1       1.557   2.449  20.229  0.00  0.00    +0.000 A 
ATOM     10  C   UNL     1       1.287   3.330  21.272  0.00  0.00    +0.000 A 
ATOM     11  C   UNL     1       1.520   4.703  21.117  0.00  0.00    +0.000 A 
ATOM     12  C   UNL     1       2.038   5.222  19.920  0.00  0.00    +0.000 A 
ENDROOT
BRANCH   1  13
ATOM     13  C   UNL     1       2.071   7.587  20.787  0.00  0.00    +0.000 C 
BRANCH  13  15
ATOM     14  N   UNL     1       0.745   9.452  19.851  0.00  0.00    +0.000 N 
ATOM     15  C   UNL     1       0.726   8.310  20.646  0.00  0.00    +0.000 C 
ATOM     16  O   UNL     1      -0.264   7.867  21.233  0.00  0.00    +0.000 OA
ATOM     17  H   UNL     1       1.597   9.661  19.343  0.00  0.00    +0.000 HD
BRANCH  14  23
ATOM     18  C   UNL     1      -3.116  10.594  16.941  0.00  0.00    +0.000 C 
ATOM     19  C   UNL     1      -2.264  10.866  18.150  0.00  0.00    +0.000 A 
ATOM     20  C   UNL     1      -2.614  11.899  19.026  0.00  0.00    +0.000 A 
ATOM     21  C   UNL     1      -1.850  12.134  20.164  0.00  0.00    +0.000 A 
ATOM     22  C   UNL     1      -0.744  11.331  20.448  0.00  0.00    +0.000 A 
ATOM     23  C   UNL     1      -0.373  10.288  19.595  0.00  0.00    +0.000 A 
ATOM     24  C   UNL     1      -1.129  10.079  18.429  0.00  0.00    +0.000 A 
ENDBRANCH  14  23
ENDBRANCH  13  15
ENDBRANCH   1  13
BRANCH   4  25
ATOM     25  C   UNL     1       3.900   6.654  16.379  0.00  0.00    +0.000 C 
BRANCH  25  26
ATOM     26  C   UNL     1       5.346   6.201  16.491  0.00  0.00    +0.000 A 
ATOM     27  C   UNL     1       5.832   5.124  15.706  0.00  0.00    +0.000 A 
ATOM     28  C   UNL     1       7.009   4.454  16.057  0.00  0.00    +0.000 A 
ATOM     29  C   UNL     1       7.636   4.859  17.214  0.00  0.00    +0.000 A 
ATOM     30  C   UNL     1       7.222   5.967  17.921  0.00  0.00    +0.000 A 
ATOM     31  C   UNL     1       6.118   6.691  17.555  0.00  0.00    +0.000 A 
ATOM     32  O   UNL     1       7.899   6.113  19.095  0.00  0.00    +0.000 OA
ATOM     33  C   UNL     1       8.414   4.771  19.196  0.00  0.00    +0.000 C 
ATOM     34  O   UNL     1       8.602   4.173  17.894  0.00  0.00    +0.000 OA
ENDBRANCH  25  26
ENDBRANCH   4  25
TORSDOF 5
ENDMDL
