MODEL 1
REMARK VINA RESULT:      -7.0      0.000      0.000
REMARK  Name = 
REMARK  6 active torsions:
REMARK  status: ('A' for Active; 'I' for Inactive)
REMARK    1  A    between atoms: C_1  and  N_2
REMARK    2  A    between atoms: N_2  and  C_16
REMARK    3  A    between atoms: N_5  and  C_6
REMARK    4  A    between atoms: C_6  and  C_7
REMARK    5  A    between atoms: C_7  and  O_8
REMARK    6  A    between atoms: O_8  and  C_9
REMARK                            x       y       z     vdW  Elec       q    Type
REMARK                         _______ _______ _______ _____ _____    ______ ____
ROOT
ATOM      1  C   UNL     1       5.471   4.614  15.802  0.00  0.00    +0.000 C 
ATOM      2  N   UNL     1       5.600   4.581  17.256  0.00  0.00    +0.000 N 
ATOM      3  C   UNL     1       4.996   3.670  18.109  0.00  0.00    +0.000 C 
ATOM      4  O   UNL     1       5.112   3.778  19.327  0.00  0.00    +0.000 OA
ATOM      5  N   UNL     1       4.223   2.695  17.536  0.00  0.00    +0.000 N 
ATOM      6  H   UNL     1       4.428   2.450  16.584  0.00  0.00    +0.000 HD
ENDROOT
BRANCH   2   7
ATOM      7  C   UNL     1       6.221   5.746  17.917  0.00  0.00    +0.000 C 
ATOM      8  C   UNL     1       7.673   5.627  18.335  0.00  0.00    +0.000 C 
ATOM      9  C   UNL     1       8.085   7.078  18.459  0.00  0.00    +0.000 C 
ATOM     10  O   UNL     1       7.362   7.801  17.456  0.00  0.00    +0.000 OA
ATOM     11  C   UNL     1       6.239   7.002  17.042  0.00  0.00    +0.000 C 
ENDBRANCH   2   7
BRANCH   5  12
ATOM     12  C   UNL     1       3.582   1.624  18.307  0.00  0.00    +0.000 C 
BRANCH  12  13
ATOM     13  C   UNL     1       2.164   1.919  18.796  0.00  0.00    +0.000 C 
BRANCH  13  14
ATOM     14  O   UNL     1       1.602   3.062  18.141  0.00  0.00    +0.000 OA
BRANCH  14  15
ATOM     15  C   UNL     1       1.699   4.227  18.869  0.00  0.00    +0.000 A 
ATOM     16  C   UNL     1       1.465   4.349  20.244  0.00  0.00    +0.000 A 
ATOM     17  C   UNL     1       1.617   5.577  20.889  0.00  0.00    +0.000 A 
ATOM     18  C   UNL     1       2.003   6.699  20.161  0.00  0.00    +0.000 A 
ATOM     19  C   UNL     1       2.225   6.585  18.789  0.00  0.00    +0.000 A 
ATOM     20 BR   UNL     1       2.744   8.113  17.803  0.00  0.00    +0.000 Br
ATOM     21  C   UNL     1       2.076   5.358  18.140  0.00  0.00    +0.000 A 
ENDBRANCH  14  15
ENDBRANCH  13  14
ENDBRANCH  12  13
ENDBRANCH   5  12
TORSDOF 5
ENDMDL
MODEL 2
REMARK VINA RESULT:      -6.7      3.106      6.686
REMARK  Name = 
REMARK  6 active torsions:
REMARK  status: ('A' for Active; 'I' for Inactive)
REMARK    1  A    between atoms: C_1  and  N_2
REMARK    2  A    between atoms: N_2  and  C_16
REMARK    3  A    between atoms: N_5  and  C_6
REMARK    4  A    between atoms: C_6  and  C_7
REMARK    5  A    between atoms: C_7  and  O_8
REMARK    6  A    between atoms: O_8  and  C_9
REMARK                            x       y       z     vdW  Elec       q    Type
REMARK                         _______ _______ _______ _____ _____    ______ ____
ROOT
ATOM      1  C   UNL     1       2.922   6.052  18.843  0.00  0.00    +0.000 C 
ATOM      2  N   UNL     1       3.618   4.842  19.271  0.00  0.00    +0.000 N 
ATOM      3  C   UNL     1       4.953   4.545  19.044  0.00  0.00    +0.000 C 
ATOM      4  O   UNL     1       5.422   3.461  19.384  0.00  0.00    +0.000 OA
ATOM      5  N   UNL     1       5.696   5.479  18.372  0.00  0.00    +0.000 N 
ATOM      6  H   UNL     1       5.383   6.432  18.421  0.00  0.00    +0.000 HD
ENDROOT
BRANCH   2   7
ATOM      7  C   UNL     1       2.801   3.722  19.777  0.00  0.00    +0.000 C 
ATOM      8  C   UNL     1       2.605   3.614  21.277  0.00  0.00    +0.000 C 
ATOM      9  C   UNL     1       1.366   2.751  21.371  0.00  0.00    +0.000 C 
ATOM     10  O   UNL     1       0.540   3.087  20.250  0.00  0.00    +0.000 OA
ATOM     11  C   UNL     1       1.358   3.742  19.265  0.00  0.00    +0.000 C 
ENDBRANCH   2   7
BRANCH   5  12
ATOM     12  C   UNL     1       7.134   5.331  18.123  0.00  0.00    +0.000 C 
BRANCH  12  13
ATOM     13  C   UNL     1       7.509   4.529  16.877  0.00  0.00    +0.000 C 
BRANCH  13  14
ATOM     14  O   UNL     1       6.392   4.355  16.000  0.00  0.00    +0.000 OA
BRANCH  14  15
ATOM     15  C   UNL     1       6.711   4.447  14.663  0.00  0.00    +0.000 A 
ATOM     16  C   UNL     1       7.578   5.390  14.097  0.00  0.00    +0.000 A 
ATOM     17  C   UNL     1       7.853   5.378  12.729  0.00  0.00    +0.000 A 
ATOM     18  C   UNL     1       7.259   4.421  11.911  0.00  0.00    +0.000 A 
ATOM     19  C   UNL     1       6.385   3.488  12.468  0.00  0.00    +0.000 A 
ATOM     20 BR   UNL     1       5.576   2.194  11.353  0.00  0.00    +0.000 Br
ATOM     21  C   UNL     1       6.109   3.496  13.836  0.00  0.00    +0.000 A 
ENDBRANCH  14  15
ENDBRANCH  13  14
ENDBRANCH  12  13
ENDBRANCH   5  12
TORSDOF 5
ENDMDL
MODEL 3
REMARK VINA RESULT:      -6.6      4.027      7.752
REMARK  Name = 
REMARK  6 active torsions:
REMARK  status: ('A' for Active; 'I' for Inactive)
REMARK    1  A    between atoms: C_1  and  N_2
REMARK    2  A    between atoms: N_2  and  C_16
REMARK    3  A    between atoms: N_5  and  C_6
REMARK    4  A    between atoms: C_6  and  C_7
REMARK    5  A    between atoms: C_7  and  O_8
REMARK    6  A    between atoms: O_8  and  C_9
REMARK                            x       y       z     vdW  Elec       q    Type
REMARK                         _______ _______ _______ _____ _____    ______ ____
ROOT
ATOM      1  C   UNL     1       5.649   4.932  19.311  0.00  0.00    +0.000 C 
ATOM      2  N   UNL     1       5.335   5.407  17.967  0.00  0.00    +0.000 N 
ATOM      3  C   UNL     1       6.010   6.400  17.274  0.00  0.00    +0.000 C 
ATOM      4  O   UNL     1       5.616   6.776  16.172  0.00  0.00    +0.000 OA
ATOM      5  N   UNL     1       7.084   6.978  17.897  0.00  0.00    +0.000 N 
ATOM      6  H   UNL     1       7.551   6.434  18.600  0.00  0.00    +0.000 HD
ENDROOT
BRANCH   2   7
ATOM      7  C   UNL     1       4.054   4.981  17.369  0.00  0.00    +0.000 C 
ATOM      8  C   UNL     1       3.732   3.500  17.375  0.00  0.00    +0.000 C 
ATOM      9  C   UNL     1       2.228   3.504  17.202  0.00  0.00    +0.000 C 
ATOM     10  O   UNL     1       1.736   4.664  17.883  0.00  0.00    +0.000 OA
ATOM     11  C   UNL     1       2.830   5.580  18.068  0.00  0.00    +0.000 C 
ENDBRANCH   2   7
BRANCH   5  12
ATOM     12  C   UNL     1       7.932   7.990  17.259  0.00  0.00    +0.000 C 
BRANCH  12  13
ATOM     13  C   UNL     1       8.014   9.335  17.981  0.00  0.00    +0.000 C 
BRANCH  13  14
ATOM     14  O   UNL     1       8.963   9.306  19.052  0.00  0.00    +0.000 OA
BRANCH  14  15
ATOM     15  C   UNL     1       9.532  10.530  19.327  0.00  0.00    +0.000 A 
ATOM     16  C   UNL     1       9.667  11.098  20.600  0.00  0.00    +0.000 A 
ATOM     17  C   UNL     1      10.285  12.337  20.769  0.00  0.00    +0.000 A 
ATOM     18  C   UNL     1      10.773  13.025  19.661  0.00  0.00    +0.000 A 
ATOM     19  C   UNL     1      10.630  12.469  18.390  0.00  0.00    +0.000 A 
ATOM     20 BR   UNL     1      11.289  13.409  16.888  0.00  0.00    +0.000 Br
ATOM     21  C   UNL     1      10.014  11.229  18.217  0.00  0.00    +0.000 A 
ENDBRANCH  14  15
ENDBRANCH  13  14
ENDBRANCH  12  13
ENDBRANCH   5  12
TORSDOF 5
ENDMDL
MODEL 4
REMARK VINA RESULT:      -6.5      3.162      6.819
REMARK  Name = 
REMARK  6 active torsions:
REMARK  status: ('A' for Active; 'I' for Inactive)
REMARK    1  A    between atoms: C_1  and  N_2
REMARK    2  A    between atoms: N_2  and  C_16
REMARK    3  A    between atoms: N_5  and  C_6
REMARK    4  A    between atoms: C_6  and  C_7
REMARK    5  A    between atoms: C_7  and  O_8
REMARK    6  A    between atoms: O_8  and  C_9
REMARK                            x       y       z     vdW  Elec       q    Type
REMARK                         _______ _______ _______ _____ _____    ______ ____
ROOT
ATOM      1  C   UNL     1       3.897   1.909  18.377  0.00  0.00    +0.000 C 
ATOM      2  N   UNL     1       3.819   3.269  18.904  0.00  0.00    +0.000 N 
ATOM      3  C   UNL     1       4.829   4.219  18.863  0.00  0.00    +0.000 C 
ATOM      4  O   UNL     1       4.684   5.313  19.403  0.00  0.00    +0.000 OA
ATOM      5  N   UNL     1       6.003   3.858  18.258  0.00  0.00    +0.000 N 
ATOM      6  H   UNL     1       5.956   3.129  17.569  0.00  0.00    +0.000 HD
ENDROOT
BRANCH   2   7
ATOM      7  C   UNL     1       2.671   3.608  19.766  0.00  0.00    +0.000 C 
ATOM      8  C   UNL     1       1.283   3.277  19.253  0.00  0.00    +0.000 C 
ATOM      9  C   UNL     1       0.471   3.258  20.530  0.00  0.00    +0.000 C 
ATOM     10  O   UNL     1       1.331   2.756  21.560  0.00  0.00    +0.000 OA
ATOM     11  C   UNL     1       2.694   2.890  21.118  0.00  0.00    +0.000 C 
ENDBRANCH   2   7
BRANCH   5  12
ATOM     12  C   UNL     1       7.130   4.779  18.080  0.00  0.00    +0.000 C 
BRANCH  12  13
ATOM     13  C   UNL     1       7.402   5.222  16.643  0.00  0.00    +0.000 C 
BRANCH  13  14
ATOM     14  O   UNL     1       6.321   4.884  15.769  0.00  0.00    +0.000 OA
BRANCH  14  15
ATOM     15  C   UNL     1       6.687   4.766  14.446  0.00  0.00    +0.000 A 
ATOM     16  C   UNL     1       7.624   5.571  13.787  0.00  0.00    +0.000 A 
ATOM     17  C   UNL     1       7.941   5.348  12.446  0.00  0.00    +0.000 A 
ATOM     18  C   UNL     1       7.319   4.316  11.749  0.00  0.00    +0.000 A 
ATOM     19  C   UNL     1       6.376   3.519  12.398  0.00  0.00    +0.000 A 
ATOM     20 BR   UNL     1       5.530   2.122  11.447  0.00  0.00    +0.000 Br
ATOM     21  C   UNL     1       6.057   3.738  13.740  0.00  0.00    +0.000 A 
ENDBRANCH  14  15
ENDBRANCH  13  14
ENDBRANCH  12  13
ENDBRANCH   5  12
TORSDOF 5
ENDMDL
MODEL 5
REMARK VINA RESULT:      -6.4      2.443      3.562
REMARK  Name = 
REMARK  6 active torsions:
REMARK  status: ('A' for Active; 'I' for Inactive)
REMARK    1  A    between atoms: C_1  and  N_2
REMARK    2  A    between atoms: N_2  and  C_16
REMARK    3  A    between atoms: N_5  and  C_6
REMARK    4  A    between atoms: C_6  and  C_7
REMARK    5  A    between atoms: C_7  and  O_8
REMARK    6  A    between atoms: O_8  and  C_9
REMARK                            x       y       z     vdW  Elec       q    Type
REMARK                         _______ _______ _______ _____ _____    ______ ____
ROOT
ATOM      1  C   UNL     1       6.325   5.332  19.088  0.00  0.00    +0.000 C 
ATOM      2  N   UNL     1       5.351   4.851  18.112  0.00  0.00    +0.000 N 
ATOM      3  C   UNL     1       4.044   4.475  18.381  0.00  0.00    +0.000 C 
ATOM      4  O   UNL     1       3.329   4.013  17.494  0.00  0.00    +0.000 OA
ATOM      5  N   UNL     1       3.616   4.581  19.677  0.00  0.00    +0.000 N 
ATOM      6  H   UNL     1       4.089   5.248  20.261  0.00  0.00    +0.000 HD
ENDROOT
BRANCH   2   7
ATOM      7  C   UNL     1       5.844   4.500  16.766  0.00  0.00    +0.000 C 
ATOM      8  C   UNL     1       5.449   5.402  15.613  0.00  0.00    +0.000 C 
ATOM      9  C   UNL     1       6.504   5.072  14.580  0.00  0.00    +0.000 C 
ATOM     10  O   UNL     1       7.712   4.790  15.296  0.00  0.00    +0.000 OA
ATOM     11  C   UNL     1       7.371   4.491  16.661  0.00  0.00    +0.000 C 
ENDBRANCH   2   7
BRANCH   5  12
ATOM     12  C   UNL     1       2.242   4.285  20.095  0.00  0.00    +0.000 C 
BRANCH  12  13
ATOM     13  C   UNL     1       1.453   5.468  20.656  0.00  0.00    +0.000 C 
BRANCH  13  14
ATOM     14  O   UNL     1       2.267   6.638  20.783  0.00  0.00    +0.000 OA
BRANCH  14  15
ATOM     15  C   UNL     1       1.933   7.649  19.909  0.00  0.00    +0.000 A 
ATOM     16  C   UNL     1       2.317   7.721  18.564  0.00  0.00    +0.000 A 
ATOM     17  C   UNL     1       1.901   8.780  17.757  0.00  0.00    +0.000 A 
ATOM     18  C   UNL     1       1.095   9.783  18.290  0.00  0.00    +0.000 A 
ATOM     19  C   UNL     1       0.721   9.722  19.632  0.00  0.00    +0.000 A 
ATOM     20 BR   UNL     1      -0.368  11.089  20.354  0.00  0.00    +0.000 Br
ATOM     21  C   UNL     1       1.134   8.663  20.443  0.00  0.00    +0.000 A 
ENDBRANCH  14  15
ENDBRANCH  13  14
ENDBRANCH  12  13
ENDBRANCH   5  12
TORSDOF 5
ENDMDL
MODEL 6
REMARK VINA RESULT:      -6.3      3.802      7.519
REMARK  Name = 
REMARK  6 active torsions:
REMARK  status: ('A' for Active; 'I' for Inactive)
REMARK    1  A    between atoms: C_1  and  N_2
REMARK    2  A    between atoms: N_2  and  C_16
REMARK    3  A    between atoms: N_5  and  C_6
REMARK    4  A    between atoms: C_6  and  C_7
REMARK    5  A    between atoms: C_7  and  O_8
REMARK    6  A    between atoms: O_8  and  C_9
REMARK                            x       y       z     vdW  Elec       q    Type
REMARK                         _______ _______ _______ _____ _____    ______ ____
ROOT
ATOM      1  C   UNL     1       3.869   5.836  19.056  0.00  0.00    +0.000 C 
ATOM      2  N   UNL     1       4.852   4.987  18.389  0.00  0.00    +0.000 N 
ATOM      3  C   UNL     1       6.041   5.411  17.814  0.00  0.00    +0.000 C 
ATOM      4  O   UNL     1       6.763   4.621  17.211  0.00  0.00    +0.000 OA
ATOM      5  N   UNL     1       6.332   6.747  17.894  0.00  0.00    +0.000 N 
ATOM      6  H   UNL     1       5.915   7.261  18.649  0.00  0.00    +0.000 HD
ENDROOT
BRANCH   2   7
ATOM      7  C   UNL     1       4.461   3.599  18.076  0.00  0.00    +0.000 C 
ATOM      8  C   UNL     1       4.156   2.674  19.237  0.00  0.00    +0.000 C 
ATOM      9  C   UNL     1       3.326   1.597  18.572  0.00  0.00    +0.000 C 
ATOM     10  O   UNL     1       2.563   2.238  17.543  0.00  0.00    +0.000 OA
ATOM     11  C   UNL     1       3.182   3.502  17.241  0.00  0.00    +0.000 C 
ENDBRANCH   2   7
BRANCH   5  12
ATOM     12  C   UNL     1       7.583   7.326  17.393  0.00  0.00    +0.000 C 
BRANCH  12  13
ATOM     13  C   UNL     1       8.271   8.322  18.326  0.00  0.00    +0.000 C 
BRANCH  13  14
ATOM     14  O   UNL     1       8.370   9.623  17.736  0.00  0.00    +0.000 OA
BRANCH  14  15
ATOM     15  C   UNL     1       9.074  10.529  18.497  0.00  0.00    +0.000 A 
ATOM     16  C   UNL     1       9.357  10.399  19.862  0.00  0.00    +0.000 A 
ATOM     17  C   UNL     1      10.104  11.369  20.533  0.00  0.00    +0.000 A 
ATOM     18  C   UNL     1      10.572  12.483  19.843  0.00  0.00    +0.000 A 
ATOM     19  C   UNL     1      10.282  12.624  18.486  0.00  0.00    +0.000 A 
ATOM     20 BR   UNL     1      10.915  14.141  17.554  0.00  0.00    +0.000 Br
ATOM     21  C   UNL     1       9.537  11.655  17.811  0.00  0.00    +0.000 A 
ENDBRANCH  14  15
ENDBRANCH  13  14
ENDBRANCH  12  13
ENDBRANCH   5  12
TORSDOF 5
ENDMDL
MODEL 7
REMARK VINA RESULT:      -6.1      4.418      6.810
REMARK  Name = 
REMARK  6 active torsions:
REMARK  status: ('A' for Active; 'I' for Inactive)
REMARK    1  A    between atoms: C_1  and  N_2
REMARK    2  A    between atoms: N_2  and  C_16
REMARK    3  A    between atoms: N_5  and  C_6
REMARK    4  A    between atoms: C_6  and  C_7
REMARK    5  A    between atoms: C_7  and  O_8
REMARK    6  A    between atoms: O_8  and  C_9
REMARK                            x       y       z     vdW  Elec       q    Type
REMARK                         _______ _______ _______ _____ _____    ______ ____
ROOT
ATOM      1  C   UNL     1       0.819   9.065  21.022  0.00  0.00    +0.000 C 
ATOM      2  N   UNL     1       0.989   9.543  19.652  0.00  0.00    +0.000 N 
ATOM      3  C   UNL     1       1.736   8.926  18.660  0.00  0.00    +0.000 C 
ATOM      4  O   UNL     1       1.874   9.453  17.559  0.00  0.00    +0.000 OA
ATOM      5  N   UNL     1       2.357   7.749  18.985  0.00  0.00    +0.000 N 
ATOM      6  H   UNL     1       1.957   7.214  19.734  0.00  0.00    +0.000 HD
ENDROOT
BRANCH   2   7
ATOM      7  C   UNL     1       0.540  10.914  19.342  0.00  0.00    +0.000 C 
ATOM      8  C   UNL     1      -0.950  11.191  19.376  0.00  0.00    +0.000 C 
ATOM      9  C   UNL     1      -0.987  12.695  19.540  0.00  0.00    +0.000 C 
ATOM     10  O   UNL     1       0.141  13.051  20.347  0.00  0.00    +0.000 OA
ATOM     11  C   UNL     1       1.085  11.966  20.311  0.00  0.00    +0.000 C 
ENDBRANCH   2   7
BRANCH   5  12
ATOM     12  C   UNL     1       3.120   6.952  18.019  0.00  0.00    +0.000 C 
BRANCH  12  13
ATOM     13  C   UNL     1       2.757   5.469  17.952  0.00  0.00    +0.000 C 
BRANCH  13  14
ATOM     14  O   UNL     1       3.738   4.652  18.599  0.00  0.00    +0.000 OA
BRANCH  14  15
ATOM     15  C   UNL     1       4.969   4.662  17.983  0.00  0.00    +0.000 A 
ATOM     16  C   UNL     1       6.193   4.917  18.614  0.00  0.00    +0.000 A 
ATOM     17  C   UNL     1       7.389   4.877  17.897  0.00  0.00    +0.000 A 
ATOM     18  C   UNL     1       7.373   4.583  16.536  0.00  0.00    +0.000 A 
ATOM     19  C   UNL     1       6.155   4.342  15.900  0.00  0.00    +0.000 A 
ATOM     20 BR   UNL     1       6.136   3.950  14.051  0.00  0.00    +0.000 Br
ATOM     21  C   UNL     1       4.956   4.379  16.614  0.00  0.00    +0.000 A 
ENDBRANCH  14  15
ENDBRANCH  13  14
ENDBRANCH  12  13
ENDBRANCH   5  12
TORSDOF 5
ENDMDL
MODEL 8
REMARK VINA RESULT:      -6.1      3.979      6.212
REMARK  Name = 
REMARK  6 active torsions:
REMARK  status: ('A' for Active; 'I' for Inactive)
REMARK    1  A    between atoms: C_1  and  N_2
REMARK    2  A    between atoms: N_2  and  C_16
REMARK    3  A    between atoms: N_5  and  C_6
REMARK    4  A    between atoms: C_6  and  C_7
REMARK    5  A    between atoms: C_7  and  O_8
REMARK    6  A    between atoms: O_8  and  C_9
REMARK                            x       y       z     vdW  Elec       q    Type
REMARK                         _______ _______ _______ _____ _____    ______ ____
ROOT
ATOM      1  C   UNL     1       1.974   9.156  17.896  0.00  0.00    +0.000 C 
ATOM      2  N   UNL     1       1.595   8.982  19.295  0.00  0.00    +0.000 N 
ATOM      3  C   UNL     1       1.752   7.826  20.045  0.00  0.00    +0.000 C 
ATOM      4  O   UNL     1       1.330   7.764  21.197  0.00  0.00    +0.000 OA
ATOM      5  N   UNL     1       2.335   6.752  19.426  0.00  0.00    +0.000 N 
ATOM      6  H   UNL     1       2.941   6.947  18.650  0.00  0.00    +0.000 HD
ENDROOT
BRANCH   2   7
ATOM      7  C   UNL     1       0.755  10.025  19.914  0.00  0.00    +0.000 C 
ATOM      8  C   UNL     1       1.199  11.467  19.765  0.00  0.00    +0.000 C 
ATOM      9  C   UNL     1      -0.087  12.221  20.023  0.00  0.00    +0.000 C 
ATOM     10  O   UNL     1      -1.151  11.416  19.503  0.00  0.00    +0.000 OA
ATOM     11  C   UNL     1      -0.670  10.067  19.358  0.00  0.00    +0.000 C 
ENDBRANCH   2   7
BRANCH   5  12
ATOM     12  C   UNL     1       2.627   5.491  20.115  0.00  0.00    +0.000 C 
BRANCH  12  13
ATOM     13  C   UNL     1       3.066   4.334  19.217  0.00  0.00    +0.000 C 
BRANCH  13  14
ATOM     14  O   UNL     1       4.413   3.933  19.488  0.00  0.00    +0.000 OA
BRANCH  14  15
ATOM     15  C   UNL     1       5.348   4.525  18.668  0.00  0.00    +0.000 A 
ATOM     16  C   UNL     1       6.362   5.396  19.086  0.00  0.00    +0.000 A 
ATOM     17  C   UNL     1       7.276   5.921  18.172  0.00  0.00    +0.000 A 
ATOM     18  C   UNL     1       7.183   5.580  16.825  0.00  0.00    +0.000 A 
ATOM     19  C   UNL     1       6.167   4.723  16.402  0.00  0.00    +0.000 A 
ATOM     20 BR   UNL     1       6.040   4.268  14.572  0.00  0.00    +0.000 Br
ATOM     21  C   UNL     1       5.252   4.194  17.314  0.00  0.00    +0.000 A 
ENDBRANCH  14  15
ENDBRANCH  13  14
ENDBRANCH  12  13
ENDBRANCH   5  12
TORSDOF 5
ENDMDL
MODEL 9
REMARK VINA RESULT:      -6.1      3.749      7.469
REMARK  Name = 
REMARK  6 active torsions:
REMARK  status: ('A' for Active; 'I' for Inactive)
REMARK    1  A    between atoms: C_1  and  N_2
REMARK    2  A    between atoms: N_2  and  C_16
REMARK    3  A    between atoms: N_5  and  C_6
REMARK    4  A    between atoms: C_6  and  C_7
REMARK    5  A    between atoms: C_7  and  O_8
REMARK    6  A    between atoms: O_8  and  C_9
REMARK                            x       y       z     vdW  Elec       q    Type
REMARK                         _______ _______ _______ _____ _____    ______ ____
ROOT
ATOM      1  C   UNL     1       3.291   6.218  18.361  0.00  0.00    +0.000 C 
ATOM      2  N   UNL     1       4.263   5.130  18.411  0.00  0.00    +0.000 N 
ATOM      3  C   UNL     1       5.640   5.261  18.315  0.00  0.00    +0.000 C 
ATOM      4  O   UNL     1       6.365   4.269  18.295  0.00  0.00    +0.000 OA
ATOM      5  N   UNL     1       6.140   6.529  18.180  0.00  0.00    +0.000 N 
ATOM      6  H   UNL     1       5.576   7.282  18.531  0.00  0.00    +0.000 HD
ENDROOT
BRANCH   2   7
ATOM      7  C   UNL     1       3.754   3.748  18.313  0.00  0.00    +0.000 C 
ATOM      8  C   UNL     1       3.224   3.102  19.578  0.00  0.00    +0.000 C 
ATOM      9  C   UNL     1       2.353   1.995  19.025  0.00  0.00    +0.000 C 
ATOM     10  O   UNL     1       1.781   2.487  17.806  0.00  0.00    +0.000 OA
ATOM     11  C   UNL     1       2.568   3.605  17.356  0.00  0.00    +0.000 C 
ENDBRANCH   2   7
BRANCH   5  12
ATOM     12  C   UNL     1       7.576   6.824  18.137  0.00  0.00    +0.000 C 
BRANCH  12  13
ATOM     13  C   UNL     1       7.947   8.239  17.692  0.00  0.00    +0.000 C 
BRANCH  13  14
ATOM     14  O   UNL     1       8.794   8.891  18.644  0.00  0.00    +0.000 OA
BRANCH  14  15
ATOM     15  C   UNL     1       8.962  10.238  18.412  0.00  0.00    +0.000 A 
ATOM     16  C   UNL     1       8.142  11.032  17.602  0.00  0.00    +0.000 A 
ATOM     17  C   UNL     1       8.389  12.398  17.455  0.00  0.00    +0.000 A 
ATOM     18  C   UNL     1       9.464  12.983  18.118  0.00  0.00    +0.000 A 
ATOM     19  C   UNL     1      10.292  12.193  18.916  0.00  0.00    +0.000 A 
ATOM     20 BR   UNL     1      11.755  12.991  19.809  0.00  0.00    +0.000 Br
ATOM     21  C   UNL     1      10.047  10.827  19.066  0.00  0.00    +0.000 A 
ENDBRANCH  14  15
ENDBRANCH  13  14
ENDBRANCH  12  13
ENDBRANCH   5  12
TORSDOF 5
ENDMDL
