MODEL 1
REMARK VINA RESULT:      -6.4      0.000      0.000
REMARK  Name = 
REMARK  6 active torsions:
REMARK  status: ('A' for Active; 'I' for Inactive)
REMARK    1  A    between atoms: C_1  and  C_2
REMARK    2  A    between atoms: C_2  and  C_3
REMARK    3  A    between atoms: C_5  and  O_6
REMARK    4  A    between atoms: N_9  and  S_10
REMARK    5  A    between atoms: S_10  and  C_13
REMARK    6  A    between atoms: C_13  and  C_14
REMARK                            x       y       z     vdW  Elec       q    Type
REMARK                         _______ _______ _______ _____ _____    ______ ____
ROOT
ATOM      1  C   UNL     1       5.204   6.824  15.213  0.00  0.00    +0.000 C 
ATOM      2  C   UNL     1       5.240   5.530  16.070  0.00  0.00    +0.000 C 
ATOM      3  C   UNL     1       4.913   4.374  15.106  0.00  0.00    +0.000 C 
ATOM      4  C   UNL     1       6.694   5.371  16.579  0.00  0.00    +0.000 C 
ATOM      5  C   UNL     1       6.929   4.378  17.722  0.00  0.00    +0.000 C 
ATOM      6  C   UNL     1       6.437   4.932  19.057  0.00  0.00    +0.000 C 
ATOM      7  C   UNL     1       4.971   4.674  19.364  0.00  0.00    +0.000 C 
ATOM      8  N   UNL     1       4.102   4.591  18.183  0.00  0.00    +0.000 NA
ATOM      9  C   UNL     1       4.176   5.689  17.193  0.00  0.00    +0.000 C 
ENDROOT
BRANCH   8  10
ATOM     10  S   UNL     1       3.301   3.146  17.840  0.00  0.00    +0.000 S 
ATOM     11  O   UNL     1       2.087   3.459  17.119  0.00  0.00    +0.000 OA
ATOM     12  O   UNL     1       4.284   2.248  17.269  0.00  0.00    +0.000 OA
BRANCH  10  13
ATOM     13  C   UNL     1       2.849   2.449  19.443  0.00  0.00    +0.000 C 
BRANCH  13  14
ATOM     14  C   UNL     1       1.512   2.974  19.867  0.00  0.00    +0.000 C 
ATOM     15  C   UNL     1       1.171   2.936  21.341  0.00  0.00    +0.000 C 
ATOM     16  C   UNL     1       1.373   4.254  20.652  0.00  0.00    +0.000 C 
ENDBRANCH  13  14
ENDBRANCH  10  13
ENDBRANCH   8  10
BRANCH   5  17
ATOM     17  O   UNL     1       8.343   4.165  17.835  0.00  0.00    +0.000 OA
ATOM     18  H   UNL     1       8.657   4.616  18.637  0.00  0.00    +0.000 HD
ENDBRANCH   5  17
TORSDOF 4
ENDMDL
MODEL 2
REMARK VINA RESULT:      -6.3      2.089      5.690
REMARK  Name = 
REMARK  6 active torsions:
REMARK  status: ('A' for Active; 'I' for Inactive)
REMARK    1  A    between atoms: C_1  and  C_2
REMARK    2  A    between atoms: C_2  and  C_3
REMARK    3  A    between atoms: C_5  and  O_6
REMARK    4  A    between atoms: N_9  and  S_10
REMARK    5  A    between atoms: S_10  and  C_13
REMARK    6  A    between atoms: C_13  and  C_14
REMARK                            x       y       z     vdW  Elec       q    Type
REMARK                         _______ _______ _______ _____ _____    ______ ____
ROOT
ATOM      1  C   UNL     1       2.343   2.848  21.861  0.00  0.00    +0.000 C 
ATOM      2  C   UNL     1       2.990   3.063  20.465  0.00  0.00    +0.000 C 
ATOM      3  C   UNL     1       4.357   2.357  20.517  0.00  0.00    +0.000 C 
ATOM      4  C   UNL     1       2.084   2.340  19.437  0.00  0.00    +0.000 C 
ATOM      5  C   UNL     1       2.294   2.683  17.958  0.00  0.00    +0.000 C 
ATOM      6  C   UNL     1       1.726   4.058  17.614  0.00  0.00    +0.000 C 
ATOM      7  C   UNL     1       2.672   5.225  17.842  0.00  0.00    +0.000 C 
ATOM      8  N   UNL     1       3.640   5.028  18.930  0.00  0.00    +0.000 NA
ATOM      9  C   UNL     1       3.118   4.598  20.247  0.00  0.00    +0.000 C 
ENDROOT
BRANCH   8  10
ATOM     10  S   UNL     1       5.289   4.994  18.579  0.00  0.00    +0.000 S 
ATOM     11  O   UNL     1       6.020   4.976  19.828  0.00  0.00    +0.000 OA
ATOM     12  O   UNL     1       5.487   3.947  17.598  0.00  0.00    +0.000 OA
BRANCH  10  13
ATOM     13  C   UNL     1       5.639   6.552  17.735  0.00  0.00    +0.000 C 
BRANCH  13  14
ATOM     14  C   UNL     1       7.106   6.657  17.451  0.00  0.00    +0.000 C 
ATOM     15  C   UNL     1       7.730   8.036  17.451  0.00  0.00    +0.000 C 
ATOM     16  C   UNL     1       8.097   7.049  18.519  0.00  0.00    +0.000 C 
ENDBRANCH  13  14
ENDBRANCH  10  13
ENDBRANCH   8  10
BRANCH   5  17
ATOM     17  O   UNL     1       1.585   1.712  17.177  0.00  0.00    +0.000 OA
ATOM     18  H   UNL     1       0.787   2.134  16.815  0.00  0.00    +0.000 HD
ENDBRANCH   5  17
TORSDOF 4
ENDMDL
MODEL 3
REMARK VINA RESULT:      -6.2      2.356      5.027
REMARK  Name = 
REMARK  6 active torsions:
REMARK  status: ('A' for Active; 'I' for Inactive)
REMARK    1  A    between atoms: C_1  and  C_2
REMARK    2  A    between atoms: C_2  and  C_3
REMARK    3  A    between atoms: C_5  and  O_6
REMARK    4  A    between atoms: N_9  and  S_10
REMARK    5  A    between atoms: S_10  and  C_13
REMARK    6  A    between atoms: C_13  and  C_14
REMARK                            x       y       z     vdW  Elec       q    Type
REMARK                         _______ _______ _______ _____ _____    ______ ____
ROOT
ATOM      1  C   UNL     1       0.567   3.469  20.202  0.00  0.00    +0.000 C 
ATOM      2  C   UNL     1       1.997   3.874  19.750  0.00  0.00    +0.000 C 
ATOM      3  C   UNL     1       2.437   5.006  20.696  0.00  0.00    +0.000 C 
ATOM      4  C   UNL     1       2.904   2.639  19.978  0.00  0.00    +0.000 C 
ATOM      5  C   UNL     1       4.277   2.647  19.297  0.00  0.00    +0.000 C 
ATOM      6  C   UNL     1       4.162   2.386  17.798  0.00  0.00    +0.000 C 
ATOM      7  C   UNL     1       3.923   3.620  16.942  0.00  0.00    +0.000 C 
ATOM      8  N   UNL     1       3.176   4.694  17.610  0.00  0.00    +0.000 NA
ATOM      9  C   UNL     1       1.898   4.339  18.269  0.00  0.00    +0.000 C 
ENDROOT
BRANCH   8  10
ATOM     10  S   UNL     1       3.918   6.186  17.869  0.00  0.00    +0.000 S 
ATOM     11  O   UNL     1       4.454   6.653  16.609  0.00  0.00    +0.000 OA
ATOM     12  O   UNL     1       2.977   6.999  18.613  0.00  0.00    +0.000 OA
BRANCH  10  13
ATOM     13  C   UNL     1       5.297   5.855  18.988  0.00  0.00    +0.000 C 
BRANCH  13  14
ATOM     14  C   UNL     1       6.592   5.962  18.243  0.00  0.00    +0.000 C 
ATOM     15  C   UNL     1       7.871   5.696  19.008  0.00  0.00    +0.000 C 
ATOM     16  C   UNL     1       7.431   4.748  17.931  0.00  0.00    +0.000 C 
ENDBRANCH  13  14
ENDBRANCH  10  13
ENDBRANCH   8  10
BRANCH   5  17
ATOM     17  O   UNL     1       5.054   1.583  19.865  0.00  0.00    +0.000 OA
ATOM     18  H   UNL     1       5.992   1.757  19.678  0.00  0.00    +0.000 HD
ENDBRANCH   5  17
TORSDOF 4
ENDMDL
MODEL 4
REMARK VINA RESULT:      -6.1      2.235      5.218
REMARK  Name = 
REMARK  6 active torsions:
REMARK  status: ('A' for Active; 'I' for Inactive)
REMARK    1  A    between atoms: C_1  and  C_2
REMARK    2  A    between atoms: C_2  and  C_3
REMARK    3  A    between atoms: C_5  and  O_6
REMARK    4  A    between atoms: N_9  and  S_10
REMARK    5  A    between atoms: S_10  and  C_13
REMARK    6  A    between atoms: C_13  and  C_14
REMARK                            x       y       z     vdW  Elec       q    Type
REMARK                         _______ _______ _______ _____ _____    ______ ____
ROOT
ATOM      1  C   UNL     1       0.334   3.092  19.956  0.00  0.00    +0.000 C 
ATOM      2  C   UNL     1       1.746   3.671  19.672  0.00  0.00    +0.000 C 
ATOM      3  C   UNL     1       1.987   4.750  20.744  0.00  0.00    +0.000 C 
ATOM      4  C   UNL     1       2.754   2.513  19.882  0.00  0.00    +0.000 C 
ATOM      5  C   UNL     1       4.171   2.713  19.334  0.00  0.00    +0.000 C 
ATOM      6  C   UNL     1       4.209   2.578  17.814  0.00  0.00    +0.000 C 
ATOM      7  C   UNL     1       3.916   3.855  17.043  0.00  0.00    +0.000 C 
ATOM      8  N   UNL     1       3.009   4.788  17.723  0.00  0.00    +0.000 NA
ATOM      9  C   UNL     1       1.725   4.255  18.230  0.00  0.00    +0.000 C 
ENDROOT
BRANCH   8  10
ATOM     10  S   UNL     1       3.570   6.315  18.170  0.00  0.00    +0.000 S 
ATOM     11  O   UNL     1       2.507   7.273  17.949  0.00  0.00    +0.000 OA
ATOM     12  O   UNL     1       4.170   6.174  19.481  0.00  0.00    +0.000 OA
BRANCH  10  13
ATOM     13  C   UNL     1       4.921   6.690  17.032  0.00  0.00    +0.000 C 
BRANCH  13  14
ATOM     14  C   UNL     1       6.225   6.672  17.768  0.00  0.00    +0.000 C 
ATOM     15  C   UNL     1       7.302   5.729  17.276  0.00  0.00    +0.000 C 
ATOM     16  C   UNL     1       7.492   7.213  17.154  0.00  0.00    +0.000 C 
ENDBRANCH  13  14
ENDBRANCH  10  13
ENDBRANCH   8  10
BRANCH   5  17
ATOM     17  O   UNL     1       5.003   1.682  19.883  0.00  0.00    +0.000 OA
ATOM     18  H   UNL     1       5.841   1.671  19.390  0.00  0.00    +0.000 HD
ENDBRANCH   5  17
TORSDOF 4
ENDMDL
MODEL 5
REMARK VINA RESULT:      -6.1      2.829      5.033
REMARK  Name = 
REMARK  6 active torsions:
REMARK  status: ('A' for Active; 'I' for Inactive)
REMARK    1  A    between atoms: C_1  and  C_2
REMARK    2  A    between atoms: C_2  and  C_3
REMARK    3  A    between atoms: C_5  and  O_6
REMARK    4  A    between atoms: N_9  and  S_10
REMARK    5  A    between atoms: S_10  and  C_13
REMARK    6  A    between atoms: C_13  and  C_14
REMARK                            x       y       z     vdW  Elec       q    Type
REMARK                         _______ _______ _______ _____ _____    ______ ____
ROOT
ATOM      1  C   UNL     1       0.506   3.320  20.396  0.00  0.00    +0.000 C 
ATOM      2  C   UNL     1       1.916   3.780  19.934  0.00  0.00    +0.000 C 
ATOM      3  C   UNL     1       2.376   4.834  20.956  0.00  0.00    +0.000 C 
ATOM      4  C   UNL     1       2.842   2.541  20.029  0.00  0.00    +0.000 C 
ATOM      5  C   UNL     1       4.192   2.622  19.308  0.00  0.00    +0.000 C 
ATOM      6  C   UNL     1       4.031   2.485  17.797  0.00  0.00    +0.000 C 
ATOM      7  C   UNL     1       3.751   3.782  17.055  0.00  0.00    +0.000 C 
ATOM      8  N   UNL     1       3.016   4.788  17.833  0.00  0.00    +0.000 NA
ATOM      9  C   UNL     1       1.764   4.364  18.500  0.00  0.00    +0.000 C 
ENDROOT
BRANCH   8  10
ATOM     10  S   UNL     1       3.752   6.262  18.191  0.00  0.00    +0.000 S 
ATOM     11  O   UNL     1       4.678   6.055  19.283  0.00  0.00    +0.000 OA
ATOM     12  O   UNL     1       4.212   6.818  16.934  0.00  0.00    +0.000 OA
BRANCH  10  13
ATOM     13  C   UNL     1       2.424   7.342  18.766  0.00  0.00    +0.000 C 
BRANCH  13  14
ATOM     14  C   UNL     1       2.132   8.385  17.731  0.00  0.00    +0.000 C 
ATOM     15  C   UNL     1       0.863   9.195  17.882  0.00  0.00    +0.000 C 
ATOM     16  C   UNL     1       2.199   9.858  18.046  0.00  0.00    +0.000 C 
ENDBRANCH  13  14
ENDBRANCH  10  13
ENDBRANCH   8  10
BRANCH   5  17
ATOM     17  O   UNL     1       4.998   1.525  19.761  0.00  0.00    +0.000 OA
ATOM     18  H   UNL     1       5.404   1.104  18.985  0.00  0.00    +0.000 HD
ENDBRANCH   5  17
TORSDOF 4
ENDMDL
MODEL 6
REMARK VINA RESULT:      -6.0      1.889      2.686
REMARK  Name = 
REMARK  6 active torsions:
REMARK  status: ('A' for Active; 'I' for Inactive)
REMARK    1  A    between atoms: C_1  and  C_2
REMARK    2  A    between atoms: C_2  and  C_3
REMARK    3  A    between atoms: C_5  and  O_6
REMARK    4  A    between atoms: N_9  and  S_10
REMARK    5  A    between atoms: S_10  and  C_13
REMARK    6  A    between atoms: C_13  and  C_14
REMARK                            x       y       z     vdW  Elec       q    Type
REMARK                         _______ _______ _______ _____ _____    ______ ____
ROOT
ATOM      1  C   UNL     1       2.283   7.589  19.022  0.00  0.00    +0.000 C 
ATOM      2  C   UNL     1       3.104   6.424  18.404  0.00  0.00    +0.000 C 
ATOM      3  C   UNL     1       2.076   5.473  17.765  0.00  0.00    +0.000 C 
ATOM      4  C   UNL     1       3.986   7.042  17.290  0.00  0.00    +0.000 C 
ATOM      5  C   UNL     1       5.140   6.185  16.758  0.00  0.00    +0.000 C 
ATOM      6  C   UNL     1       6.297   6.122  17.752  0.00  0.00    +0.000 C 
ATOM      7  C   UNL     1       6.193   5.026  18.799  0.00  0.00    +0.000 C 
ATOM      8  N   UNL     1       4.820   4.662  19.173  0.00  0.00    +0.000 NA
ATOM      9  C   UNL     1       3.899   5.754  19.561  0.00  0.00    +0.000 C 
ENDROOT
BRANCH   8  10
ATOM     10  S   UNL     1       4.259   3.103  18.860  0.00  0.00    +0.000 S 
ATOM     11  O   UNL     1       4.257   2.899  17.428  0.00  0.00    +0.000 OA
ATOM     12  O   UNL     1       4.998   2.209  19.728  0.00  0.00    +0.000 OA
BRANCH  10  13
ATOM     13  C   UNL     1       2.549   3.075  19.443  0.00  0.00    +0.000 C 
BRANCH  13  14
ATOM     14  C   UNL     1       2.506   2.618  20.868  0.00  0.00    +0.000 C 
ATOM     15  C   UNL     1       2.257   3.660  21.938  0.00  0.00    +0.000 C 
ATOM     16  C   UNL     1       1.223   2.609  21.661  0.00  0.00    +0.000 C 
ENDBRANCH  13  14
ENDBRANCH  10  13
ENDBRANCH   8  10
BRANCH   5  17
ATOM     17  O   UNL     1       5.629   6.803  15.560  0.00  0.00    +0.000 OA
ATOM     18  H   UNL     1       6.446   6.348  15.293  0.00  0.00    +0.000 HD
ENDBRANCH   5  17
TORSDOF 4
ENDMDL
MODEL 7
REMARK VINA RESULT:      -5.9      2.300      5.165
REMARK  Name = 
REMARK  6 active torsions:
REMARK  status: ('A' for Active; 'I' for Inactive)
REMARK    1  A    between atoms: C_1  and  C_2
REMARK    2  A    between atoms: C_2  and  C_3
REMARK    3  A    between atoms: C_5  and  O_6
REMARK    4  A    between atoms: N_9  and  S_10
REMARK    5  A    between atoms: S_10  and  C_13
REMARK    6  A    between atoms: C_13  and  C_14
REMARK                            x       y       z     vdW  Elec       q    Type
REMARK                         _______ _______ _______ _____ _____    ______ ____
ROOT
ATOM      1  C   UNL     1       0.986   4.266  17.271  0.00  0.00    +0.000 C 
ATOM      2  C   UNL     1       2.191   4.446  18.234  0.00  0.00    +0.000 C 
ATOM      3  C   UNL     1       2.494   5.956  18.257  0.00  0.00    +0.000 C 
ATOM      4  C   UNL     1       1.710   4.003  19.639  0.00  0.00    +0.000 C 
ATOM      5  C   UNL     1       2.788   3.750  20.698  0.00  0.00    +0.000 C 
ATOM      6  C   UNL     1       3.525   2.437  20.447  0.00  0.00    +0.000 C 
ATOM      7  C   UNL     1       4.714   2.531  19.506  0.00  0.00    +0.000 C 
ATOM      8  N   UNL     1       4.604   3.574  18.478  0.00  0.00    +0.000 NA
ATOM      9  C   UNL     1       3.370   3.609  17.661  0.00  0.00    +0.000 C 
ENDROOT
BRANCH   8  10
ATOM     10  S   UNL     1       5.706   4.851  18.468  0.00  0.00    +0.000 S 
ATOM     11  O   UNL     1       5.221   5.878  19.365  0.00  0.00    +0.000 OA
ATOM     12  O   UNL     1       7.020   4.272  18.658  0.00  0.00    +0.000 OA
BRANCH  10  13
ATOM     13  C   UNL     1       5.679   5.504  16.785  0.00  0.00    +0.000 C 
BRANCH  13  14
ATOM     14  C   UNL     1       6.489   4.623  15.885  0.00  0.00    +0.000 C 
ATOM     15  C   UNL     1       5.779   3.942  14.735  0.00  0.00    +0.000 C 
ATOM     16  C   UNL     1       6.796   5.010  14.460  0.00  0.00    +0.000 C 
ENDBRANCH  13  14
ENDBRANCH  10  13
ENDBRANCH   8  10
BRANCH   5  17
ATOM     17  O   UNL     1       2.137   3.647  21.971  0.00  0.00    +0.000 OA
ATOM     18  H   UNL     1       2.773   3.286  22.611  0.00  0.00    +0.000 HD
ENDBRANCH   5  17
TORSDOF 4
ENDMDL
MODEL 8
REMARK VINA RESULT:      -5.9      2.281      4.920
REMARK  Name = 
REMARK  6 active torsions:
REMARK  status: ('A' for Active; 'I' for Inactive)
REMARK    1  A    between atoms: C_1  and  C_2
REMARK    2  A    between atoms: C_2  and  C_3
REMARK    3  A    between atoms: C_5  and  O_6
REMARK    4  A    between atoms: N_9  and  S_10
REMARK    5  A    between atoms: S_10  and  C_13
REMARK    6  A    between atoms: C_13  and  C_14
REMARK                            x       y       z     vdW  Elec       q    Type
REMARK                         _______ _______ _______ _____ _____    ______ ____
ROOT
ATOM      1  C   UNL     1       1.088   4.647  20.405  0.00  0.00    +0.000 C 
ATOM      2  C   UNL     1       2.475   4.328  19.783  0.00  0.00    +0.000 C 
ATOM      3  C   UNL     1       3.321   5.602  19.953  0.00  0.00    +0.000 C 
ATOM      4  C   UNL     1       3.094   3.190  20.633  0.00  0.00    +0.000 C 
ATOM      5  C   UNL     1       4.295   2.448  20.037  0.00  0.00    +0.000 C 
ATOM      6  C   UNL     1       3.870   1.494  18.924  0.00  0.00    +0.000 C 
ATOM      7  C   UNL     1       3.783   2.113  17.538  0.00  0.00    +0.000 C 
ATOM      8  N   UNL     1       3.432   3.539  17.524  0.00  0.00    +0.000 NA
ATOM      9  C   UNL     1       2.238   3.963  18.289  0.00  0.00    +0.000 C 
ENDROOT
BRANCH   8  10
ATOM     10  S   UNL     1       4.535   4.661  16.916  0.00  0.00    +0.000 S 
ATOM     11  O   UNL     1       4.921   4.246  15.585  0.00  0.00    +0.000 OA
ATOM     12  O   UNL     1       3.963   5.974  17.138  0.00  0.00    +0.000 OA
BRANCH  10  13
ATOM     13  C   UNL     1       5.982   4.551  17.990  0.00  0.00    +0.000 C 
BRANCH  13  14
ATOM     14  C   UNL     1       6.429   5.925  18.383  0.00  0.00    +0.000 C 
ATOM     15  C   UNL     1       7.845   6.090  18.893  0.00  0.00    +0.000 C 
ATOM     16  C   UNL     1       7.448   6.691  17.577  0.00  0.00    +0.000 C 
ENDBRANCH  13  14
ENDBRANCH  10  13
ENDBRANCH   8  10
BRANCH   5  17
ATOM     17  O   UNL     1       4.887   1.662  21.080  0.00  0.00    +0.000 OA
ATOM     18  H   UNL     1       4.538   0.757  21.016  0.00  0.00    +0.000 HD
ENDBRANCH   5  17
TORSDOF 4
ENDMDL
MODEL 9
REMARK VINA RESULT:      -5.9      2.175      5.262
REMARK  Name = 
REMARK  6 active torsions:
REMARK  status: ('A' for Active; 'I' for Inactive)
REMARK    1  A    between atoms: C_1  and  C_2
REMARK    2  A    between atoms: C_2  and  C_3
REMARK    3  A    between atoms: C_5  and  O_6
REMARK    4  A    between atoms: N_9  and  S_10
REMARK    5  A    between atoms: S_10  and  C_13
REMARK    6  A    between atoms: C_13  and  C_14
REMARK                            x       y       z     vdW  Elec       q    Type
REMARK                         _______ _______ _______ _____ _____    ______ ____
ROOT
ATOM      1  C   UNL     1       0.897   4.415  20.326  0.00  0.00    +0.000 C 
ATOM      2  C   UNL     1       2.327   4.432  19.721  0.00  0.00    +0.000 C 
ATOM      3  C   UNL     1       3.057   5.614  20.386  0.00  0.00    +0.000 C 
ATOM      4  C   UNL     1       3.009   3.108  20.149  0.00  0.00    +0.000 C 
ATOM      5  C   UNL     1       4.290   2.710  19.407  0.00  0.00    +0.000 C 
ATOM      6  C   UNL     1       3.987   2.195  18.002  0.00  0.00    +0.000 C 
ATOM      7  C   UNL     1       3.899   3.263  16.925  0.00  0.00    +0.000 C 
ATOM      8  N   UNL     1       3.429   4.572  17.395  0.00  0.00    +0.000 NA
ATOM      9  C   UNL     1       2.176   4.613  18.183  0.00  0.00    +0.000 C 
ENDROOT
BRANCH   8  10
ATOM     10  S   UNL     1       4.455   5.908  17.298  0.00  0.00    +0.000 S 
ATOM     11  O   UNL     1       3.666   7.104  17.502  0.00  0.00    +0.000 OA
ATOM     12  O   UNL     1       5.593   5.625  18.149  0.00  0.00    +0.000 OA
BRANCH  10  13
ATOM     13  C   UNL     1       5.080   5.919  15.604  0.00  0.00    +0.000 C 
BRANCH  13  14
ATOM     14  C   UNL     1       6.233   4.970  15.482  0.00  0.00    +0.000 C 
ATOM     15  C   UNL     1       6.197   3.954  14.360  0.00  0.00    +0.000 C 
ATOM     16  C   UNL     1       7.215   5.056  14.340  0.00  0.00    +0.000 C 
ENDBRANCH  13  14
ENDBRANCH  10  13
ENDBRANCH   8  10
BRANCH   5  17
ATOM     17  O   UNL     1       4.907   1.643  20.138  0.00  0.00    +0.000 OA
ATOM     18  H   UNL     1       5.814   1.911  20.362  0.00  0.00    +0.000 HD
ENDBRANCH   5  17
TORSDOF 4
ENDMDL
