MODEL 1
REMARK VINA RESULT:      -7.3      0.000      0.000
REMARK  Name = 
REMARK  9 active torsions:
REMARK  status: ('A' for Active; 'I' for Inactive)
REMARK    1  A    between atoms: C_1  and  N_2
REMARK    2  A    between atoms: N_2  and  C_3
REMARK    3  A    between atoms: C_3  and  C_4
REMARK    4  A    between atoms: C_18  and  C_19
REMARK    5  A    between atoms: C_19  and  C_20
REMARK    6  A    between atoms: C_19  and  C_21
REMARK    7  A    between atoms: C_19  and  C_22
REMARK    8  A    between atoms: N_23  and  C_24
REMARK    9  A    between atoms: C_24  and  C_25
REMARK                            x       y       z     vdW  Elec       q    Type
REMARK                         _______ _______ _______ _____ _____    ______ ____
ROOT
ATOM      1  C   UNL     1       1.696  13.718  21.189  0.00  0.00    +0.000 C 
ATOM      2  N   UNL     1       1.682  12.529  20.336  0.00  0.00    +0.000 N 
ATOM      3  C   UNL     1       0.939  11.462  20.801  0.00  0.00    +0.000 C 
ATOM      4  O   UNL     1       0.431  11.568  21.928  0.00  0.00    +0.000 OA
ATOM      5  N   UNL     1       0.712  10.314  20.071  0.00  0.00    +0.000 N 
ATOM      6  C   UNL     1      -0.093   9.257  20.731  0.00  0.00    +0.000 C 
ATOM      7  C   UNL     1       0.745   7.983  21.016  0.00  0.00    +0.000 C 
ATOM      8  C   UNL     1       1.661   7.703  19.873  0.00  0.00    +0.000 A 
ATOM      9  C   UNL     1       1.820   8.567  18.816  0.00  0.00    +0.000 A 
ATOM     10  N   UNL     1       2.694   8.054  17.898  0.00  0.00    +0.000 NA
ATOM     11  C   UNL     1       3.107   6.890  18.381  0.00  0.00    +0.000 A 
ATOM     12  N   UNL     1       2.553   6.684  19.655  0.00  0.00    +0.000 N 
ATOM     13  C   UNL     1       1.137   9.895  18.710  0.00  0.00    +0.000 C 
ENDROOT
BRANCH  11  14
ATOM     14  C   UNL     1       4.101   5.974  17.638  0.00  0.00    +0.000 C 
ATOM     15  C   UNL     1       3.400   4.657  17.255  0.00  0.00    +0.000 C 
ATOM     16  C   UNL     1       4.745   6.621  16.396  0.00  0.00    +0.000 C 
ATOM     17  C   UNL     1       5.287   5.612  18.566  0.00  0.00    +0.000 C 
ENDBRANCH  11  14
BRANCH   2  18
ATOM     18  C   UNL     1       2.429  12.663  19.094  0.00  0.00    +0.000 C 
BRANCH  18  19
ATOM     19  C   UNL     1       2.710  14.096  18.688  0.00  0.00    +0.000 A 
ATOM     20  C   UNL     1       1.700  15.065  18.571  0.00  0.00    +0.000 A 
ATOM     21  C   UNL     1       1.995  16.356  18.132  0.00  0.00    +0.000 A 
ATOM     22  C   UNL     1       3.305  16.699  17.815  0.00  0.00    +0.000 A 
ATOM     23  C   UNL     1       4.321  15.753  17.932  0.00  0.00    +0.000 A 
ATOM     24  C   UNL     1       4.027  14.460  18.369  0.00  0.00    +0.000 A 
ENDBRANCH  18  19
ENDBRANCH   2  18
BRANCH  12  25
ATOM     25  C   UNL     1       2.848   5.533  20.506  0.00  0.00    +0.000 C 
BRANCH  25  26
ATOM     26  C   UNL     1       1.768   4.546  20.826  0.00  0.00    +0.000 C 
ATOM     27  C   UNL     1       1.884   3.183  20.183  0.00  0.00    +0.000 C 
ATOM     28  C   UNL     1       2.056   3.325  21.668  0.00  0.00    +0.000 C 
ENDBRANCH  25  26
ENDBRANCH  12  25
TORSDOF 5
ENDMDL
MODEL 2
REMARK VINA RESULT:      -7.1      0.547      1.076
REMARK  Name = 
REMARK  9 active torsions:
REMARK  status: ('A' for Active; 'I' for Inactive)
REMARK    1  A    between atoms: C_1  and  N_2
REMARK    2  A    between atoms: N_2  and  C_3
REMARK    3  A    between atoms: C_3  and  C_4
REMARK    4  A    between atoms: C_18  and  C_19
REMARK    5  A    between atoms: C_19  and  C_20
REMARK    6  A    between atoms: C_19  and  C_21
REMARK    7  A    between atoms: C_19  and  C_22
REMARK    8  A    between atoms: N_23  and  C_24
REMARK    9  A    between atoms: C_24  and  C_25
REMARK                            x       y       z     vdW  Elec       q    Type
REMARK                         _______ _______ _______ _____ _____    ______ ____
ROOT
ATOM      1  C   UNL     1       1.553  13.657  21.217  0.00  0.00    +0.000 C 
ATOM      2  N   UNL     1       1.596  12.493  20.331  0.00  0.00    +0.000 N 
ATOM      3  C   UNL     1       0.933  11.369  20.780  0.00  0.00    +0.000 C 
ATOM      4  O   UNL     1       0.444  11.411  21.920  0.00  0.00    +0.000 OA
ATOM      5  N   UNL     1       0.763  10.228  20.023  0.00  0.00    +0.000 N 
ATOM      6  C   UNL     1       0.042   9.104  20.670  0.00  0.00    +0.000 C 
ATOM      7  C   UNL     1       0.966   7.880  20.902  0.00  0.00    +0.000 C 
ATOM      8  C   UNL     1       1.872   7.690  19.732  0.00  0.00    +0.000 A 
ATOM      9  C   UNL     1       1.952   8.591  18.697  0.00  0.00    +0.000 A 
ATOM     10  N   UNL     1       2.837   8.160  17.747  0.00  0.00    +0.000 NA
ATOM     11  C   UNL     1       3.334   7.012  18.189  0.00  0.00    +0.000 A 
ATOM     12  N   UNL     1       2.822   6.737  19.468  0.00  0.00    +0.000 N 
ATOM     13  C   UNL     1       1.184   9.874  18.643  0.00  0.00    +0.000 C 
ENDROOT
BRANCH  11  14
ATOM     14  C   UNL     1       4.367   6.182  17.401  0.00  0.00    +0.000 C 
ATOM     15  C   UNL     1       5.680   6.099  18.201  0.00  0.00    +0.000 C 
ATOM     16  C   UNL     1       3.880   4.769  17.021  0.00  0.00    +0.000 C 
ATOM     17  C   UNL     1       4.692   6.874  16.054  0.00  0.00    +0.000 C 
ENDBRANCH  11  14
BRANCH   2  18
ATOM     18  C   UNL     1       2.305  12.708  19.078  0.00  0.00    +0.000 C 
BRANCH  18  19
ATOM     19  C   UNL     1       2.828  14.118  18.893  0.00  0.00    +0.000 A 
ATOM     20  C   UNL     1       2.107  15.114  18.213  0.00  0.00    +0.000 A 
ATOM     21  C   UNL     1       2.655  16.381  18.011  0.00  0.00    +0.000 A 
ATOM     22  C   UNL     1       3.926  16.674  18.494  0.00  0.00    +0.000 A 
ATOM     23  C   UNL     1       4.653  15.701  19.177  0.00  0.00    +0.000 A 
ATOM     24  C   UNL     1       4.107  14.432  19.379  0.00  0.00    +0.000 A 
ENDBRANCH  18  19
ENDBRANCH   2  18
BRANCH  12  25
ATOM     25  C   UNL     1       3.209   5.584  20.279  0.00  0.00    +0.000 C 
BRANCH  25  26
ATOM     26  C   UNL     1       2.473   4.288  20.132  0.00  0.00    +0.000 C 
ATOM     27  C   UNL     1       1.996   3.632  21.407  0.00  0.00    +0.000 C 
ATOM     28  C   UNL     1       0.996   4.194  20.438  0.00  0.00    +0.000 C 
ENDBRANCH  25  26
ENDBRANCH  12  25
TORSDOF 5
ENDMDL
MODEL 3
REMARK VINA RESULT:      -6.9      0.567      1.252
REMARK  Name = 
REMARK  9 active torsions:
REMARK  status: ('A' for Active; 'I' for Inactive)
REMARK    1  A    between atoms: C_1  and  N_2
REMARK    2  A    between atoms: N_2  and  C_3
REMARK    3  A    between atoms: C_3  and  C_4
REMARK    4  A    between atoms: C_18  and  C_19
REMARK    5  A    between atoms: C_19  and  C_20
REMARK    6  A    between atoms: C_19  and  C_21
REMARK    7  A    between atoms: C_19  and  C_22
REMARK    8  A    between atoms: N_23  and  C_24
REMARK    9  A    between atoms: C_24  and  C_25
REMARK                            x       y       z     vdW  Elec       q    Type
REMARK                         _______ _______ _______ _____ _____    ______ ____
ROOT
ATOM      1  C   UNL     1       1.626  13.767  21.191  0.00  0.00    +0.000 C 
ATOM      2  N   UNL     1       1.654  12.592  20.320  0.00  0.00    +0.000 N 
ATOM      3  C   UNL     1       0.925  11.502  20.752  0.00  0.00    +0.000 C 
ATOM      4  O   UNL     1       0.392  11.578  21.870  0.00  0.00    +0.000 OA
ATOM      5  N   UNL     1       0.738  10.361  20.000  0.00  0.00    +0.000 N 
ATOM      6  C   UNL     1      -0.057   9.276  20.627  0.00  0.00    +0.000 C 
ATOM      7  C   UNL     1       0.802   8.016  20.909  0.00  0.00    +0.000 C 
ATOM      8  C   UNL     1       1.747   7.774  19.781  0.00  0.00    +0.000 A 
ATOM      9  C   UNL     1       1.909   8.658  18.742  0.00  0.00    +0.000 A 
ATOM     10  N   UNL     1       2.813   8.179  17.834  0.00  0.00    +0.000 NA
ATOM     11  C   UNL     1       3.241   7.016  18.308  0.00  0.00    +0.000 A 
ATOM     12  N   UNL     1       2.665   6.778  19.567  0.00  0.00    +0.000 N 
ATOM     13  C   UNL     1       1.200   9.973  18.642  0.00  0.00    +0.000 C 
ENDROOT
BRANCH  11  14
ATOM     14  C   UNL     1       4.269   6.133  17.572  0.00  0.00    +0.000 C 
ATOM     15  C   UNL     1       4.678   6.810  16.250  0.00  0.00    +0.000 C 
ATOM     16  C   UNL     1       5.518   5.793  18.410  0.00  0.00    +0.000 C 
ATOM     17  C   UNL     1       3.637   4.765  17.213  0.00  0.00    +0.000 C 
ENDBRANCH  11  14
BRANCH   2  18
ATOM     18  C   UNL     1       2.423  12.761  19.096  0.00  0.00    +0.000 C 
BRANCH  18  19
ATOM     19  C   UNL     1       3.081  14.120  18.957  0.00  0.00    +0.000 A 
ATOM     20  C   UNL     1       4.234  14.483  19.673  0.00  0.00    +0.000 A 
ATOM     21  C   UNL     1       4.769  15.766  19.563  0.00  0.00    +0.000 A 
ATOM     22  C   UNL     1       4.167  16.701  18.726  0.00  0.00    +0.000 A 
ATOM     23  C   UNL     1       3.027  16.356  18.003  0.00  0.00    +0.000 A 
ATOM     24  C   UNL     1       2.489  15.072  18.115  0.00  0.00    +0.000 A 
ENDBRANCH  18  19
ENDBRANCH   2  18
BRANCH  12  25
ATOM     25  C   UNL     1       2.968   5.619  20.405  0.00  0.00    +0.000 C 
BRANCH  25  26
ATOM     26  C   UNL     1       2.033   4.448  20.423  0.00  0.00    +0.000 C 
ATOM     27  C   UNL     1       2.669   3.078  20.434  0.00  0.00    +0.000 C 
ATOM     28  C   UNL     1       1.922   3.563  21.642  0.00  0.00    +0.000 C 
ENDBRANCH  25  26
ENDBRANCH  12  25
TORSDOF 5
ENDMDL
MODEL 4
REMARK VINA RESULT:      -6.6      5.841      9.949
REMARK  Name = 
REMARK  9 active torsions:
REMARK  status: ('A' for Active; 'I' for Inactive)
REMARK    1  A    between atoms: C_1  and  N_2
REMARK    2  A    between atoms: N_2  and  C_3
REMARK    3  A    between atoms: C_3  and  C_4
REMARK    4  A    between atoms: C_18  and  C_19
REMARK    5  A    between atoms: C_19  and  C_20
REMARK    6  A    between atoms: C_19  and  C_21
REMARK    7  A    between atoms: C_19  and  C_22
REMARK    8  A    between atoms: N_23  and  C_24
REMARK    9  A    between atoms: C_24  and  C_25
REMARK                            x       y       z     vdW  Elec       q    Type
REMARK                         _______ _______ _______ _____ _____    ______ ____
ROOT
ATOM      1  C   UNL     1       0.320  10.156  20.947  0.00  0.00    +0.000 C 
ATOM      2  N   UNL     1      -0.298  11.482  20.911  0.00  0.00    +0.000 N 
ATOM      3  C   UNL     1      -0.602  12.039  22.137  0.00  0.00    +0.000 C 
ATOM      4  O   UNL     1      -0.414  11.341  23.145  0.00  0.00    +0.000 OA
ATOM      5  N   UNL     1      -1.069  13.328  22.295  0.00  0.00    +0.000 N 
ATOM      6  C   UNL     1      -1.365  13.760  23.683  0.00  0.00    +0.000 C 
ATOM      7  C   UNL     1      -2.880  14.010  23.902  0.00  0.00    +0.000 C 
ATOM      8  C   UNL     1      -3.469  14.679  22.707  0.00  0.00    +0.000 A 
ATOM      9  C   UNL     1      -2.768  14.877  21.542  0.00  0.00    +0.000 A 
ATOM     10  N   UNL     1      -3.534  15.536  20.620  0.00  0.00    +0.000 NA
ATOM     11  C   UNL     1      -4.719  15.728  21.185  0.00  0.00    +0.000 A 
ATOM     12  N   UNL     1      -4.742  15.123  22.453  0.00  0.00    +0.000 N 
ATOM     13  C   UNL     1      -1.363  14.411  21.321  0.00  0.00    +0.000 C 
ENDROOT
BRANCH  11  14
ATOM     14  C   UNL     1      -5.881  16.456  20.479  0.00  0.00    +0.000 C 
ATOM     15  C   UNL     1      -6.908  15.423  19.980  0.00  0.00    +0.000 C 
ATOM     16  C   UNL     1      -6.574  17.525  21.348  0.00  0.00    +0.000 C 
ATOM     17  C   UNL     1      -5.357  17.221  19.238  0.00  0.00    +0.000 C 
ENDBRANCH  11  14
BRANCH   2  18
ATOM     18  C   UNL     1      -0.466  12.038  19.577  0.00  0.00    +0.000 C 
BRANCH  18  19
ATOM     19  C   UNL     1      -1.688  11.527  18.839  0.00  0.00    +0.000 A 
ATOM     20  C   UNL     1      -2.973  12.056  19.038  0.00  0.00    +0.000 A 
ATOM     21  C   UNL     1      -4.079  11.513  18.385  0.00  0.00    +0.000 A 
ATOM     22  C   UNL     1      -3.915  10.441  17.514  0.00  0.00    +0.000 A 
ATOM     23  C   UNL     1      -2.646   9.906  17.299  0.00  0.00    +0.000 A 
ATOM     24  C   UNL     1      -1.538  10.448  17.954  0.00  0.00    +0.000 A 
ENDBRANCH  18  19
ENDBRANCH   2  18
BRANCH  12  25
ATOM     25  C   UNL     1      -5.914  15.084  23.325  0.00  0.00    +0.000 C 
BRANCH  25  26
ATOM     26  C   UNL     1      -6.505  13.765  23.721  0.00  0.00    +0.000 C 
ATOM     27  C   UNL     1      -7.880  13.802  24.346  0.00  0.00    +0.000 C 
ATOM     28  C   UNL     1      -7.695  13.196  22.985  0.00  0.00    +0.000 C 
ENDBRANCH  25  26
ENDBRANCH  12  25
TORSDOF 5
ENDMDL
MODEL 5
REMARK VINA RESULT:      -6.5      4.518      8.772
REMARK  Name = 
REMARK  9 active torsions:
REMARK  status: ('A' for Active; 'I' for Inactive)
REMARK    1  A    between atoms: C_1  and  N_2
REMARK    2  A    between atoms: N_2  and  C_3
REMARK    3  A    between atoms: C_3  and  C_4
REMARK    4  A    between atoms: C_18  and  C_19
REMARK    5  A    between atoms: C_19  and  C_20
REMARK    6  A    between atoms: C_19  and  C_21
REMARK    7  A    between atoms: C_19  and  C_22
REMARK    8  A    between atoms: N_23  and  C_24
REMARK    9  A    between atoms: C_24  and  C_25
REMARK                            x       y       z     vdW  Elec       q    Type
REMARK                         _______ _______ _______ _____ _____    ______ ____
ROOT
ATOM      1  C   UNL     1      -0.844  10.484  23.015  0.00  0.00    +0.000 C 
ATOM      2  N   UNL     1      -0.867  11.409  21.882  0.00  0.00    +0.000 N 
ATOM      3  C   UNL     1       0.183  11.303  20.994  0.00  0.00    +0.000 C 
ATOM      4  O   UNL     1       1.092  10.507  21.276  0.00  0.00    +0.000 OA
ATOM      5  N   UNL     1       0.256  12.005  19.809  0.00  0.00    +0.000 N 
ATOM      6  C   UNL     1       1.468  11.786  18.981  0.00  0.00    +0.000 C 
ATOM      7  C   UNL     1       2.348  13.059  18.892  0.00  0.00    +0.000 C 
ATOM      8  C   UNL     1       1.489  14.271  18.757  0.00  0.00    +0.000 A 
ATOM      9  C   UNL     1       0.119  14.229  18.865  0.00  0.00    +0.000 A 
ATOM     10  N   UNL     1      -0.420  15.471  18.673  0.00  0.00    +0.000 NA
ATOM     11  C   UNL     1       0.598  16.297  18.474  0.00  0.00    +0.000 A 
ATOM     12  N   UNL     1       1.808  15.596  18.612  0.00  0.00    +0.000 N 
ATOM     13  C   UNL     1      -0.659  12.988  19.172  0.00  0.00    +0.000 C 
ENDROOT
BRANCH  11  14
ATOM     14  C   UNL     1       0.421  17.805  18.202  0.00  0.00    +0.000 C 
ATOM     15  C   UNL     1       0.948  18.610  19.404  0.00  0.00    +0.000 C 
ATOM     16  C   UNL     1       1.083  18.290  16.897  0.00  0.00    +0.000 C 
ATOM     17  C   UNL     1      -1.082  18.144  18.043  0.00  0.00    +0.000 C 
ENDBRANCH  11  14
BRANCH   2  18
ATOM     18  C   UNL     1      -2.027  12.288  21.839  0.00  0.00    +0.000 C 
BRANCH  18  19
ATOM     19  C   UNL     1      -2.069  13.318  22.951  0.00  0.00    +0.000 A 
ATOM     20  C   UNL     1      -3.135  13.411  23.861  0.00  0.00    +0.000 A 
ATOM     21  C   UNL     1      -3.163  14.415  24.829  0.00  0.00    +0.000 A 
ATOM     22  C   UNL     1      -2.121  15.333  24.907  0.00  0.00    +0.000 A 
ATOM     23  C   UNL     1      -1.053  15.253  24.017  0.00  0.00    +0.000 A 
ATOM     24  C   UNL     1      -1.025  14.249  23.047  0.00  0.00    +0.000 A 
ENDBRANCH  18  19
ENDBRANCH   2  18
BRANCH  12  25
ATOM     25  C   UNL     1       3.131  16.212  18.523  0.00  0.00    +0.000 C 
BRANCH  25  26
ATOM     26  C   UNL     1       3.980  16.338  19.751  0.00  0.00    +0.000 C 
ATOM     27  C   UNL     1       5.360  15.728  19.684  0.00  0.00    +0.000 C 
ATOM     28  C   UNL     1       5.207  17.219  19.760  0.00  0.00    +0.000 C 
ENDBRANCH  25  26
ENDBRANCH  12  25
TORSDOF 5
ENDMDL
MODEL 6
REMARK VINA RESULT:      -6.5      3.490      6.607
REMARK  Name = 
REMARK  9 active torsions:
REMARK  status: ('A' for Active; 'I' for Inactive)
REMARK    1  A    between atoms: C_1  and  N_2
REMARK    2  A    between atoms: N_2  and  C_3
REMARK    3  A    between atoms: C_3  and  C_4
REMARK    4  A    between atoms: C_18  and  C_19
REMARK    5  A    between atoms: C_19  and  C_20
REMARK    6  A    between atoms: C_19  and  C_21
REMARK    7  A    between atoms: C_19  and  C_22
REMARK    8  A    between atoms: N_23  and  C_24
REMARK    9  A    between atoms: C_24  and  C_25
REMARK                            x       y       z     vdW  Elec       q    Type
REMARK                         _______ _______ _______ _____ _____    ______ ____
ROOT
ATOM      1  C   UNL     1      -1.435  17.738  21.710  0.00  0.00    +0.000 C 
ATOM      2  N   UNL     1      -0.615  16.528  21.649  0.00  0.00    +0.000 N 
ATOM      3  C   UNL     1      -0.225  16.126  20.387  0.00  0.00    +0.000 C 
ATOM      4  O   UNL     1      -0.673  16.762  19.421  0.00  0.00    +0.000 OA
ATOM      5  N   UNL     1       0.650  15.086  20.153  0.00  0.00    +0.000 N 
ATOM      6  C   UNL     1       0.946  14.774  18.733  0.00  0.00    +0.000 C 
ATOM      7  C   UNL     1       0.398  13.384  18.318  0.00  0.00    +0.000 C 
ATOM      8  C   UNL     1       0.605  12.400  19.419  0.00  0.00    +0.000 A 
ATOM      9  C   UNL     1       1.070  12.758  20.662  0.00  0.00    +0.000 A 
ATOM     10  N   UNL     1       1.193  11.660  21.468  0.00  0.00    +0.000 NA
ATOM     11  C   UNL     1       0.783  10.621  20.754  0.00  0.00    +0.000 A 
ATOM     12  N   UNL     1       0.322  11.060  19.502  0.00  0.00    +0.000 N 
ATOM     13  C   UNL     1       1.376  14.166  21.067  0.00  0.00    +0.000 C 
ENDROOT
BRANCH  11  14
ATOM     14  C   UNL     1       0.775   9.176  21.295  0.00  0.00    +0.000 C 
ATOM     15  C   UNL     1      -0.678   8.716  21.513  0.00  0.00    +0.000 C 
ATOM     16  C   UNL     1       1.530   8.168  20.406  0.00  0.00    +0.000 C 
ATOM     17  C   UNL     1       1.488   9.117  22.669  0.00  0.00    +0.000 C 
ENDBRANCH  11  14
BRANCH   2  18
ATOM     18  C   UNL     1      -0.297  15.943  22.943  0.00  0.00    +0.000 C 
BRANCH  18  19
ATOM     19  C   UNL     1      -1.401  15.083  23.527  0.00  0.00    +0.000 A 
ATOM     20  C   UNL     1      -1.865  13.915  22.901  0.00  0.00    +0.000 A 
ATOM     21  C   UNL     1      -2.926  13.188  23.441  0.00  0.00    +0.000 A 
ATOM     22  C   UNL     1      -3.531  13.614  24.619  0.00  0.00    +0.000 A 
ATOM     23  C   UNL     1      -3.080  14.767  25.257  0.00  0.00    +0.000 A 
ATOM     24  C   UNL     1      -2.019  15.496  24.717  0.00  0.00    +0.000 A 
ENDBRANCH  18  19
ENDBRANCH   2  18
BRANCH  12  25
ATOM     25  C   UNL     1      -0.263  10.186  18.487  0.00  0.00    +0.000 C 
BRANCH  25  26
ATOM     26  C   UNL     1      -1.467  10.638  17.717  0.00  0.00    +0.000 C 
ATOM     27  C   UNL     1      -2.698   9.768  17.816  0.00  0.00    +0.000 C 
ATOM     28  C   UNL     1      -2.701  11.138  18.430  0.00  0.00    +0.000 C 
ENDBRANCH  25  26
ENDBRANCH  12  25
TORSDOF 5
ENDMDL
MODEL 7
REMARK VINA RESULT:      -6.5      5.652      9.722
REMARK  Name = 
REMARK  9 active torsions:
REMARK  status: ('A' for Active; 'I' for Inactive)
REMARK    1  A    between atoms: C_1  and  N_2
REMARK    2  A    between atoms: N_2  and  C_3
REMARK    3  A    between atoms: C_3  and  C_4
REMARK    4  A    between atoms: C_18  and  C_19
REMARK    5  A    between atoms: C_19  and  C_20
REMARK    6  A    between atoms: C_19  and  C_21
REMARK    7  A    between atoms: C_19  and  C_22
REMARK    8  A    between atoms: N_23  and  C_24
REMARK    9  A    between atoms: C_24  and  C_25
REMARK                            x       y       z     vdW  Elec       q    Type
REMARK                         _______ _______ _______ _____ _____    ______ ____
ROOT
ATOM      1  C   UNL     1       3.005  16.850  18.322  0.00  0.00    +0.000 C 
ATOM      2  N   UNL     1       4.172  16.073  18.741  0.00  0.00    +0.000 N 
ATOM      3  C   UNL     1       5.102  16.747  19.507  0.00  0.00    +0.000 C 
ATOM      4  O   UNL     1       4.918  17.960  19.693  0.00  0.00    +0.000 OA
ATOM      5  N   UNL     1       6.195  16.140  20.091  0.00  0.00    +0.000 N 
ATOM      6  C   UNL     1       7.106  17.019  20.865  0.00  0.00    +0.000 C 
ATOM      7  C   UNL     1       8.502  17.137  20.200  0.00  0.00    +0.000 C 
ATOM      8  C   UNL     1       8.926  15.814  19.656  0.00  0.00    +0.000 A 
ATOM      9  C   UNL     1       8.097  14.719  19.628  0.00  0.00    +0.000 A 
ATOM     10  N   UNL     1       8.745  13.633  19.106  0.00  0.00    +0.000 NA
ATOM     11  C   UNL     1       9.963  14.044  18.779  0.00  0.00    +0.000 A 
ATOM     12  N   UNL     1      10.078  15.423  19.023  0.00  0.00    +0.000 N 
ATOM     13  C   UNL     1       6.674  14.734  20.092  0.00  0.00    +0.000 C 
ENDROOT
BRANCH  11  14
ATOM     14  C   UNL     1      11.029  13.115  18.163  0.00  0.00    +0.000 C 
ATOM     15  C   UNL     1      11.330  13.562  16.721  0.00  0.00    +0.000 C 
ATOM     16  C   UNL     1      12.333  13.026  18.982  0.00  0.00    +0.000 C 
ATOM     17  C   UNL     1      10.495  11.663  18.094  0.00  0.00    +0.000 C 
ENDBRANCH  11  14
BRANCH   2  18
ATOM     18  C   UNL     1       4.160  14.681  18.316  0.00  0.00    +0.000 C 
BRANCH  18  19
ATOM     19  C   UNL     1       3.059  13.849  18.943  0.00  0.00    +0.000 A 
ATOM     20  C   UNL     1       2.865  13.766  20.332  0.00  0.00    +0.000 A 
ATOM     21  C   UNL     1       1.879  12.937  20.867  0.00  0.00    +0.000 A 
ATOM     22  C   UNL     1       1.066  12.189  20.023  0.00  0.00    +0.000 A 
ATOM     23  C   UNL     1       1.239  12.264  18.642  0.00  0.00    +0.000 A 
ATOM     24  C   UNL     1       2.227  13.091  18.105  0.00  0.00    +0.000 A 
ENDBRANCH  18  19
ENDBRANCH   2  18
BRANCH  12  25
ATOM     25  C   UNL     1      11.266  16.217  18.715  0.00  0.00    +0.000 C 
BRANCH  25  26
ATOM     26  C   UNL     1      11.256  17.147  17.540  0.00  0.00    +0.000 C 
ATOM     27  C   UNL     1      10.862  18.579  17.815  0.00  0.00    +0.000 C 
ATOM     28  C   UNL     1      12.274  18.257  17.421  0.00  0.00    +0.000 C 
ENDBRANCH  25  26
ENDBRANCH  12  25
TORSDOF 5
ENDMDL
MODEL 8
REMARK VINA RESULT:      -6.4      4.816      8.073
REMARK  Name = 
REMARK  9 active torsions:
REMARK  status: ('A' for Active; 'I' for Inactive)
REMARK    1  A    between atoms: C_1  and  N_2
REMARK    2  A    between atoms: N_2  and  C_3
REMARK    3  A    between atoms: C_3  and  C_4
REMARK    4  A    between atoms: C_18  and  C_19
REMARK    5  A    between atoms: C_19  and  C_20
REMARK    6  A    between atoms: C_19  and  C_21
REMARK    7  A    between atoms: C_19  and  C_22
REMARK    8  A    between atoms: N_23  and  C_24
REMARK    9  A    between atoms: C_24  and  C_25
REMARK                            x       y       z     vdW  Elec       q    Type
REMARK                         _______ _______ _______ _____ _____    ______ ____
ROOT
ATOM      1  C   UNL     1      -6.410  15.333  21.834  0.00  0.00    +0.000 C 
ATOM      2  N   UNL     1      -5.352  14.419  22.263  0.00  0.00    +0.000 N 
ATOM      3  C   UNL     1      -4.130  14.999  22.541  0.00  0.00    +0.000 C 
ATOM      4  O   UNL     1      -4.010  16.213  22.317  0.00  0.00    +0.000 OA
ATOM      5  N   UNL     1      -3.062  14.309  23.076  0.00  0.00    +0.000 N 
ATOM      6  C   UNL     1      -1.815  15.084  23.293  0.00  0.00    +0.000 C 
ATOM      7  C   UNL     1      -0.665  14.603  22.369  0.00  0.00    +0.000 C 
ATOM      8  C   UNL     1      -0.682  13.116  22.259  0.00  0.00    +0.000 A 
ATOM      9  C   UNL     1      -1.687  12.340  22.785  0.00  0.00    +0.000 A 
ATOM     10  N   UNL     1      -1.440  11.013  22.566  0.00  0.00    +0.000 NA
ATOM     11  C   UNL     1      -0.305  10.949  21.882  0.00  0.00    +0.000 A 
ATOM     12  N   UNL     1       0.146  12.248  21.593  0.00  0.00    +0.000 N 
ATOM     13  C   UNL     1      -2.891  12.891  23.483  0.00  0.00    +0.000 C 
ENDROOT
BRANCH  11  14
ATOM     14  C   UNL     1       0.339   9.619  21.440  0.00  0.00    +0.000 C 
ATOM     15  C   UNL     1       1.684   9.433  22.167  0.00  0.00    +0.000 C 
ATOM     16  C   UNL     1      -0.560   8.385  21.650  0.00  0.00    +0.000 C 
ATOM     17  C   UNL     1       0.637   9.650  19.921  0.00  0.00    +0.000 C 
ENDBRANCH  11  14
BRANCH   2  18
ATOM     18  C   UNL     1      -5.759  13.026  22.372  0.00  0.00    +0.000 C 
BRANCH  18  19
ATOM     19  C   UNL     1      -5.937  12.324  21.040  0.00  0.00    +0.000 A 
ATOM     20  C   UNL     1      -7.025  11.478  20.766  0.00  0.00    +0.000 A 
ATOM     21  C   UNL     1      -7.116  10.802  19.550  0.00  0.00    +0.000 A 
ATOM     22  C   UNL     1      -6.128  10.970  18.586  0.00  0.00    +0.000 A 
ATOM     23  C   UNL     1      -5.045  11.810  18.837  0.00  0.00    +0.000 A 
ATOM     24  C   UNL     1      -4.951  12.486  20.055  0.00  0.00    +0.000 A 
ENDBRANCH  18  19
ENDBRANCH   2  18
BRANCH  12  25
ATOM     25  C   UNL     1       1.334  12.549  20.796  0.00  0.00    +0.000 C 
BRANCH  25  26
ATOM     26  C   UNL     1       1.184  13.165  19.439  0.00  0.00    +0.000 C 
ATOM     27  C   UNL     1       2.241  14.164  19.030  0.00  0.00    +0.000 C 
ATOM     28  C   UNL     1       2.155  12.840  18.328  0.00  0.00    +0.000 C 
ENDBRANCH  25  26
ENDBRANCH  12  25
TORSDOF 5
ENDMDL
MODEL 9
REMARK VINA RESULT:      -6.4      4.532      8.754
REMARK  Name = 
REMARK  9 active torsions:
REMARK  status: ('A' for Active; 'I' for Inactive)
REMARK    1  A    between atoms: C_1  and  N_2
REMARK    2  A    between atoms: N_2  and  C_3
REMARK    3  A    between atoms: C_3  and  C_4
REMARK    4  A    between atoms: C_18  and  C_19
REMARK    5  A    between atoms: C_19  and  C_20
REMARK    6  A    between atoms: C_19  and  C_21
REMARK    7  A    between atoms: C_19  and  C_22
REMARK    8  A    between atoms: N_23  and  C_24
REMARK    9  A    between atoms: C_24  and  C_25
REMARK                            x       y       z     vdW  Elec       q    Type
REMARK                         _______ _______ _______ _____ _____    ______ ____
ROOT
ATOM      1  C   UNL     1      -0.854  10.564  23.075  0.00  0.00    +0.000 C 
ATOM      2  N   UNL     1      -0.879  11.468  21.924  0.00  0.00    +0.000 N 
ATOM      3  C   UNL     1       0.172  11.344  21.038  0.00  0.00    +0.000 C 
ATOM      4  O   UNL     1       1.081  10.554  21.336  0.00  0.00    +0.000 OA
ATOM      5  N   UNL     1       0.244  12.023  19.839  0.00  0.00    +0.000 N 
ATOM      6  C   UNL     1       1.456  11.787  19.016  0.00  0.00    +0.000 C 
ATOM      7  C   UNL     1       2.336  13.059  18.902  0.00  0.00    +0.000 C 
ATOM      8  C   UNL     1       1.476  14.267  18.743  0.00  0.00    +0.000 A 
ATOM      9  C   UNL     1       0.106  14.227  18.852  0.00  0.00    +0.000 A 
ATOM     10  N   UNL     1      -0.434  15.465  18.635  0.00  0.00    +0.000 NA
ATOM     11  C   UNL     1       0.585  16.287  18.420  0.00  0.00    +0.000 A 
ATOM     12  N   UNL     1       1.795  15.590  18.572  0.00  0.00    +0.000 N 
ATOM     13  C   UNL     1      -0.671  12.992  19.183  0.00  0.00    +0.000 C 
ENDROOT
BRANCH  11  14
ATOM     14  C   UNL     1       0.406  17.789  18.119  0.00  0.00    +0.000 C 
ATOM     15  C   UNL     1       0.903  18.618  19.318  0.00  0.00    +0.000 C 
ATOM     16  C   UNL     1       1.097  18.256  16.821  0.00  0.00    +0.000 C 
ATOM     17  C   UNL     1      -1.094  18.119  17.920  0.00  0.00    +0.000 C 
ENDBRANCH  11  14
BRANCH   2  18
ATOM     18  C   UNL     1      -2.039  12.344  21.864  0.00  0.00    +0.000 C 
BRANCH  18  19
ATOM     19  C   UNL     1      -2.142  13.320  23.020  0.00  0.00    +0.000 A 
ATOM     20  C   UNL     1      -1.102  14.195  23.372  0.00  0.00    +0.000 A 
ATOM     21  C   UNL     1      -1.215  15.032  24.482  0.00  0.00    +0.000 A 
ATOM     22  C   UNL     1      -2.375  15.014  25.249  0.00  0.00    +0.000 A 
ATOM     23  C   UNL     1      -3.421  14.157  24.912  0.00  0.00    +0.000 A 
ATOM     24  C   UNL     1      -3.307  13.318  23.802  0.00  0.00    +0.000 A 
ENDBRANCH  18  19
ENDBRANCH   2  18
BRANCH  12  25
ATOM     25  C   UNL     1       3.117  16.205  18.470  0.00  0.00    +0.000 C 
BRANCH  25  26
ATOM     26  C   UNL     1       4.328  15.450  18.930  0.00  0.00    +0.000 C 
ATOM     27  C   UNL     1       5.263  14.953  17.853  0.00  0.00    +0.000 C 
ATOM     28  C   UNL     1       5.711  16.040  18.787  0.00  0.00    +0.000 C 
ENDBRANCH  25  26
ENDBRANCH  12  25
TORSDOF 5
ENDMDL
