MODEL 1
REMARK VINA RESULT:      -6.8      0.000      0.000
REMARK  Name = 
REMARK  4 active torsions:
REMARK  status: ('A' for Active; 'I' for Inactive)
REMARK    1  A    between atoms: C_1  and  C_2
REMARK    2  A    between atoms: C_2  and  C_3
REMARK    3  A    between atoms: C_13  and  C_14
REMARK    4  A    between atoms: C_14  and  N_15
REMARK                            x       y       z     vdW  Elec       q    Type
REMARK                         _______ _______ _______ _____ _____    ______ ____
ROOT
ATOM      1  C   UNL     1       4.714   5.218  19.389  0.00  0.00    +0.000 C 
ATOM      2  C   UNL     1       3.528   5.413  18.420  0.00  0.00    +0.000 C 
ATOM      3  O   UNL     1       2.668   4.273  18.496  0.00  0.00    +0.000 OA
ATOM      4  C   UNL     1       3.224   3.298  17.606  0.00  0.00    +0.000 C 
ATOM      5  C   UNL     1       4.108   4.058  16.635  0.00  0.00    +0.000 C 
ATOM      6  O   UNL     1       4.101   5.405  17.101  0.00  0.00    +0.000 OA
ENDROOT
BRANCH   2   7
ATOM      7  C   UNL     1       2.756   6.715  18.629  0.00  0.00    +0.000 A 
ATOM      8  C   UNL     1       2.822   7.739  17.654  0.00  0.00    +0.000 A 
ATOM      9  C   UNL     1       2.273   9.007  17.868  0.00  0.00    +0.000 A 
ATOM     10  C   UNL     1       1.619   9.276  19.061  0.00  0.00    +0.000 A 
ATOM     11 CL   UNL     1       1.008  10.855  19.366  0.00  0.00    +0.000 Cl
ATOM     12  C   UNL     1       1.463   8.273  20.011  0.00  0.00    +0.000 A 
ATOM     13  C   UNL     1       2.014   7.001  19.793  0.00  0.00    +0.000 A 
ATOM     14 CL   UNL     1       1.726   5.827  21.033  0.00  0.00    +0.000 Cl
ENDBRANCH   2   7
BRANCH   5  15
ATOM     15  C   UNL     1       5.555   3.557  16.573  0.00  0.00    +0.000 C 
BRANCH  15  16
ATOM     16  N   UNL     1       6.299   4.157  15.470  0.00  0.00    +0.000 N 
ATOM     17  C   UNL     1       6.139   3.884  14.144  0.00  0.00    +0.000 A 
ATOM     18  C   UNL     1       7.014   4.740  13.500  0.00  0.00    +0.000 A 
ATOM     19  N   UNL     1       7.708   5.496  14.403  0.00  0.00    +0.000 NA
ATOM     20  C   UNL     1       7.269   5.115  15.586  0.00  0.00    +0.000 A 
ENDBRANCH  15  16
ENDBRANCH   5  15
TORSDOF 3
ENDMDL
MODEL 2
REMARK VINA RESULT:      -6.5      0.901      1.141
REMARK  Name = 
REMARK  4 active torsions:
REMARK  status: ('A' for Active; 'I' for Inactive)
REMARK    1  A    between atoms: C_1  and  C_2
REMARK    2  A    between atoms: C_2  and  C_3
REMARK    3  A    between atoms: C_13  and  C_14
REMARK    4  A    between atoms: C_14  and  N_15
REMARK                            x       y       z     vdW  Elec       q    Type
REMARK                         _______ _______ _______ _____ _____    ______ ____
ROOT
ATOM      1  C   UNL     1       5.172   5.172  19.128  0.00  0.00    +0.000 C 
ATOM      2  C   UNL     1       3.913   5.310  18.245  0.00  0.00    +0.000 C 
ATOM      3  O   UNL     1       3.235   4.053  18.196  0.00  0.00    +0.000 OA
ATOM      4  C   UNL     1       3.870   3.302  17.155  0.00  0.00    +0.000 C 
ATOM      5  C   UNL     1       4.572   4.310  16.265  0.00  0.00    +0.000 C 
ATOM      6  O   UNL     1       4.398   5.565  16.916  0.00  0.00    +0.000 OA
ENDROOT
BRANCH   2   7
ATOM      7  C   UNL     1       2.974   6.440  18.668  0.00  0.00    +0.000 A 
ATOM      8  C   UNL     1       2.802   7.566  17.827  0.00  0.00    +0.000 A 
ATOM      9  C   UNL     1       2.088   8.698  18.235  0.00  0.00    +0.000 A 
ATOM     10  C   UNL     1       1.504   8.721  19.493  0.00  0.00    +0.000 A 
ATOM     11 CL   UNL     1       0.692  10.137  20.034  0.00  0.00    +0.000 Cl
ATOM     12  C   UNL     1       1.583   7.604  20.317  0.00  0.00    +0.000 A 
ATOM     13  C   UNL     1       2.298   6.469  19.904  0.00  0.00    +0.000 A 
ATOM     14 CL   UNL     1       2.296   5.130  21.003  0.00  0.00    +0.000 Cl
ENDBRANCH   2   7
BRANCH   5  15
ATOM     15  C   UNL     1       6.070   4.048  16.074  0.00  0.00    +0.000 C 
BRANCH  15  16
ATOM     16  N   UNL     1       6.496   4.273  14.696  0.00  0.00    +0.000 N 
ATOM     17  C   UNL     1       7.430   5.172  14.275  0.00  0.00    +0.000 A 
ATOM     18  C   UNL     1       7.528   4.966  12.911  0.00  0.00    +0.000 A 
ATOM     19  N   UNL     1       6.664   3.988  12.503  0.00  0.00    +0.000 NA
ATOM     20  C   UNL     1       6.041   3.597  13.597  0.00  0.00    +0.000 A 
ENDBRANCH  15  16
ENDBRANCH   5  15
TORSDOF 3
ENDMDL
MODEL 3
REMARK VINA RESULT:      -6.3      2.922      4.006
REMARK  Name = 
REMARK  4 active torsions:
REMARK  status: ('A' for Active; 'I' for Inactive)
REMARK    1  A    between atoms: C_1  and  C_2
REMARK    2  A    between atoms: C_2  and  C_3
REMARK    3  A    between atoms: C_13  and  C_14
REMARK    4  A    between atoms: C_14  and  N_15
REMARK                            x       y       z     vdW  Elec       q    Type
REMARK                         _______ _______ _______ _____ _____    ______ ____
ROOT
ATOM      1  C   UNL     1       4.683   6.558  17.690  0.00  0.00    +0.000 C 
ATOM      2  C   UNL     1       4.935   5.075  18.039  0.00  0.00    +0.000 C 
ATOM      3  O   UNL     1       6.232   4.946  18.628  0.00  0.00    +0.000 OA
ATOM      4  C   UNL     1       7.153   4.837  17.538  0.00  0.00    +0.000 C 
ATOM      5  C   UNL     1       6.344   4.389  16.336  0.00  0.00    +0.000 C 
ATOM      6  O   UNL     1       4.990   4.385  16.779  0.00  0.00    +0.000 OA
ENDROOT
BRANCH   2   7
ATOM      7  C   UNL     1       3.853   4.445  18.915  0.00  0.00    +0.000 A 
ATOM      8  C   UNL     1       3.192   5.228  19.891  0.00  0.00    +0.000 A 
ATOM      9  C   UNL     1       2.316   4.667  20.827  0.00  0.00    +0.000 A 
ATOM     10  C   UNL     1       2.059   3.306  20.792  0.00  0.00    +0.000 A 
ATOM     11 CL   UNL     1       1.044   2.594  21.985  0.00  0.00    +0.000 Cl
ATOM     12  C   UNL     1       2.626   2.515  19.798  0.00  0.00    +0.000 A 
ATOM     13  C   UNL     1       3.504   3.080  18.860  0.00  0.00    +0.000 A 
ATOM     14 CL   UNL     1       4.121   2.003  17.654  0.00  0.00    +0.000 Cl
ENDBRANCH   2   7
BRANCH   5  15
ATOM     15  C   UNL     1       6.468   5.306  15.113  0.00  0.00    +0.000 C 
BRANCH  15  16
ATOM     16  N   UNL     1       6.485   4.556  13.862  0.00  0.00    +0.000 N 
ATOM     17  C   UNL     1       5.590   3.602  13.477  0.00  0.00    +0.000 A 
ATOM     18  C   UNL     1       5.988   3.237  12.204  0.00  0.00    +0.000 A 
ATOM     19  N   UNL     1       7.107   3.926  11.828  0.00  0.00    +0.000 NA
ATOM     20  C   UNL     1       7.397   4.704  12.852  0.00  0.00    +0.000 A 
ENDBRANCH  15  16
ENDBRANCH   5  15
TORSDOF 3
ENDMDL
MODEL 4
REMARK VINA RESULT:      -6.3      2.489      3.960
REMARK  Name = 
REMARK  4 active torsions:
REMARK  status: ('A' for Active; 'I' for Inactive)
REMARK    1  A    between atoms: C_1  and  C_2
REMARK    2  A    between atoms: C_2  and  C_3
REMARK    3  A    between atoms: C_13  and  C_14
REMARK    4  A    between atoms: C_14  and  N_15
REMARK                            x       y       z     vdW  Elec       q    Type
REMARK                         _______ _______ _______ _____ _____    ______ ____
ROOT
ATOM      1  C   UNL     1       5.323   6.555  17.947  0.00  0.00    +0.000 C 
ATOM      2  C   UNL     1       5.452   5.039  18.213  0.00  0.00    +0.000 C 
ATOM      3  O   UNL     1       6.790   4.747  18.622  0.00  0.00    +0.000 OA
ATOM      4  C   UNL     1       7.547   4.591  17.417  0.00  0.00    +0.000 C 
ATOM      5  C   UNL     1       6.547   4.287  16.318  0.00  0.00    +0.000 C 
ATOM      6  O   UNL     1       5.268   4.406  16.935  0.00  0.00    +0.000 OA
ENDROOT
BRANCH   2   7
ATOM      7  C   UNL     1       4.427   4.488  19.203  0.00  0.00    +0.000 A 
ATOM      8  C   UNL     1       4.589   3.186  19.735  0.00  0.00    +0.000 A 
ATOM      9  C   UNL     1       3.602   2.572  20.513  0.00  0.00    +0.000 A 
ATOM     10  C   UNL     1       2.432   3.258  20.801  0.00  0.00    +0.000 A 
ATOM     11 CL   UNL     1       1.180   2.483  21.690  0.00  0.00    +0.000 Cl
ATOM     12  C   UNL     1       2.269   4.568  20.364  0.00  0.00    +0.000 A 
ATOM     13  C   UNL     1       3.261   5.183  19.585  0.00  0.00    +0.000 A 
ATOM     14 CL   UNL     1       2.958   6.825  19.128  0.00  0.00    +0.000 Cl
ENDBRANCH   2   7
BRANCH   5  15
ATOM     15  C   UNL     1       6.615   5.240  15.120  0.00  0.00    +0.000 C 
BRANCH  15  16
ATOM     16  N   UNL     1       6.594   4.527  13.847  0.00  0.00    +0.000 N 
ATOM     17  C   UNL     1       5.670   3.607  13.449  0.00  0.00    +0.000 A 
ATOM     18  C   UNL     1       6.039   3.271  12.160  0.00  0.00    +0.000 A 
ATOM     19  N   UNL     1       7.169   3.943  11.786  0.00  0.00    +0.000 NA
ATOM     20  C   UNL     1       7.494   4.683  12.827  0.00  0.00    +0.000 A 
ENDBRANCH  15  16
ENDBRANCH   5  15
TORSDOF 3
ENDMDL
MODEL 5
REMARK VINA RESULT:      -6.3      1.823      2.421
REMARK  Name = 
REMARK  4 active torsions:
REMARK  status: ('A' for Active; 'I' for Inactive)
REMARK    1  A    between atoms: C_1  and  C_2
REMARK    2  A    between atoms: C_2  and  C_3
REMARK    3  A    between atoms: C_13  and  C_14
REMARK    4  A    between atoms: C_14  and  N_15
REMARK                            x       y       z     vdW  Elec       q    Type
REMARK                         _______ _______ _______ _____ _____    ______ ____
ROOT
ATOM      1  C   UNL     1       2.653   5.092  20.678  0.00  0.00    +0.000 C 
ATOM      2  C   UNL     1       2.312   6.078  19.540  0.00  0.00    +0.000 C 
ATOM      3  O   UNL     1       1.387   5.457  18.644  0.00  0.00    +0.000 OA
ATOM      4  C   UNL     1       2.177   4.690  17.729  0.00  0.00    +0.000 C 
ATOM      5  C   UNL     1       3.577   5.272  17.778  0.00  0.00    +0.000 C 
ATOM      6  O   UNL     1       3.534   6.259  18.805  0.00  0.00    +0.000 OA
ENDROOT
BRANCH   2   7
ATOM      7  C   UNL     1       1.804   7.437  20.021  0.00  0.00    +0.000 A 
ATOM      8  C   UNL     1       1.384   7.598  21.363  0.00  0.00    +0.000 A 
ATOM      9  C   UNL     1       0.759   8.767  21.812  0.00  0.00    +0.000 A 
ATOM     10  C   UNL     1       0.562   9.819  20.931  0.00  0.00    +0.000 A 
ATOM     11 CL   UNL     1      -0.274  11.228  21.452  0.00  0.00    +0.000 Cl
ATOM     12  C   UNL     1       1.032   9.730  19.625  0.00  0.00    +0.000 A 
ATOM     13  C   UNL     1       1.659   8.557  19.177  0.00  0.00    +0.000 A 
ATOM     14 CL   UNL     1       2.230   8.579  17.543  0.00  0.00    +0.000 Cl
ENDBRANCH   2   7
BRANCH   5  15
ATOM     15  C   UNL     1       4.674   4.254  18.108  0.00  0.00    +0.000 C 
BRANCH  15  16
ATOM     16  N   UNL     1       5.763   4.284  17.137  0.00  0.00    +0.000 N 
ATOM     17  C   UNL     1       5.655   4.084  15.793  0.00  0.00    +0.000 A 
ATOM     18  C   UNL     1       6.935   4.276  15.304  0.00  0.00    +0.000 A 
ATOM     19  N   UNL     1       7.806   4.559  16.319  0.00  0.00    +0.000 NA
ATOM     20  C   UNL     1       7.078   4.543  17.417  0.00  0.00    +0.000 A 
ENDBRANCH  15  16
ENDBRANCH   5  15
TORSDOF 3
ENDMDL
MODEL 6
REMARK VINA RESULT:      -6.2      3.028      4.101
REMARK  Name = 
REMARK  4 active torsions:
REMARK  status: ('A' for Active; 'I' for Inactive)
REMARK    1  A    between atoms: C_1  and  C_2
REMARK    2  A    between atoms: C_2  and  C_3
REMARK    3  A    between atoms: C_13  and  C_14
REMARK    4  A    between atoms: C_14  and  N_15
REMARK                            x       y       z     vdW  Elec       q    Type
REMARK                         _______ _______ _______ _____ _____    ______ ____
ROOT
ATOM      1  C   UNL     1       4.955   6.333  15.739  0.00  0.00    +0.000 C 
ATOM      2  C   UNL     1       5.213   4.990  16.455  0.00  0.00    +0.000 C 
ATOM      3  O   UNL     1       6.538   4.993  16.993  0.00  0.00    +0.000 OA
ATOM      4  C   UNL     1       7.399   4.579  15.927  0.00  0.00    +0.000 C 
ATOM      5  C   UNL     1       6.523   3.847  14.928  0.00  0.00    +0.000 C 
ATOM      6  O   UNL     1       5.195   3.991  15.422  0.00  0.00    +0.000 OA
ENDROOT
BRANCH   2   7
ATOM      7  C   UNL     1       4.174   4.639  17.519  0.00  0.00    +0.000 A 
ATOM      8  C   UNL     1       2.913   4.125  17.132  0.00  0.00    +0.000 A 
ATOM      9  C   UNL     1       1.871   3.943  18.046  0.00  0.00    +0.000 A 
ATOM     10  C   UNL     1       2.073   4.247  19.384  0.00  0.00    +0.000 A 
ATOM     11 CL   UNL     1       0.775   4.101  20.502  0.00  0.00    +0.000 Cl
ATOM     12  C   UNL     1       3.322   4.678  19.818  0.00  0.00    +0.000 A 
ATOM     13  C   UNL     1       4.367   4.860  18.898  0.00  0.00    +0.000 A 
ATOM     14 CL   UNL     1       5.883   5.368  19.563  0.00  0.00    +0.000 Cl
ENDBRANCH   2   7
BRANCH   5  15
ATOM     15  C   UNL     1       6.589   4.405  13.501  0.00  0.00    +0.000 C 
BRANCH  15  16
ATOM     16  N   UNL     1       5.985   3.502  12.528  0.00  0.00    +0.000 N 
ATOM     17  C   UNL     1       6.577   2.415  11.955  0.00  0.00    +0.000 A 
ATOM     18  C   UNL     1       5.592   1.854  11.162  0.00  0.00    +0.000 A 
ATOM     19  N   UNL     1       4.440   2.587  11.226  0.00  0.00    +0.000 NA
ATOM     20  C   UNL     1       4.707   3.585  12.044  0.00  0.00    +0.000 A 
ENDBRANCH  15  16
ENDBRANCH   5  15
TORSDOF 3
ENDMDL
MODEL 7
REMARK VINA RESULT:      -6.2      3.987      6.579
REMARK  Name = 
REMARK  4 active torsions:
REMARK  status: ('A' for Active; 'I' for Inactive)
REMARK    1  A    between atoms: C_1  and  C_2
REMARK    2  A    between atoms: C_2  and  C_3
REMARK    3  A    between atoms: C_13  and  C_14
REMARK    4  A    between atoms: C_14  and  N_15
REMARK                            x       y       z     vdW  Elec       q    Type
REMARK                         _______ _______ _______ _____ _____    ______ ____
ROOT
ATOM      1  C   UNL     1       3.127   3.632  17.112  0.00  0.00    +0.000 C 
ATOM      2  C   UNL     1       4.403   4.461  17.373  0.00  0.00    +0.000 C 
ATOM      3  O   UNL     1       5.155   3.845  18.422  0.00  0.00    +0.000 OA
ATOM      4  C   UNL     1       4.598   4.334  19.647  0.00  0.00    +0.000 C 
ATOM      5  C   UNL     1       3.866   5.617  19.304  0.00  0.00    +0.000 C 
ATOM      6  O   UNL     1       3.946   5.724  17.886  0.00  0.00    +0.000 OA
ENDROOT
BRANCH   2   7
ATOM      7  C   UNL     1       5.261   4.699  16.131  0.00  0.00    +0.000 A 
ATOM      8  C   UNL     1       4.829   4.215  14.873  0.00  0.00    +0.000 A 
ATOM      9  C   UNL     1       5.646   4.259  13.738  0.00  0.00    +0.000 A 
ATOM     10  C   UNL     1       6.913   4.815  13.829  0.00  0.00    +0.000 A 
ATOM     11 CL   UNL     1       7.954   4.804  12.459  0.00  0.00    +0.000 Cl
ATOM     12  C   UNL     1       7.343   5.373  15.027  0.00  0.00    +0.000 A 
ATOM     13  C   UNL     1       6.521   5.329  16.164  0.00  0.00    +0.000 A 
ATOM     14 CL   UNL     1       7.154   6.085  17.587  0.00  0.00    +0.000 Cl
ENDBRANCH   2   7
BRANCH   5  15
ATOM     15  C   UNL     1       2.392   5.637  19.726  0.00  0.00    +0.000 C 
BRANCH  15  16
ATOM     16  N   UNL     1       2.018   4.441  20.474  0.00  0.00    +0.000 N 
ATOM     17  C   UNL     1       1.210   3.433  20.038  0.00  0.00    +0.000 A 
ATOM     18  C   UNL     1       1.211   2.510  21.067  0.00  0.00    +0.000 A 
ATOM     19  N   UNL     1       1.975   2.947  22.113  0.00  0.00    +0.000 NA
ATOM     20  C   UNL     1       2.439   4.123  21.737  0.00  0.00    +0.000 A 
ENDBRANCH  15  16
ENDBRANCH   5  15
TORSDOF 3
ENDMDL
MODEL 8
REMARK VINA RESULT:      -6.1      2.441      4.081
REMARK  Name = 
REMARK  4 active torsions:
REMARK  status: ('A' for Active; 'I' for Inactive)
REMARK    1  A    between atoms: C_1  and  C_2
REMARK    2  A    between atoms: C_2  and  C_3
REMARK    3  A    between atoms: C_13  and  C_14
REMARK    4  A    between atoms: C_14  and  N_15
REMARK                            x       y       z     vdW  Elec       q    Type
REMARK                         _______ _______ _______ _____ _____    ______ ____
ROOT
ATOM      1  C   UNL     1       5.062   6.470  15.944  0.00  0.00    +0.000 C 
ATOM      2  C   UNL     1       5.219   5.097  16.632  0.00  0.00    +0.000 C 
ATOM      3  O   UNL     1       6.540   4.989  17.167  0.00  0.00    +0.000 OA
ATOM      4  C   UNL     1       7.366   4.534  16.090  0.00  0.00    +0.000 C 
ATOM      5  C   UNL     1       6.437   3.890  15.078  0.00  0.00    +0.000 C 
ATOM      6  O   UNL     1       5.124   4.123  15.579  0.00  0.00    +0.000 OA
ENDROOT
BRANCH   2   7
ATOM      7  C   UNL     1       4.157   4.803  17.692  0.00  0.00    +0.000 A 
ATOM      8  C   UNL     1       3.992   3.484  18.179  0.00  0.00    +0.000 A 
ATOM      9  C   UNL     1       2.934   3.129  19.022  0.00  0.00    +0.000 A 
ATOM     10  C   UNL     1       2.024   4.096  19.421  0.00  0.00    +0.000 A 
ATOM     11 CL   UNL     1       0.675   3.654  20.393  0.00  0.00    +0.000 Cl
ATOM     12  C   UNL     1       2.197   5.419  19.029  0.00  0.00    +0.000 A 
ATOM     13  C   UNL     1       3.260   5.773  18.184  0.00  0.00    +0.000 A 
ATOM     14 CL   UNL     1       3.390   7.454  17.792  0.00  0.00    +0.000 Cl
ENDBRANCH   2   7
BRANCH   5  15
ATOM     15  C   UNL     1       6.543   4.470  13.663  0.00  0.00    +0.000 C 
BRANCH  15  16
ATOM     16  N   UNL     1       5.988   3.572  12.657  0.00  0.00    +0.000 N 
ATOM     17  C   UNL     1       6.627   2.518  12.072  0.00  0.00    +0.000 A 
ATOM     18  C   UNL     1       5.677   1.946  11.245  0.00  0.00    +0.000 A 
ATOM     19  N   UNL     1       4.501   2.640  11.301  0.00  0.00    +0.000 NA
ATOM     20  C   UNL     1       4.719   3.626  12.148  0.00  0.00    +0.000 A 
ENDBRANCH  15  16
ENDBRANCH   5  15
TORSDOF 3
ENDMDL
MODEL 9
REMARK VINA RESULT:      -6.1      4.080      6.739
REMARK  Name = 
REMARK  4 active torsions:
REMARK  status: ('A' for Active; 'I' for Inactive)
REMARK    1  A    between atoms: C_1  and  C_2
REMARK    2  A    between atoms: C_2  and  C_3
REMARK    3  A    between atoms: C_13  and  C_14
REMARK    4  A    between atoms: C_14  and  N_15
REMARK                            x       y       z     vdW  Elec       q    Type
REMARK                         _______ _______ _______ _____ _____    ______ ____
ROOT
ATOM      1  C   UNL     1       1.445   4.877  17.958  0.00  0.00    +0.000 C 
ATOM      2  C   UNL     1       2.851   5.142  18.539  0.00  0.00    +0.000 C 
ATOM      3  O   UNL     1       3.062   4.282  19.662  0.00  0.00    +0.000 OA
ATOM      4  C   UNL     1       2.481   4.951  20.787  0.00  0.00    +0.000 C 
ATOM      5  C   UNL     1       2.389   6.418  20.413  0.00  0.00    +0.000 C 
ATOM      6  O   UNL     1       2.810   6.483  19.054  0.00  0.00    +0.000 OA
ENDROOT
BRANCH   2   7
ATOM      7  C   UNL     1       3.983   5.024  17.519  0.00  0.00    +0.000 A 
ATOM      8  C   UNL     1       4.598   6.193  17.010  0.00  0.00    +0.000 A 
ATOM      9  C   UNL     1       5.519   6.151  15.958  0.00  0.00    +0.000 A 
ATOM     10  C   UNL     1       5.870   4.929  15.405  0.00  0.00    +0.000 A 
ATOM     11 CL   UNL     1       6.942   4.874  14.061  0.00  0.00    +0.000 Cl
ATOM     12  C   UNL     1       5.349   3.752  15.930  0.00  0.00    +0.000 A 
ATOM     13  C   UNL     1       4.425   3.796  16.986  0.00  0.00    +0.000 A 
ATOM     14 CL   UNL     1       3.873   2.265  17.575  0.00  0.00    +0.000 Cl
ENDBRANCH   2   7
BRANCH   5  15
ATOM     15  C   UNL     1       0.981   7.012  20.530  0.00  0.00    +0.000 C 
BRANCH  15  16
ATOM     16  N   UNL     1       1.009   8.434  20.858  0.00  0.00    +0.000 N 
ATOM     17  C   UNL     1       0.791   9.468  19.996  0.00  0.00    +0.000 A 
ATOM     18  C   UNL     1       0.860  10.603  20.783  0.00  0.00    +0.000 A 
ATOM     19  N   UNL     1       1.136  10.279  22.082  0.00  0.00    +0.000 NA
ATOM     20  C   UNL     1       1.237   8.965  22.098  0.00  0.00    +0.000 A 
ENDBRANCH  15  16
ENDBRANCH   5  15
TORSDOF 3
ENDMDL
