MODEL 1
REMARK VINA RESULT:      -8.5      0.000      0.000
REMARK  Name = 
REMARK  5 active torsions:
REMARK  status: ('A' for Active; 'I' for Inactive)
REMARK    1  A    between atoms: C_1  and  N_2
REMARK    2  A    between atoms: C_6  and  C_7
REMARK    3  A    between atoms: N_9  and  S_10
REMARK    4  A    between atoms: S_10  and  C_13
REMARK    5  A    between atoms: C_18  and  N_19
REMARK                            x       y       z     vdW  Elec       q    Type
REMARK                         _______ _______ _______ _____ _____    ______ ____
ROOT
ATOM      1  C   UNL     1       2.440   6.632  19.787  0.00  0.00    +0.000 C 
ATOM      2  C   UNL     1       2.593   5.851  18.459  0.00  0.00    +0.000 C 
ATOM      3  N   UNL     1       3.171   4.488  18.678  0.00  0.00    +0.000 NA
ATOM      4  C   UNL     1       2.328   3.757  19.677  0.00  0.00    +0.000 C 
ATOM      5  C   UNL     1       2.138   4.582  20.957  0.00  0.00    +0.000 C 
ATOM      6  O   UNL     1       1.587   5.880  20.678  0.00  0.00    +0.000 OA
ENDROOT
BRANCH   1  12
ATOM      7  C   UNL     1      -0.412  10.225  21.507  0.00  0.00    +0.000 C 
ATOM      8  N   UNL     1       0.799  10.038  20.726  0.00  0.00    +0.000 NA
ATOM      9  C   UNL     1       0.808  10.738  19.450  0.00  0.00    +0.000 C 
ATOM     10  C   UNL     1       1.215   9.988  18.175  0.00  0.00    +0.000 C 
ATOM     11  C   UNL     1       1.809   8.635  18.371  0.00  0.00    +0.000 C 
ATOM     12  C   UNL     1       1.886   8.038  19.571  0.00  0.00    +0.000 C 
ATOM     13  C   UNL     1       1.343   8.695  20.816  0.00  0.00    +0.000 C 
ENDBRANCH   1  12
BRANCH   3  14
ATOM     14  S   UNL     1       4.840   4.335  18.902  0.00  0.00    +0.000 S 
ATOM     15  O   UNL     1       5.282   5.510  19.628  0.00  0.00    +0.000 OA
ATOM     16  O   UNL     1       5.107   3.018  19.424  0.00  0.00    +0.000 OA
BRANCH  14  17
ATOM     17  C   UNL     1       5.588   4.400  17.302  0.00  0.00    +0.000 A 
ATOM     18  C   UNL     1       4.840   3.972  16.192  0.00  0.00    +0.000 A 
ATOM     19  C   UNL     1       5.337   4.143  14.894  0.00  0.00    +0.000 A 
ATOM     20  C   UNL     1       6.569   4.761  14.688  0.00  0.00    +0.000 A 
ATOM     21  C   UNL     1       7.318   5.198  15.780  0.00  0.00    +0.000 A 
ATOM     22  C   UNL     1       6.822   5.007  17.080  0.00  0.00    +0.000 A 
BRANCH  22  23
ATOM     23  N   UNL     1       7.691   5.394  18.169  0.00  0.00    +0.000 N 
ATOM     24  O   UNL     1       8.323   4.483  18.718  0.00  0.00    +0.000 OA
ATOM     25  O   UNL     1       7.830   6.604  18.376  0.00  0.00    +0.000 OA
ENDBRANCH  22  23
ENDBRANCH  14  17
ENDBRANCH   3  14
TORSDOF 4
ENDMDL
MODEL 2
REMARK VINA RESULT:      -8.4      0.602      1.373
REMARK  Name = 
REMARK  5 active torsions:
REMARK  status: ('A' for Active; 'I' for Inactive)
REMARK    1  A    between atoms: C_1  and  N_2
REMARK    2  A    between atoms: C_6  and  C_7
REMARK    3  A    between atoms: N_9  and  S_10
REMARK    4  A    between atoms: S_10  and  C_13
REMARK    5  A    between atoms: C_18  and  N_19
REMARK                            x       y       z     vdW  Elec       q    Type
REMARK                         _______ _______ _______ _____ _____    ______ ____
ROOT
ATOM      1  C   UNL     1       2.318   6.377  20.142  0.00  0.00    +0.000 C 
ATOM      2  C   UNL     1       2.517   5.844  18.702  0.00  0.00    +0.000 C 
ATOM      3  N   UNL     1       3.170   4.499  18.691  0.00  0.00    +0.000 NA
ATOM      4  C   UNL     1       2.369   3.561  19.541  0.00  0.00    +0.000 C 
ATOM      5  C   UNL     1       2.131   4.143  20.941  0.00  0.00    +0.000 C 
ATOM      6  O   UNL     1       1.507   5.436  20.882  0.00  0.00    +0.000 OA
ENDROOT
BRANCH   1  12
ATOM      7  C   UNL     1       2.062  10.800  18.051  0.00  0.00    +0.000 C 
ATOM      8  N   UNL     1       1.226   9.856  18.774  0.00  0.00    +0.000 NA
ATOM      9  C   UNL     1       0.529  10.424  19.918  0.00  0.00    +0.000 C 
ATOM     10  C   UNL     1       0.569   9.698  21.269  0.00  0.00    +0.000 C 
ATOM     11  C   UNL     1       1.132   8.318  21.255  0.00  0.00    +0.000 C 
ATOM     12  C   UNL     1       1.686   7.766  20.164  0.00  0.00    +0.000 C 
ATOM     13  C   UNL     1       1.801   8.527  18.866  0.00  0.00    +0.000 C 
ENDBRANCH   1  12
BRANCH   3  14
ATOM     14  S   UNL     1       4.846   4.401  18.905  0.00  0.00    +0.000 S 
ATOM     15  O   UNL     1       5.256   5.601  19.609  0.00  0.00    +0.000 OA
ATOM     16  O   UNL     1       5.158   3.102  19.444  0.00  0.00    +0.000 OA
BRANCH  14  17
ATOM     17  C   UNL     1       5.579   4.466  17.298  0.00  0.00    +0.000 A 
ATOM     18  C   UNL     1       4.808   4.074  16.191  0.00  0.00    +0.000 A 
ATOM     19  C   UNL     1       5.297   4.246  14.890  0.00  0.00    +0.000 A 
ATOM     20  C   UNL     1       6.544   4.832  14.679  0.00  0.00    +0.000 A 
ATOM     21  C   UNL     1       7.317   5.234  15.768  0.00  0.00    +0.000 A 
ATOM     22  C   UNL     1       6.828   5.041  17.071  0.00  0.00    +0.000 A 
BRANCH  22  23
ATOM     23  N   UNL     1       7.718   5.389  18.155  0.00  0.00    +0.000 N 
ATOM     24  O   UNL     1       8.330   4.454  18.686  0.00  0.00    +0.000 OA
ATOM     25  O   UNL     1       7.892   6.591  18.377  0.00  0.00    +0.000 OA
ENDBRANCH  22  23
ENDBRANCH  14  17
ENDBRANCH   3  14
TORSDOF 4
ENDMDL
MODEL 3
REMARK VINA RESULT:      -8.0      2.575      7.456
REMARK  Name = 
REMARK  5 active torsions:
REMARK  status: ('A' for Active; 'I' for Inactive)
REMARK    1  A    between atoms: C_1  and  N_2
REMARK    2  A    between atoms: C_6  and  C_7
REMARK    3  A    between atoms: N_9  and  S_10
REMARK    4  A    between atoms: S_10  and  C_13
REMARK    5  A    between atoms: C_18  and  N_19
REMARK                            x       y       z     vdW  Elec       q    Type
REMARK                         _______ _______ _______ _____ _____    ______ ____
ROOT
ATOM      1  C   UNL     1       6.653   4.401  15.869  0.00  0.00    +0.000 C 
ATOM      2  C   UNL     1       5.646   5.448  16.404  0.00  0.00    +0.000 C 
ATOM      3  N   UNL     1       5.505   5.376  17.892  0.00  0.00    +0.000 NA
ATOM      4  C   UNL     1       6.860   5.514  18.517  0.00  0.00    +0.000 C 
ATOM      5  C   UNL     1       7.854   4.508  17.921  0.00  0.00    +0.000 C 
ATOM      6  O   UNL     1       7.938   4.625  16.491  0.00  0.00    +0.000 OA
ENDROOT
BRANCH   1  12
ATOM      7  C   UNL     1       5.837   2.091  11.626  0.00  0.00    +0.000 C 
ATOM      8  N   UNL     1       5.903   3.437  12.170  0.00  0.00    +0.000 NA
ATOM      9  C   UNL     1       6.781   4.340  11.440  0.00  0.00    +0.000 C 
ATOM     10  C   UNL     1       7.803   5.190  12.206  0.00  0.00    +0.000 C 
ATOM     11  C   UNL     1       7.661   5.207  13.690  0.00  0.00    +0.000 C 
ATOM     12  C   UNL     1       6.777   4.440  14.348  0.00  0.00    +0.000 C 
ATOM     13  C   UNL     1       5.873   3.476  13.620  0.00  0.00    +0.000 C 
ENDBRANCH   1  12
BRANCH   3  14
ATOM     14  S   UNL     1       4.529   4.168  18.563  0.00  0.00    +0.000 S 
ATOM     15  O   UNL     1       3.852   3.507  17.463  0.00  0.00    +0.000 OA
ATOM     16  O   UNL     1       5.327   3.403  19.487  0.00  0.00    +0.000 OA
BRANCH  14  17
ATOM     17  C   UNL     1       3.287   4.978  19.525  0.00  0.00    +0.000 A 
ATOM     18  C   UNL     1       3.139   6.370  19.397  0.00  0.00    +0.000 A 
ATOM     19  C   UNL     1       2.077   7.030  20.027  0.00  0.00    +0.000 A 
ATOM     20  C   UNL     1       1.141   6.310  20.768  0.00  0.00    +0.000 A 
ATOM     21  C   UNL     1       1.271   4.928  20.896  0.00  0.00    +0.000 A 
ATOM     22  C   UNL     1       2.349   4.274  20.277  0.00  0.00    +0.000 A 
BRANCH  22  23
ATOM     23  N   UNL     1       2.480   2.857  20.530  0.00  0.00    +0.000 N 
ATOM     24  O   UNL     1       3.021   2.536  21.595  0.00  0.00    +0.000 OA
ATOM     25  O   UNL     1       1.931   2.089  19.733  0.00  0.00    +0.000 OA
ENDBRANCH  22  23
ENDBRANCH  14  17
ENDBRANCH   3  14
TORSDOF 4
ENDMDL
MODEL 4
REMARK VINA RESULT:      -7.6      2.586      7.439
REMARK  Name = 
REMARK  5 active torsions:
REMARK  status: ('A' for Active; 'I' for Inactive)
REMARK    1  A    between atoms: C_1  and  N_2
REMARK    2  A    between atoms: C_6  and  C_7
REMARK    3  A    between atoms: N_9  and  S_10
REMARK    4  A    between atoms: S_10  and  C_13
REMARK    5  A    between atoms: C_18  and  N_19
REMARK                            x       y       z     vdW  Elec       q    Type
REMARK                         _______ _______ _______ _____ _____    ______ ____
ROOT
ATOM      1  C   UNL     1       6.535   4.212  15.853  0.00  0.00    +0.000 C 
ATOM      2  C   UNL     1       5.498   5.250  16.346  0.00  0.00    +0.000 C 
ATOM      3  N   UNL     1       5.437   5.310  17.840  0.00  0.00    +0.000 NA
ATOM      4  C   UNL     1       6.811   5.578  18.373  0.00  0.00    +0.000 C 
ATOM      5  C   UNL     1       7.830   4.574  17.816  0.00  0.00    +0.000 C 
ATOM      6  O   UNL     1       7.835   4.561  16.379  0.00  0.00    +0.000 OA
ENDROOT
BRANCH   1  12
ATOM      7  C   UNL     1       7.987   6.275  11.653  0.00  0.00    +0.000 C 
ATOM      8  N   UNL     1       7.762   4.961  12.233  0.00  0.00    +0.000 NA
ATOM      9  C   UNL     1       6.907   4.091  11.439  0.00  0.00    +0.000 C 
ATOM     10  C   UNL     1       5.747   3.346  12.113  0.00  0.00    +0.000 C 
ATOM     11  C   UNL     1       5.720   3.383  13.603  0.00  0.00    +0.000 C 
ATOM     12  C   UNL     1       6.579   4.115  14.330  0.00  0.00    +0.000 C 
ATOM     13  C   UNL     1       7.627   4.983  13.678  0.00  0.00    +0.000 C 
ENDBRANCH   1  12
BRANCH   3  14
ATOM     14  S   UNL     1       4.567   4.121  18.671  0.00  0.00    +0.000 S 
ATOM     15  O   UNL     1       3.904   3.303  17.674  0.00  0.00    +0.000 OA
ATOM     16  O   UNL     1       5.443   3.514  19.641  0.00  0.00    +0.000 OA
BRANCH  14  17
ATOM     17  C   UNL     1       3.302   4.949  19.588  0.00  0.00    +0.000 A 
ATOM     18  C   UNL     1       3.166   6.339  19.441  0.00  0.00    +0.000 A 
ATOM     19  C   UNL     1       2.089   7.012  20.033  0.00  0.00    +0.000 A 
ATOM     20  C   UNL     1       1.128   6.305  20.753  0.00  0.00    +0.000 A 
ATOM     21  C   UNL     1       1.246   4.923  20.899  0.00  0.00    +0.000 A 
ATOM     22  C   UNL     1       2.338   4.258  20.319  0.00  0.00    +0.000 A 
BRANCH  22  23
ATOM     23  N   UNL     1       2.453   2.842  20.590  0.00  0.00    +0.000 N 
ATOM     24  O   UNL     1       3.066   2.528  21.618  0.00  0.00    +0.000 OA
ATOM     25  O   UNL     1       1.827   2.074  19.853  0.00  0.00    +0.000 OA
ENDBRANCH  22  23
ENDBRANCH  14  17
ENDBRANCH   3  14
TORSDOF 4
ENDMDL
MODEL 5
REMARK VINA RESULT:      -7.3      3.003      7.274
REMARK  Name = 
REMARK  5 active torsions:
REMARK  status: ('A' for Active; 'I' for Inactive)
REMARK    1  A    between atoms: C_1  and  N_2
REMARK    2  A    between atoms: C_6  and  C_7
REMARK    3  A    between atoms: N_9  and  S_10
REMARK    4  A    between atoms: S_10  and  C_13
REMARK    5  A    between atoms: C_18  and  N_19
REMARK                            x       y       z     vdW  Elec       q    Type
REMARK                         _______ _______ _______ _____ _____    ______ ____
ROOT
ATOM      1  C   UNL     1       6.685   5.150  15.844  0.00  0.00    +0.000 C 
ATOM      2  C   UNL     1       5.257   5.433  16.372  0.00  0.00    +0.000 C 
ATOM      3  N   UNL     1       5.268   5.874  17.801  0.00  0.00    +0.000 NA
ATOM      4  C   UNL     1       6.173   7.060  17.938  0.00  0.00    +0.000 C 
ATOM      5  C   UNL     1       7.561   6.773  17.348  0.00  0.00    +0.000 C 
ATOM      6  O   UNL     1       7.480   6.350  15.977  0.00  0.00    +0.000 OA
ENDROOT
BRANCH   1  12
ATOM      7  C   UNL     1       7.887   6.110  11.192  0.00  0.00    +0.000 C 
ATOM      8  N   UNL     1       7.749   4.984  12.101  0.00  0.00    +0.000 NA
ATOM      9  C   UNL     1       6.913   3.904  11.598  0.00  0.00    +0.000 C 
ATOM     10  C   UNL     1       5.815   3.314  12.493  0.00  0.00    +0.000 C 
ATOM     11  C   UNL     1       5.837   3.735  13.923  0.00  0.00    +0.000 C 
ATOM     12  C   UNL     1       6.682   4.664  14.397  0.00  0.00    +0.000 C 
ATOM     13  C   UNL     1       7.662   5.374  13.496  0.00  0.00    +0.000 C 
ENDBRANCH   1  12
BRANCH   3  14
ATOM     14  S   UNL     1       5.431   4.707  19.015  0.00  0.00    +0.000 S 
ATOM     15  O   UNL     1       5.768   3.457  18.362  0.00  0.00    +0.000 OA
ATOM     16  O   UNL     1       6.287   5.241  20.044  0.00  0.00    +0.000 OA
BRANCH  14  17
ATOM     17  C   UNL     1       3.838   4.496  19.750  0.00  0.00    +0.000 A 
ATOM     18  C   UNL     1       2.993   5.614  19.856  0.00  0.00    +0.000 A 
ATOM     19  C   UNL     1       1.672   5.464  20.296  0.00  0.00    +0.000 A 
ATOM     20  C   UNL     1       1.173   4.201  20.610  0.00  0.00    +0.000 A 
ATOM     21  C   UNL     1       1.998   3.082  20.501  0.00  0.00    +0.000 A 
ATOM     22  C   UNL     1       3.327   3.241  20.077  0.00  0.00    +0.000 A 
BRANCH  22  23
ATOM     23  N   UNL     1       4.155   2.056  20.079  0.00  0.00    +0.000 N 
ATOM     24  O   UNL     1       4.867   1.885  21.077  0.00  0.00    +0.000 OA
ATOM     25  O   UNL     1       3.992   1.253  19.156  0.00  0.00    +0.000 OA
ENDBRANCH  22  23
ENDBRANCH  14  17
ENDBRANCH   3  14
TORSDOF 4
ENDMDL
MODEL 6
REMARK VINA RESULT:      -7.2      3.331      7.375
REMARK  Name = 
REMARK  5 active torsions:
REMARK  status: ('A' for Active; 'I' for Inactive)
REMARK    1  A    between atoms: C_1  and  N_2
REMARK    2  A    between atoms: C_6  and  C_7
REMARK    3  A    between atoms: N_9  and  S_10
REMARK    4  A    between atoms: S_10  and  C_13
REMARK    5  A    between atoms: C_18  and  N_19
REMARK                            x       y       z     vdW  Elec       q    Type
REMARK                         _______ _______ _______ _____ _____    ______ ____
ROOT
ATOM      1  C   UNL     1       6.465   4.426  16.092  0.00  0.00    +0.000 C 
ATOM      2  C   UNL     1       4.991   4.762  16.422  0.00  0.00    +0.000 C 
ATOM      3  N   UNL     1       4.701   4.622  17.883  0.00  0.00    +0.000 NA
ATOM      4  C   UNL     1       5.666   5.469  18.655  0.00  0.00    +0.000 C 
ATOM      5  C   UNL     1       7.117   5.160  18.259  0.00  0.00    +0.000 C 
ATOM      6  O   UNL     1       7.327   5.307  16.845  0.00  0.00    +0.000 OA
ENDROOT
BRANCH   1  12
ATOM      7  C   UNL     1       6.168   2.289  11.693  0.00  0.00    +0.000 C 
ATOM      8  N   UNL     1       6.156   3.612  12.295  0.00  0.00    +0.000 NA
ATOM      9  C   UNL     1       7.102   4.549  11.709  0.00  0.00    +0.000 C 
ATOM     10  C   UNL     1       8.020   5.374  12.622  0.00  0.00    +0.000 C 
ATOM     11  C   UNL     1       7.708   5.328  14.078  0.00  0.00    +0.000 C 
ATOM     12  C   UNL     1       6.763   4.529  14.598  0.00  0.00    +0.000 C 
ATOM     13  C   UNL     1       5.959   3.591  13.733  0.00  0.00    +0.000 C 
ENDBRANCH   1  12
BRANCH   3  14
ATOM     14  S   UNL     1       4.439   3.076  18.520  0.00  0.00    +0.000 S 
ATOM     15  O   UNL     1       4.061   2.218  17.414  0.00  0.00    +0.000 OA
ATOM     16  O   UNL     1       5.564   2.733  19.352  0.00  0.00    +0.000 OA
BRANCH  14  17
ATOM     17  C   UNL     1       3.039   3.188  19.594  0.00  0.00    +0.000 A 
ATOM     18  C   UNL     1       3.101   2.556  20.847  0.00  0.00    +0.000 A 
ATOM     19  C   UNL     1       2.077   2.740  21.785  0.00  0.00    +0.000 A 
ATOM     20  C   UNL     1       0.997   3.572  21.494  0.00  0.00    +0.000 A 
ATOM     21  C   UNL     1       0.927   4.213  20.257  0.00  0.00    +0.000 A 
ATOM     22  C   UNL     1       1.948   4.009  19.314  0.00  0.00    +0.000 A 
BRANCH  22  23
ATOM     23  N   UNL     1       1.766   4.623  18.018  0.00  0.00    +0.000 N 
ATOM     24  O   UNL     1       1.267   3.911  17.138  0.00  0.00    +0.000 OA
ATOM     25  O   UNL     1       2.000   5.833  17.930  0.00  0.00    +0.000 OA
ENDBRANCH  22  23
ENDBRANCH  14  17
ENDBRANCH   3  14
TORSDOF 4
ENDMDL
MODEL 7
REMARK VINA RESULT:      -7.2      2.719      7.450
REMARK  Name = 
REMARK  5 active torsions:
REMARK  status: ('A' for Active; 'I' for Inactive)
REMARK    1  A    between atoms: C_1  and  N_2
REMARK    2  A    between atoms: C_6  and  C_7
REMARK    3  A    between atoms: N_9  and  S_10
REMARK    4  A    between atoms: S_10  and  C_13
REMARK    5  A    between atoms: C_18  and  N_19
REMARK                            x       y       z     vdW  Elec       q    Type
REMARK                         _______ _______ _______ _____ _____    ______ ____
ROOT
ATOM      1  C   UNL     1       6.674   5.034  15.555  0.00  0.00    +0.000 C 
ATOM      2  C   UNL     1       5.261   5.551  15.916  0.00  0.00    +0.000 C 
ATOM      3  N   UNL     1       5.101   5.756  17.389  0.00  0.00    +0.000 NA
ATOM      4  C   UNL     1       6.185   6.670  17.874  0.00  0.00    +0.000 C 
ATOM      5  C   UNL     1       7.571   6.167  17.446  0.00  0.00    +0.000 C 
ATOM      6  O   UNL     1       7.656   5.986  16.023  0.00  0.00    +0.000 OA
ENDROOT
BRANCH   1  12
ATOM      7  C   UNL     1       5.863   2.009  11.787  0.00  0.00    +0.000 C 
ATOM      8  N   UNL     1       5.973   3.429  12.076  0.00  0.00    +0.000 NA
ATOM      9  C   UNL     1       6.906   4.147  11.220  0.00  0.00    +0.000 C 
ATOM     10  C   UNL     1       7.944   5.086  11.848  0.00  0.00    +0.000 C 
ATOM     11  C   UNL     1       7.768   5.383  13.297  0.00  0.00    +0.000 C 
ATOM     12  C   UNL     1       6.836   4.786  14.057  0.00  0.00    +0.000 C 
ATOM     13  C   UNL     1       5.910   3.737  13.492  0.00  0.00    +0.000 C 
ENDBRANCH   1  12
BRANCH   3  14
ATOM     14  S   UNL     1       4.806   4.413  18.374  0.00  0.00    +0.000 S 
ATOM     15  O   UNL     1       4.364   3.338  17.507  0.00  0.00    +0.000 OA
ATOM     16  O   UNL     1       5.944   4.226  19.238  0.00  0.00    +0.000 OA
BRANCH  14  17
ATOM     17  C   UNL     1       3.444   4.827  19.422  0.00  0.00    +0.000 A 
ATOM     18  C   UNL     1       3.049   6.173  19.511  0.00  0.00    +0.000 A 
ATOM     19  C   UNL     1       1.889   6.525  20.212  0.00  0.00    +0.000 A 
ATOM     20  C   UNL     1       1.101   5.543  20.808  0.00  0.00    +0.000 A 
ATOM     21  C   UNL     1       1.476   4.203  20.720  0.00  0.00    +0.000 A 
ATOM     22  C   UNL     1       2.651   3.858  20.032  0.00  0.00    +0.000 A 
BRANCH  22  23
ATOM     23  N   UNL     1       3.034   2.464  20.062  0.00  0.00    +0.000 N 
ATOM     24  O   UNL     1       2.456   1.718  19.261  0.00  0.00    +0.000 OA
ATOM     25  O   UNL     1       3.987   2.156  20.784  0.00  0.00    +0.000 OA
ENDBRANCH  22  23
ENDBRANCH  14  17
ENDBRANCH   3  14
TORSDOF 4
ENDMDL
MODEL 8
REMARK VINA RESULT:      -7.1      0.987      1.299
REMARK  Name = 
REMARK  5 active torsions:
REMARK  status: ('A' for Active; 'I' for Inactive)
REMARK    1  A    between atoms: C_1  and  N_2
REMARK    2  A    between atoms: C_6  and  C_7
REMARK    3  A    between atoms: N_9  and  S_10
REMARK    4  A    between atoms: S_10  and  C_13
REMARK    5  A    between atoms: C_18  and  N_19
REMARK                            x       y       z     vdW  Elec       q    Type
REMARK                         _______ _______ _______ _____ _____    ______ ____
ROOT
ATOM      1  C   UNL     1       2.154   7.204  20.057  0.00  0.00    +0.000 C 
ATOM      2  C   UNL     1       2.321   6.930  18.542  0.00  0.00    +0.000 C 
ATOM      3  N   UNL     1       3.035   5.641  18.284  0.00  0.00    +0.000 NA
ATOM      4  C   UNL     1       2.311   4.534  18.988  0.00  0.00    +0.000 C 
ATOM      5  C   UNL     1       2.101   4.861  20.473  0.00  0.00    +0.000 C 
ATOM      6  O   UNL     1       1.417   6.112  20.652  0.00  0.00    +0.000 OA
ENDROOT
BRANCH   1  12
ATOM      7  C   UNL     1      -0.437   9.901  23.222  0.00  0.00    +0.000 C 
ATOM      8  N   UNL     1       0.551  10.058  22.167  0.00  0.00    +0.000 NA
ATOM      9  C   UNL     1       0.187  11.023  21.140  0.00  0.00    +0.000 C 
ATOM     10  C   UNL     1       0.316  10.642  19.659  0.00  0.00    +0.000 C 
ATOM     11  C   UNL     1       1.041   9.372  19.370  0.00  0.00    +0.000 C 
ATOM     12  C   UNL     1       1.460   8.535  20.332  0.00  0.00    +0.000 C 
ATOM     13  C   UNL     1       1.198   8.815  21.792  0.00  0.00    +0.000 C 
ENDBRANCH   1  12
BRANCH   3  14
ATOM     14  S   UNL     1       4.720   5.597  18.427  0.00  0.00    +0.000 S 
ATOM     15  O   UNL     1       5.180   6.971  18.472  0.00  0.00    +0.000 OA
ATOM     16  O   UNL     1       5.060   4.683  19.488  0.00  0.00    +0.000 OA
BRANCH  14  17
ATOM     17  C   UNL     1       5.349   4.887  16.935  0.00  0.00    +0.000 A 
ATOM     18  C   UNL     1       4.436   4.440  15.966  0.00  0.00    +0.000 A 
ATOM     19  C   UNL     1       4.887   4.007  14.713  0.00  0.00    +0.000 A 
ATOM     20  C   UNL     1       6.246   4.038  14.405  0.00  0.00    +0.000 A 
ATOM     21  C   UNL     1       7.163   4.489  15.355  0.00  0.00    +0.000 A 
ATOM     22  C   UNL     1       6.705   4.904  16.616  0.00  0.00    +0.000 A 
BRANCH  22  23
ATOM     23  N   UNL     1       7.715   5.266  17.585  0.00  0.00    +0.000 N 
ATOM     24  O   UNL     1       8.002   6.467  17.657  0.00  0.00    +0.000 OA
ATOM     25  O   UNL     1       8.112   4.376  18.344  0.00  0.00    +0.000 OA
ENDBRANCH  22  23
ENDBRANCH  14  17
ENDBRANCH   3  14
TORSDOF 4
ENDMDL
MODEL 9
REMARK VINA RESULT:      -7.0      3.456      7.403
REMARK  Name = 
REMARK  5 active torsions:
REMARK  status: ('A' for Active; 'I' for Inactive)
REMARK    1  A    between atoms: C_1  and  N_2
REMARK    2  A    between atoms: C_6  and  C_7
REMARK    3  A    between atoms: N_9  and  S_10
REMARK    4  A    between atoms: S_10  and  C_13
REMARK    5  A    between atoms: C_18  and  N_19
REMARK                            x       y       z     vdW  Elec       q    Type
REMARK                         _______ _______ _______ _____ _____    ______ ____
ROOT
ATOM      1  C   UNL     1       6.122   4.888  15.890  0.00  0.00    +0.000 C 
ATOM      2  C   UNL     1       4.623   4.568  16.109  0.00  0.00    +0.000 C 
ATOM      3  N   UNL     1       4.238   4.658  17.551  0.00  0.00    +0.000 NA
ATOM      4  C   UNL     1       4.615   6.012  18.072  0.00  0.00    +0.000 C 
ATOM      5  C   UNL     1       6.089   6.329  17.784  0.00  0.00    +0.000 C 
ATOM      6  O   UNL     1       6.394   6.219  16.384  0.00  0.00    +0.000 OA
ENDROOT
BRANCH   1  12
ATOM      7  C   UNL     1       5.963   2.194  11.801  0.00  0.00    +0.000 C 
ATOM      8  N   UNL     1       6.020   3.584  12.221  0.00  0.00    +0.000 NA
ATOM      9  C   UNL     1       7.082   4.359  11.597  0.00  0.00    +0.000 C 
ATOM     10  C   UNL     1       7.998   5.231  12.466  0.00  0.00    +0.000 C 
ATOM     11  C   UNL     1       7.579   5.410  13.886  0.00  0.00    +0.000 C 
ATOM     12  C   UNL     1       6.534   4.763  14.426  0.00  0.00    +0.000 C 
ATOM     13  C   UNL     1       5.719   3.776  13.628  0.00  0.00    +0.000 C 
ENDBRANCH   1  12
BRANCH   3  14
ATOM     14  S   UNL     1       4.612   3.368  18.579  0.00  0.00    +0.000 S 
ATOM     15  O   UNL     1       4.761   2.190  17.747  0.00  0.00    +0.000 OA
ATOM     16  O   UNL     1       5.683   3.780  19.451  0.00  0.00    +0.000 OA
BRANCH  14  17
ATOM     17  C   UNL     1       3.202   3.101  19.611  0.00  0.00    +0.000 A 
ATOM     18  C   UNL     1       3.399   2.950  20.994  0.00  0.00    +0.000 A 
ATOM     19  C   UNL     1       2.303   2.883  21.863  0.00  0.00    +0.000 A 
ATOM     20  C   UNL     1       1.005   2.990  21.368  0.00  0.00    +0.000 A 
ATOM     21  C   UNL     1       0.794   3.149  19.998  0.00  0.00    +0.000 A 
ATOM     22  C   UNL     1       1.897   3.197  19.130  0.00  0.00    +0.000 A 
BRANCH  22  23
ATOM     23  N   UNL     1       1.607   3.265  17.716  0.00  0.00    +0.000 N 
ATOM     24  O   UNL     1       1.184   4.348  17.293  0.00  0.00    +0.000 OA
ATOM     25  O   UNL     1       1.922   2.289  17.028  0.00  0.00    +0.000 OA
ENDBRANCH  22  23
ENDBRANCH  14  17
ENDBRANCH   3  14
TORSDOF 4
ENDMDL
