MODEL 1
REMARK VINA RESULT:      -7.8      0.000      0.000
REMARK  Name = 
REMARK  10 active torsions:
REMARK  status: ('A' for Active; 'I' for Inactive)
REMARK    1  A    between atoms: C_1  and  O_2
REMARK    2  A    between atoms: O_2  and  C_3
REMARK    3  A    between atoms: C_5  and  C_6
REMARK    4  A    between atoms: C_7  and  C_8
REMARK    5  A    between atoms: N_10  and  C_11
REMARK    6  A    between atoms: C_11  and  C_12
REMARK    7  A    between atoms: C_15  and  O_16
REMARK    8  A    between atoms: C_17  and  O_18
REMARK    9  A    between atoms: O_18  and  C_19
REMARK   10  A    between atoms: C_23  and  O_24
REMARK                            x       y       z     vdW  Elec       q    Type
REMARK                         _______ _______ _______ _____ _____    ______ ____
ROOT
ATOM      1  C   UNL     1       7.555   6.816  17.891  0.00  0.00    +0.000 C 
ATOM      2  O   UNL     1       7.704   5.645  18.211  0.00  0.00    +0.000 OA
ATOM      3  N   UNL     1       6.695   7.253  16.908  0.00  0.00    +0.000 N 
ATOM      4  H   UNL     1       6.623   8.237  16.694  0.00  0.00    +0.000 HD
ENDROOT
BRANCH   1   6
ATOM      5  C   UNL     1       8.271   9.177  18.042  0.00  0.00    +0.000 C 
ATOM      6  C   UNL     1       8.299   7.928  18.540  0.00  0.00    +0.000 C 
BRANCH   5   9
ATOM      7  C   UNL     1      10.039  12.526  18.375  0.00  0.00    +0.000 A 
ATOM      8  C   UNL     1       9.348  11.418  17.846  0.00  0.00    +0.000 A 
ATOM      9  C   UNL     1       8.993  10.319  18.642  0.00  0.00    +0.000 A 
ATOM     10  C   UNL     1       9.302  10.365  20.006  0.00  0.00    +0.000 A 
ATOM     11  C   UNL     1       9.990  11.454  20.547  0.00  0.00    +0.000 A 
ATOM     12  C   UNL     1      10.365  12.527  19.735  0.00  0.00    +0.000 A 
BRANCH   7  14
ATOM     13  C   UNL     1      11.486  13.352  16.652  0.00  0.00    +0.000 C 
ATOM     14  O   UNL     1      10.311  13.491  17.440  0.00  0.00    +0.000 OA
ENDBRANCH   7  14
BRANCH  12  15
ATOM     15  O   UNL     1      11.047  13.561  20.313  0.00  0.00    +0.000 OA
ATOM     16  H   UNL     1      11.755  13.852  19.715  0.00  0.00    +0.000 HD
ENDBRANCH  12  15
ENDBRANCH   5   9
ENDBRANCH   1   6
BRANCH   3  17
ATOM     17  C   UNL     1       5.888   6.348  16.115  0.00  0.00    +0.000 C 
BRANCH  17  18
ATOM     18  C   UNL     1       4.678   5.858  16.876  0.00  0.00    +0.000 A 
ATOM     19  C   UNL     1       3.943   6.740  17.675  0.00  0.00    +0.000 A 
ATOM     20  C   UNL     1       2.857   6.282  18.423  0.00  0.00    +0.000 A 
ATOM     21  C   UNL     1       2.491   4.933  18.389  0.00  0.00    +0.000 A 
ATOM     22  C   UNL     1       3.206   4.029  17.598  0.00  0.00    +0.000 A 
ATOM     23  C   UNL     1       4.295   4.506  16.846  0.00  0.00    +0.000 A 
BRANCH  21  24
ATOM     24  O   UNL     1       1.427   4.535  19.151  0.00  0.00    +0.000 OA
ATOM     25  H   UNL     1       0.801   4.048  18.592  0.00  0.00    +0.000 HD
ENDBRANCH  21  24
BRANCH  22  26
ATOM     26  O   UNL     1       2.998   2.683  17.446  0.00  0.00    +0.000 OA
ATOM     27  C   UNL     1       3.474   1.808  18.460  0.00  0.00    +0.000 C 
ENDBRANCH  22  26
ENDBRANCH  17  18
ENDBRANCH   3  17
TORSDOF 8
ENDMDL
MODEL 2
REMARK VINA RESULT:      -7.7      5.389      9.042
REMARK  Name = 
REMARK  10 active torsions:
REMARK  status: ('A' for Active; 'I' for Inactive)
REMARK    1  A    between atoms: C_1  and  O_2
REMARK    2  A    between atoms: O_2  and  C_3
REMARK    3  A    between atoms: C_5  and  C_6
REMARK    4  A    between atoms: C_7  and  C_8
REMARK    5  A    between atoms: N_10  and  C_11
REMARK    6  A    between atoms: C_11  and  C_12
REMARK    7  A    between atoms: C_15  and  O_16
REMARK    8  A    between atoms: C_17  and  O_18
REMARK    9  A    between atoms: O_18  and  C_19
REMARK   10  A    between atoms: C_23  and  O_24
REMARK                            x       y       z     vdW  Elec       q    Type
REMARK                         _______ _______ _______ _____ _____    ______ ____
ROOT
ATOM      1  C   UNL     1       1.801   9.619  18.014  0.00  0.00    +0.000 C 
ATOM      2  O   UNL     1       2.304  10.647  17.581  0.00  0.00    +0.000 OA
ATOM      3  N   UNL     1       0.666   9.571  18.791  0.00  0.00    +0.000 N 
ATOM      4  H   UNL     1       0.306   8.685  19.115  0.00  0.00    +0.000 HD
ENDROOT
BRANCH   1   6
ATOM      5  C   UNL     1       2.218   7.257  18.613  0.00  0.00    +0.000 C 
ATOM      6  C   UNL     1       2.370   8.270  17.742  0.00  0.00    +0.000 C 
BRANCH   5   9
ATOM      7  C   UNL     1       4.635   4.322  18.611  0.00  0.00    +0.000 A 
ATOM      8  C   UNL     1       4.074   5.600  18.800  0.00  0.00    +0.000 A 
ATOM      9  C   UNL     1       2.763   5.900  18.398  0.00  0.00    +0.000 A 
ATOM     10  C   UNL     1       1.994   4.873  17.840  0.00  0.00    +0.000 A 
ATOM     11  C   UNL     1       2.535   3.600  17.643  0.00  0.00    +0.000 A 
ATOM     12  C   UNL     1       3.852   3.326  18.019  0.00  0.00    +0.000 A 
BRANCH   7  14
ATOM     13  C   UNL     1       6.669   5.430  19.224  0.00  0.00    +0.000 C 
ATOM     14  O   UNL     1       5.929   4.228  19.053  0.00  0.00    +0.000 OA
ENDBRANCH   7  14
BRANCH  12  15
ATOM     15  O   UNL     1       4.336   2.068  17.792  0.00  0.00    +0.000 OA
ATOM     16  H   UNL     1       5.301   2.108  17.695  0.00  0.00    +0.000 HD
ENDBRANCH  12  15
ENDBRANCH   5   9
ENDBRANCH   1   6
BRANCH   3  17
ATOM     17  C   UNL     1      -0.045  10.762  19.212  0.00  0.00    +0.000 C 
BRANCH  17  18
ATOM     18  C   UNL     1      -1.385  10.889  18.528  0.00  0.00    +0.000 A 
ATOM     19  C   UNL     1      -2.387  11.691  19.084  0.00  0.00    +0.000 A 
ATOM     20  C   UNL     1      -3.646  11.770  18.486  0.00  0.00    +0.000 A 
ATOM     21  C   UNL     1      -3.926  11.045  17.324  0.00  0.00    +0.000 A 
ATOM     22  C   UNL     1      -2.944  10.236  16.745  0.00  0.00    +0.000 A 
ATOM     23  C   UNL     1      -1.678  10.170  17.357  0.00  0.00    +0.000 A 
BRANCH  21  24
ATOM     24  O   UNL     1      -5.180  11.148  16.787  0.00  0.00    +0.000 OA
ATOM     25  H   UNL     1      -5.135  11.680  15.976  0.00  0.00    +0.000 HD
ENDBRANCH  21  24
BRANCH  22  26
ATOM     26  O   UNL     1      -3.038   9.457  15.621  0.00  0.00    +0.000 OA
ATOM     27  C   UNL     1      -3.047  10.100  14.354  0.00  0.00    +0.000 C 
ENDBRANCH  22  26
ENDBRANCH  17  18
ENDBRANCH   3  17
TORSDOF 8
ENDMDL
MODEL 3
REMARK VINA RESULT:      -7.6      1.009      1.785
REMARK  Name = 
REMARK  10 active torsions:
REMARK  status: ('A' for Active; 'I' for Inactive)
REMARK    1  A    between atoms: C_1  and  O_2
REMARK    2  A    between atoms: O_2  and  C_3
REMARK    3  A    between atoms: C_5  and  C_6
REMARK    4  A    between atoms: C_7  and  C_8
REMARK    5  A    between atoms: N_10  and  C_11
REMARK    6  A    between atoms: C_11  and  C_12
REMARK    7  A    between atoms: C_15  and  O_16
REMARK    8  A    between atoms: C_17  and  O_18
REMARK    9  A    between atoms: O_18  and  C_19
REMARK   10  A    between atoms: C_23  and  O_24
REMARK                            x       y       z     vdW  Elec       q    Type
REMARK                         _______ _______ _______ _____ _____    ______ ____
ROOT
ATOM      1  C   UNL     1       7.304   6.889  17.411  0.00  0.00    +0.000 C 
ATOM      2  O   UNL     1       7.733   5.772  17.156  0.00  0.00    +0.000 OA
ATOM      3  N   UNL     1       6.048   7.339  17.071  0.00  0.00    +0.000 N 
ATOM      4  H   UNL     1       5.759   8.276  17.313  0.00  0.00    +0.000 HD
ENDROOT
BRANCH   1   6
ATOM      5  C   UNL     1       8.095   9.204  17.764  0.00  0.00    +0.000 C 
ATOM      6  C   UNL     1       8.105   7.912  18.136  0.00  0.00    +0.000 C 
BRANCH   5   9
ATOM      7  C   UNL     1       9.966  12.461  18.354  0.00  0.00    +0.000 A 
ATOM      8  C   UNL     1       9.223  11.429  17.747  0.00  0.00    +0.000 A 
ATOM      9  C   UNL     1       8.873  10.261  18.443  0.00  0.00    +0.000 A 
ATOM     10  C   UNL     1       9.242  10.161  19.789  0.00  0.00    +0.000 A 
ATOM     11  C   UNL     1       9.982  11.173  20.405  0.00  0.00    +0.000 A 
ATOM     12  C   UNL     1      10.350  12.315  19.691  0.00  0.00    +0.000 A 
BRANCH   7  14
ATOM     13  C   UNL     1      11.389  13.452  16.699  0.00  0.00    +0.000 C 
ATOM     14  O   UNL     1      10.222  13.510  17.511  0.00  0.00    +0.000 OA
ENDBRANCH   7  14
BRANCH  12  15
ATOM     15  O   UNL     1      11.085  13.269  20.338  0.00  0.00    +0.000 OA
ATOM     16  H   UNL     1      11.815  13.554  19.766  0.00  0.00    +0.000 HD
ENDBRANCH  12  15
ENDBRANCH   5   9
ENDBRANCH   1   6
BRANCH   3  17
ATOM     17  C   UNL     1       5.100   6.530  16.332  0.00  0.00    +0.000 C 
BRANCH  17  18
ATOM     18  C   UNL     1       4.551   5.399  17.169  0.00  0.00    +0.000 A 
ATOM     19  C   UNL     1       4.516   4.097  16.659  0.00  0.00    +0.000 A 
ATOM     20  C   UNL     1       3.961   3.057  17.407  0.00  0.00    +0.000 A 
ATOM     21  C   UNL     1       3.426   3.302  18.675  0.00  0.00    +0.000 A 
ATOM     22  C   UNL     1       3.448   4.593  19.211  0.00  0.00    +0.000 A 
ATOM     23  C   UNL     1       4.015   5.630  18.447  0.00  0.00    +0.000 A 
BRANCH  21  24
ATOM     24  O   UNL     1       2.882   2.249  19.359  0.00  0.00    +0.000 OA
ATOM     25  H   UNL     1       2.788   1.494  18.756  0.00  0.00    +0.000 HD
ENDBRANCH  21  24
BRANCH  22  26
ATOM     26  O   UNL     1       2.970   5.019  20.423  0.00  0.00    +0.000 OA
ATOM     27  C   UNL     1       1.568   5.207  20.566  0.00  0.00    +0.000 C 
ENDBRANCH  22  26
ENDBRANCH  17  18
ENDBRANCH   3  17
TORSDOF 8
ENDMDL
MODEL 4
REMARK VINA RESULT:      -7.6      1.179      2.790
REMARK  Name = 
REMARK  10 active torsions:
REMARK  status: ('A' for Active; 'I' for Inactive)
REMARK    1  A    between atoms: C_1  and  O_2
REMARK    2  A    between atoms: O_2  and  C_3
REMARK    3  A    between atoms: C_5  and  C_6
REMARK    4  A    between atoms: C_7  and  C_8
REMARK    5  A    between atoms: N_10  and  C_11
REMARK    6  A    between atoms: C_11  and  C_12
REMARK    7  A    between atoms: C_15  and  O_16
REMARK    8  A    between atoms: C_17  and  O_18
REMARK    9  A    between atoms: O_18  and  C_19
REMARK   10  A    between atoms: C_23  and  O_24
REMARK                            x       y       z     vdW  Elec       q    Type
REMARK                         _______ _______ _______ _____ _____    ______ ____
ROOT
ATOM      1  C   UNL     1       7.584   7.227  17.657  0.00  0.00    +0.000 C 
ATOM      2  O   UNL     1       7.946   6.353  18.432  0.00  0.00    +0.000 OA
ATOM      3  N   UNL     1       6.794   7.011  16.550  0.00  0.00    +0.000 N 
ATOM      4  H   UNL     1       6.533   7.781  15.951  0.00  0.00    +0.000 HD
ENDROOT
BRANCH   1   6
ATOM      5  C   UNL     1       8.827   9.048  18.775  0.00  0.00    +0.000 C 
ATOM      6  C   UNL     1       7.961   8.657  17.824  0.00  0.00    +0.000 C 
BRANCH   5   9
ATOM      7  C   UNL     1       9.716  12.293  20.545  0.00  0.00    +0.000 A 
ATOM      8  C   UNL     1       9.335  10.960  20.294  0.00  0.00    +0.000 A 
ATOM      9  C   UNL     1       9.234  10.452  18.990  0.00  0.00    +0.000 A 
ATOM     10  C   UNL     1       9.571  11.297  17.926  0.00  0.00    +0.000 A 
ATOM     11  C   UNL     1       9.948  12.622  18.157  0.00  0.00    +0.000 A 
ATOM     12  C   UNL     1      10.014  13.122  19.459  0.00  0.00    +0.000 A 
BRANCH   7  14
ATOM     13  C   UNL     1       8.630  12.229  22.681  0.00  0.00    +0.000 C 
ATOM     14  O   UNL     1       9.742  12.606  21.879  0.00  0.00    +0.000 OA
ENDBRANCH   7  14
BRANCH  12  15
ATOM     15  O   UNL     1      10.375  14.430  19.627  0.00  0.00    +0.000 OA
ATOM     16  H   UNL     1      11.196  14.601  19.139  0.00  0.00    +0.000 HD
ENDBRANCH  12  15
ENDBRANCH   5   9
ENDBRANCH   1   6
BRANCH   3  17
ATOM     17  C   UNL     1       6.330   5.693  16.165  0.00  0.00    +0.000 C 
BRANCH  17  18
ATOM     18  C   UNL     1       5.021   5.340  16.831  0.00  0.00    +0.000 A 
ATOM     19  C   UNL     1       4.534   4.030  16.779  0.00  0.00    +0.000 A 
ATOM     20  C   UNL     1       3.299   3.709  17.346  0.00  0.00    +0.000 A 
ATOM     21  C   UNL     1       2.528   4.693  17.970  0.00  0.00    +0.000 A 
ATOM     22  C   UNL     1       2.990   6.011  18.040  0.00  0.00    +0.000 A 
ATOM     23  C   UNL     1       4.239   6.319  17.468  0.00  0.00    +0.000 A 
BRANCH  21  24
ATOM     24  O   UNL     1       1.320   4.327  18.498  0.00  0.00    +0.000 OA
ATOM     25  H   UNL     1       0.862   3.748  17.868  0.00  0.00    +0.000 HD
ENDBRANCH  21  24
BRANCH  22  26
ATOM     26  O   UNL     1       2.375   7.099  18.602  0.00  0.00    +0.000 OA
ATOM     27  C   UNL     1       2.401   8.330  17.891  0.00  0.00    +0.000 C 
ENDBRANCH  22  26
ENDBRANCH  17  18
ENDBRANCH   3  17
TORSDOF 8
ENDMDL
MODEL 5
REMARK VINA RESULT:      -7.6      0.771      1.994
REMARK  Name = 
REMARK  10 active torsions:
REMARK  status: ('A' for Active; 'I' for Inactive)
REMARK    1  A    between atoms: C_1  and  O_2
REMARK    2  A    between atoms: O_2  and  C_3
REMARK    3  A    between atoms: C_5  and  C_6
REMARK    4  A    between atoms: C_7  and  C_8
REMARK    5  A    between atoms: N_10  and  C_11
REMARK    6  A    between atoms: C_11  and  C_12
REMARK    7  A    between atoms: C_15  and  O_16
REMARK    8  A    between atoms: C_17  and  O_18
REMARK    9  A    between atoms: O_18  and  C_19
REMARK   10  A    between atoms: C_23  and  O_24
REMARK                            x       y       z     vdW  Elec       q    Type
REMARK                         _______ _______ _______ _____ _____    ______ ____
ROOT
ATOM      1  C   UNL     1       7.609   6.831  17.828  0.00  0.00    +0.000 C 
ATOM      2  O   UNL     1       7.739   5.658  18.150  0.00  0.00    +0.000 OA
ATOM      3  N   UNL     1       6.742   7.284  16.860  0.00  0.00    +0.000 N 
ATOM      4  H   UNL     1       6.687   8.269  16.645  0.00  0.00    +0.000 HD
ENDROOT
BRANCH   1   6
ATOM      5  C   UNL     1       8.284   9.200  18.037  0.00  0.00    +0.000 C 
ATOM      6  C   UNL     1       8.389   7.929  18.462  0.00  0.00    +0.000 C 
BRANCH   5   9
ATOM      7  C   UNL     1      10.194  12.475  18.322  0.00  0.00    +0.000 A 
ATOM      8  C   UNL     1       9.472  11.381  17.805  0.00  0.00    +0.000 A 
ATOM      9  C   UNL     1       9.035  10.329  18.625  0.00  0.00    +0.000 A 
ATOM     10  C   UNL     1       9.294  10.411  19.997  0.00  0.00    +0.000 A 
ATOM     11  C   UNL     1      10.011  11.487  20.526  0.00  0.00    +0.000 A 
ATOM     12  C   UNL     1      10.467  12.511  19.693  0.00  0.00    +0.000 A 
BRANCH   7  14
ATOM     13  C   UNL     1      11.877  13.367  16.868  0.00  0.00    +0.000 C 
ATOM     14  O   UNL     1      10.545  13.392  17.366  0.00  0.00    +0.000 OA
ENDBRANCH   7  14
BRANCH  12  15
ATOM     15  O   UNL     1      11.175  13.534  20.261  0.00  0.00    +0.000 OA
ATOM     16  H   UNL     1      11.676  13.998  19.571  0.00  0.00    +0.000 HD
ENDBRANCH  12  15
ENDBRANCH   5   9
ENDBRANCH   1   6
BRANCH   3  17
ATOM     17  C   UNL     1       5.902   6.395  16.083  0.00  0.00    +0.000 C 
BRANCH  17  18
ATOM     18  C   UNL     1       4.736   5.874  16.890  0.00  0.00    +0.000 A 
ATOM     19  C   UNL     1       4.393   4.519  16.841  0.00  0.00    +0.000 A 
ATOM     20  C   UNL     1       3.284   4.042  17.541  0.00  0.00    +0.000 A 
ATOM     21  C   UNL     1       2.495   4.912  18.299  0.00  0.00    +0.000 A 
ATOM     22  C   UNL     1       2.814   6.272  18.368  0.00  0.00    +0.000 A 
ATOM     23  C   UNL     1       3.938   6.737  17.661  0.00  0.00    +0.000 A 
BRANCH  21  24
ATOM     24  O   UNL     1       1.412   4.394  18.955  0.00  0.00    +0.000 OA
ATOM     25  H   UNL     1       1.722   3.823  19.676  0.00  0.00    +0.000 HD
ENDBRANCH  21  24
BRANCH  22  26
ATOM     26  O   UNL     1       2.160   7.265  19.049  0.00  0.00    +0.000 OA
ATOM     27  C   UNL     1       2.016   8.532  18.421  0.00  0.00    +0.000 C 
ENDBRANCH  22  26
ENDBRANCH  17  18
ENDBRANCH   3  17
TORSDOF 8
ENDMDL
MODEL 6
REMARK VINA RESULT:      -7.6      1.606      2.756
REMARK  Name = 
REMARK  10 active torsions:
REMARK  status: ('A' for Active; 'I' for Inactive)
REMARK    1  A    between atoms: C_1  and  O_2
REMARK    2  A    between atoms: O_2  and  C_3
REMARK    3  A    between atoms: C_5  and  C_6
REMARK    4  A    between atoms: C_7  and  C_8
REMARK    5  A    between atoms: N_10  and  C_11
REMARK    6  A    between atoms: C_11  and  C_12
REMARK    7  A    between atoms: C_15  and  O_16
REMARK    8  A    between atoms: C_17  and  O_18
REMARK    9  A    between atoms: O_18  and  C_19
REMARK   10  A    between atoms: C_23  and  O_24
REMARK                            x       y       z     vdW  Elec       q    Type
REMARK                         _______ _______ _______ _____ _____    ______ ____
ROOT
ATOM      1  C   UNL     1       7.602   7.196  17.506  0.00  0.00    +0.000 C 
ATOM      2  O   UNL     1       7.642   6.751  16.367  0.00  0.00    +0.000 OA
ATOM      3  N   UNL     1       7.356   6.441  18.630  0.00  0.00    +0.000 N 
ATOM      4  H   UNL     1       7.337   6.874  19.542  0.00  0.00    +0.000 HD
ENDROOT
BRANCH   1   6
ATOM      5  C   UNL     1       8.845   9.036  18.592  0.00  0.00    +0.000 C 
ATOM      6  C   UNL     1       7.823   8.634  17.816  0.00  0.00    +0.000 C 
BRANCH   5   9
ATOM      7  C   UNL     1       9.539  12.155  20.652  0.00  0.00    +0.000 A 
ATOM      8  C   UNL     1       9.288  10.821  20.278  0.00  0.00    +0.000 A 
ATOM      9  C   UNL     1       9.110  10.449  18.937  0.00  0.00    +0.000 A 
ATOM     10  C   UNL     1       9.236  11.439  17.956  0.00  0.00    +0.000 A 
ATOM     11  C   UNL     1       9.482  12.768  18.309  0.00  0.00    +0.000 A 
ATOM     12  C   UNL     1       9.625  13.128  19.651  0.00  0.00    +0.000 A 
BRANCH   7  14
ATOM     13  C   UNL     1       8.518  12.706  22.749  0.00  0.00    +0.000 C 
ATOM     14  O   UNL     1       9.668  12.323  22.006  0.00  0.00    +0.000 OA
ENDBRANCH   7  14
BRANCH  12  15
ATOM     15  O   UNL     1       9.852  14.444  19.942  0.00  0.00    +0.000 OA
ATOM     16  H   UNL     1       9.542  14.994  19.204  0.00  0.00    +0.000 HD
ENDBRANCH  12  15
ENDBRANCH   5   9
ENDBRANCH   1   6
BRANCH   3  17
ATOM     17  C   UNL     1       7.079   5.019  18.574  0.00  0.00    +0.000 C 
BRANCH  17  18
ATOM     18  C   UNL     1       5.615   4.739  18.332  0.00  0.00    +0.000 A 
ATOM     19  C   UNL     1       5.204   4.096  17.161  0.00  0.00    +0.000 A 
ATOM     20  C   UNL     1       3.847   3.883  16.907  0.00  0.00    +0.000 A 
ATOM     21  C   UNL     1       2.879   4.314  17.818  0.00  0.00    +0.000 A 
ATOM     22  C   UNL     1       3.260   4.958  18.999  0.00  0.00    +0.000 A 
ATOM     23  C   UNL     1       4.631   5.162  19.243  0.00  0.00    +0.000 A 
BRANCH  21  24
ATOM     24  O   UNL     1       1.564   4.091  17.514  0.00  0.00    +0.000 OA
ATOM     25  H   UNL     1       1.014   4.724  18.003  0.00  0.00    +0.000 HD
ENDBRANCH  21  24
BRANCH  22  26
ATOM     26  O   UNL     1       2.459   5.450  19.996  0.00  0.00    +0.000 OA
ATOM     27  C   UNL     1       2.022   4.557  21.012  0.00  0.00    +0.000 C 
ENDBRANCH  22  26
ENDBRANCH  17  18
ENDBRANCH   3  17
TORSDOF 8
ENDMDL
MODEL 7
REMARK VINA RESULT:      -7.5      1.052      2.063
REMARK  Name = 
REMARK  10 active torsions:
REMARK  status: ('A' for Active; 'I' for Inactive)
REMARK    1  A    between atoms: C_1  and  O_2
REMARK    2  A    between atoms: O_2  and  C_3
REMARK    3  A    between atoms: C_5  and  C_6
REMARK    4  A    between atoms: C_7  and  C_8
REMARK    5  A    between atoms: N_10  and  C_11
REMARK    6  A    between atoms: C_11  and  C_12
REMARK    7  A    between atoms: C_15  and  O_16
REMARK    8  A    between atoms: C_17  and  O_18
REMARK    9  A    between atoms: O_18  and  C_19
REMARK   10  A    between atoms: C_23  and  O_24
REMARK                            x       y       z     vdW  Elec       q    Type
REMARK                         _______ _______ _______ _____ _____    ______ ____
ROOT
ATOM      1  C   UNL     1       7.396   7.315  17.536  0.00  0.00    +0.000 C 
ATOM      2  O   UNL     1       7.827   6.360  18.167  0.00  0.00    +0.000 OA
ATOM      3  N   UNL     1       6.376   7.245  16.614  0.00  0.00    +0.000 N 
ATOM      4  H   UNL     1       6.070   8.076  16.128  0.00  0.00    +0.000 HD
ENDROOT
BRANCH   1   6
ATOM      5  C   UNL     1       8.698   9.030  18.751  0.00  0.00    +0.000 C 
ATOM      6  C   UNL     1       7.933   8.694  17.697  0.00  0.00    +0.000 C 
BRANCH   5   9
ATOM      7  C   UNL     1       9.886  12.181  20.515  0.00  0.00    +0.000 A 
ATOM      8  C   UNL     1       9.364  10.896  20.266  0.00  0.00    +0.000 A 
ATOM      9  C   UNL     1       9.255  10.382  18.964  0.00  0.00    +0.000 A 
ATOM     10  C   UNL     1       9.725  11.166  17.905  0.00  0.00    +0.000 A 
ATOM     11  C   UNL     1      10.242  12.443  18.134  0.00  0.00    +0.000 A 
ATOM     12  C   UNL     1      10.316  12.953  19.432  0.00  0.00    +0.000 A 
BRANCH   7  14
ATOM     13  C   UNL     1       8.682  12.405  22.576  0.00  0.00    +0.000 C 
ATOM     14  O   UNL     1       9.897  12.511  21.845  0.00  0.00    +0.000 OA
ENDBRANCH   7  14
BRANCH  12  15
ATOM     15  O   UNL     1      10.818  14.214  19.599  0.00  0.00    +0.000 OA
ATOM     16  H   UNL     1      10.288  14.685  20.261  0.00  0.00    +0.000 HD
ENDBRANCH  12  15
ENDBRANCH   5   9
ENDBRANCH   1   6
BRANCH   3  17
ATOM     17  C   UNL     1       5.719   6.002  16.265  0.00  0.00    +0.000 C 
BRANCH  17  18
ATOM     18  C   UNL     1       4.604   5.665  17.226  0.00  0.00    +0.000 A 
ATOM     19  C   UNL     1       3.746   6.668  17.690  0.00  0.00    +0.000 A 
ATOM     20  C   UNL     1       2.747   6.374  18.620  0.00  0.00    +0.000 A 
ATOM     21  C   UNL     1       2.593   5.072  19.106  0.00  0.00    +0.000 A 
ATOM     22  C   UNL     1       3.434   4.049  18.660  0.00  0.00    +0.000 A 
ATOM     23  C   UNL     1       4.433   4.360  17.719  0.00  0.00    +0.000 A 
BRANCH  21  24
ATOM     24  O   UNL     1       1.606   4.842  20.026  0.00  0.00    +0.000 OA
ATOM     25  H   UNL     1       1.616   5.553  20.687  0.00  0.00    +0.000 HD
ENDBRANCH  21  24
BRANCH  22  26
ATOM     26  O   UNL     1       3.434   2.728  19.025  0.00  0.00    +0.000 OA
ATOM     27  C   UNL     1       4.300   2.320  20.077  0.00  0.00    +0.000 C 
ENDBRANCH  22  26
ENDBRANCH  17  18
ENDBRANCH   3  17
TORSDOF 8
ENDMDL
MODEL 8
REMARK VINA RESULT:      -7.5      1.596      2.190
REMARK  Name = 
REMARK  10 active torsions:
REMARK  status: ('A' for Active; 'I' for Inactive)
REMARK    1  A    between atoms: C_1  and  O_2
REMARK    2  A    between atoms: O_2  and  C_3
REMARK    3  A    between atoms: C_5  and  C_6
REMARK    4  A    between atoms: C_7  and  C_8
REMARK    5  A    between atoms: N_10  and  C_11
REMARK    6  A    between atoms: C_11  and  C_12
REMARK    7  A    between atoms: C_15  and  O_16
REMARK    8  A    between atoms: C_17  and  O_18
REMARK    9  A    between atoms: O_18  and  C_19
REMARK   10  A    between atoms: C_23  and  O_24
REMARK                            x       y       z     vdW  Elec       q    Type
REMARK                         _______ _______ _______ _____ _____    ______ ____
ROOT
ATOM      1  C   UNL     1       7.691   7.241  17.512  0.00  0.00    +0.000 C 
ATOM      2  O   UNL     1       7.604   6.816  16.368  0.00  0.00    +0.000 OA
ATOM      3  N   UNL     1       7.550   6.470  18.644  0.00  0.00    +0.000 N 
ATOM      4  H   UNL     1       7.634   6.888  19.560  0.00  0.00    +0.000 HD
ENDROOT
BRANCH   1   6
ATOM      5  C   UNL     1       8.867   9.026  18.754  0.00  0.00    +0.000 C 
ATOM      6  C   UNL     1       7.968   8.670  17.820  0.00  0.00    +0.000 C 
BRANCH   5   9
ATOM      7  C   UNL     1       9.070  12.816  18.538  0.00  0.00    +0.000 A 
ATOM      8  C   UNL     1       8.789  11.467  18.246  0.00  0.00    +0.000 A 
ATOM      9  C   UNL     1       9.181  10.427  19.104  0.00  0.00    +0.000 A 
ATOM     10  C   UNL     1       9.825  10.766  20.299  0.00  0.00    +0.000 A 
ATOM     11  C   UNL     1      10.114  12.098  20.603  0.00  0.00    +0.000 A 
ATOM     12  C   UNL     1       9.746  13.120  19.724  0.00  0.00    +0.000 A 
BRANCH   7  14
ATOM     13  C   UNL     1       7.299  14.190  17.690  0.00  0.00    +0.000 C 
ATOM     14  O   UNL     1       8.622  13.682  17.575  0.00  0.00    +0.000 OA
ENDBRANCH   7  14
BRANCH  12  15
ATOM     15  O   UNL     1      10.065  14.405  20.064  0.00  0.00    +0.000 OA
ATOM     16  H   UNL     1       9.276  14.849  20.415  0.00  0.00    +0.000 HD
ENDBRANCH  12  15
ENDBRANCH   5   9
ENDBRANCH   1   6
BRANCH   3  17
ATOM     17  C   UNL     1       7.245   5.054  18.594  0.00  0.00    +0.000 C 
BRANCH  17  18
ATOM     18  C   UNL     1       5.773   4.803  18.367  0.00  0.00    +0.000 A 
ATOM     19  C   UNL     1       5.334   4.203  17.183  0.00  0.00    +0.000 A 
ATOM     20  C   UNL     1       3.971   4.018  16.944  0.00  0.00    +0.000 A 
ATOM     21  C   UNL     1       3.023   4.435  17.883  0.00  0.00    +0.000 A 
ATOM     22  C   UNL     1       3.432   5.036  19.077  0.00  0.00    +0.000 A 
ATOM     23  C   UNL     1       4.809   5.212  19.306  0.00  0.00    +0.000 A 
BRANCH  21  24
ATOM     24  O   UNL     1       1.701   4.241  17.593  0.00  0.00    +0.000 OA
ATOM     25  H   UNL     1       1.164   4.817  18.160  0.00  0.00    +0.000 HD
ENDBRANCH  21  24
BRANCH  22  26
ATOM     26  O   UNL     1       2.654   5.507  20.102  0.00  0.00    +0.000 OA
ATOM     27  C   UNL     1       2.182   4.581  21.071  0.00  0.00    +0.000 C 
ENDBRANCH  22  26
ENDBRANCH  17  18
ENDBRANCH   3  17
TORSDOF 8
ENDMDL
MODEL 9
REMARK VINA RESULT:      -7.4      5.735      9.636
REMARK  Name = 
REMARK  10 active torsions:
REMARK  status: ('A' for Active; 'I' for Inactive)
REMARK    1  A    between atoms: C_1  and  O_2
REMARK    2  A    between atoms: O_2  and  C_3
REMARK    3  A    between atoms: C_5  and  C_6
REMARK    4  A    between atoms: C_7  and  C_8
REMARK    5  A    between atoms: N_10  and  C_11
REMARK    6  A    between atoms: C_11  and  C_12
REMARK    7  A    between atoms: C_15  and  O_16
REMARK    8  A    between atoms: C_17  and  O_18
REMARK    9  A    between atoms: O_18  and  C_19
REMARK   10  A    between atoms: C_23  and  O_24
REMARK                            x       y       z     vdW  Elec       q    Type
REMARK                         _______ _______ _______ _____ _____    ______ ____
ROOT
ATOM      1  C   UNL     1       1.567   9.626  17.907  0.00  0.00    +0.000 C 
ATOM      2  O   UNL     1       2.322  10.567  17.704  0.00  0.00    +0.000 OA
ATOM      3  N   UNL     1       0.284   9.746  18.392  0.00  0.00    +0.000 N 
ATOM      4  H   UNL     1      -0.286   8.925  18.537  0.00  0.00    +0.000 HD
ENDROOT
BRANCH   1   6
ATOM      5  C   UNL     1       2.780   7.548  18.474  0.00  0.00    +0.000 C 
ATOM      6  C   UNL     1       1.954   8.213  17.647  0.00  0.00    +0.000 C 
BRANCH   5   9
ATOM      7  C   UNL     1       2.593   3.804  17.843  0.00  0.00    +0.000 A 
ATOM      8  C   UNL     1       2.237   5.152  18.044  0.00  0.00    +0.000 A 
ATOM      9  C   UNL     1       3.201   6.148  18.265  0.00  0.00    +0.000 A 
ATOM     10  C   UNL     1       4.550   5.776  18.235  0.00  0.00    +0.000 A 
ATOM     11  C   UNL     1       4.921   4.444  18.040  0.00  0.00    +0.000 A 
ATOM     12  C   UNL     1       3.949   3.459  17.853  0.00  0.00    +0.000 A 
BRANCH   7  14
ATOM     13  C   UNL     1       0.911   2.396  18.808  0.00  0.00    +0.000 C 
ATOM     14  O   UNL     1       1.513   2.981  17.660  0.00  0.00    +0.000 OA
ENDBRANCH   7  14
BRANCH  12  15
ATOM     15  O   UNL     1       4.366   2.169  17.680  0.00  0.00    +0.000 OA
ATOM     16  H   UNL     1       4.229   1.674  18.504  0.00  0.00    +0.000 HD
ENDBRANCH  12  15
ENDBRANCH   5   9
ENDBRANCH   1   6
BRANCH   3  17
ATOM     17  C   UNL     1      -0.303  11.022  18.749  0.00  0.00    +0.000 C 
BRANCH  17  18
ATOM     18  C   UNL     1      -1.734  11.135  18.280  0.00  0.00    +0.000 A 
ATOM     19  C   UNL     1      -2.670  11.846  19.038  0.00  0.00    +0.000 A 
ATOM     20  C   UNL     1      -4.007  11.909  18.638  0.00  0.00    +0.000 A 
ATOM     21  C   UNL     1      -4.430  11.257  17.477  0.00  0.00    +0.000 A 
ATOM     22  C   UNL     1      -3.517  10.540  16.698  0.00  0.00    +0.000 A 
ATOM     23  C   UNL     1      -2.173  10.490  17.111  0.00  0.00    +0.000 A 
BRANCH  21  24
ATOM     24  O   UNL     1      -5.753  11.340  17.138  0.00  0.00    +0.000 OA
ATOM     25  H   UNL     1      -5.839  11.266  16.174  0.00  0.00    +0.000 HD
ENDBRANCH  21  24
BRANCH  22  26
ATOM     26  O   UNL     1      -3.749   9.841  15.543  0.00  0.00    +0.000 OA
ATOM     27  C   UNL     1      -2.997  10.181  14.385  0.00  0.00    +0.000 C 
ENDBRANCH  22  26
ENDBRANCH  17  18
ENDBRANCH   3  17
TORSDOF 8
ENDMDL
