MODEL 1
REMARK VINA RESULT:      -8.5      0.000      0.000
REMARK  Name = 
REMARK  4 active torsions:
REMARK  status: ('A' for Active; 'I' for Inactive)
REMARK    1  A    between atoms: C_2  and  C_3
REMARK    2  A    between atoms: C_8  and  C_9
REMARK    3  A    between atoms: C_14  and  O_15
REMARK    4  A    between atoms: N_16  and  C_17
REMARK                            x       y       z     vdW  Elec       q    Type
REMARK                         _______ _______ _______ _____ _____    ______ ____
ROOT
ATOM      1  C   UNL     1       2.019   5.865  19.917  0.00  0.00    +0.000 A 
ATOM      2  C   UNL     1       1.201   4.948  20.605  0.00  0.00    +0.000 A 
ATOM      3  C   UNL     1       1.357   3.561  20.467  0.00  0.00    +0.000 A 
ATOM      4  C   UNL     1       2.369   3.072  19.633  0.00  0.00    +0.000 A 
ATOM      5  N   UNL     1       2.696   1.775  19.338  0.00  0.00    +0.000 NA
ATOM      6  C   UNL     1       3.700   1.874  18.514  0.00  0.00    +0.000 A 
ATOM      7  N   UNL     1       4.061   3.165  18.249  0.00  0.00    +0.000 N 
ATOM      8  C   UNL     1       3.203   3.971  18.969  0.00  0.00    +0.000 A 
ATOM      9  C   UNL     1       3.051   5.362  19.093  0.00  0.00    +0.000 A 
ENDROOT
BRANCH   1  15
ATOM     10  C   UNL     1       0.872   9.262  21.202  0.00  0.00    +0.000 A 
ATOM     11  C   UNL     1       1.011  10.057  20.066  0.00  0.00    +0.000 A 
ATOM     12  C   UNL     1       1.544   9.498  18.914  0.00  0.00    +0.000 A 
ATOM     13  F   UNL     1       1.668  10.253  17.816  0.00  0.00    +0.000 F 
ATOM     14  C   UNL     1       1.920   8.156  18.865  0.00  0.00    +0.000 A 
ATOM     15  C   UNL     1       1.761   7.323  19.985  0.00  0.00    +0.000 A 
ATOM     16  C   UNL     1       1.258   7.913  21.162  0.00  0.00    +0.000 A 
BRANCH  10  18
ATOM     17  N   UNL     1      -0.201  10.215  23.361  0.00  0.00    +0.000 NA
ATOM     18  C   UNL     1       0.286   9.798  22.393  0.00  0.00    +0.000 C 
ENDBRANCH  10  18
ENDBRANCH   1  15
BRANCH   7  19
ATOM     19  C   UNL     1       5.136   3.597  17.381  0.00  0.00    +0.000 C 
ATOM     20  C   UNL     1       4.677   4.371  16.146  0.00  0.00    +0.000 C 
ATOM     21  C   UNL     1       5.941   5.063  15.654  0.00  0.00    +0.000 C 
ATOM     22  C   UNL     1       6.817   5.279  16.888  0.00  0.00    +0.000 C 
ATOM     23  C   UNL     1       6.152   4.532  18.041  0.00  0.00    +0.000 C 
ENDBRANCH   7  19
BRANCH   6  24
ATOM     24  O   UNL     1       4.278   0.806  17.999  0.00  0.00    +0.000 OA
ATOM     25  H   UNL     1       4.885   0.554  18.720  0.00  0.00    +0.000 HD
ENDBRANCH   6  24
TORSDOF 4
ENDMDL
MODEL 2
REMARK VINA RESULT:      -8.0      1.586      3.645
REMARK  Name = 
REMARK  4 active torsions:
REMARK  status: ('A' for Active; 'I' for Inactive)
REMARK    1  A    between atoms: C_2  and  C_3
REMARK    2  A    between atoms: C_8  and  C_9
REMARK    3  A    between atoms: C_14  and  O_15
REMARK    4  A    between atoms: N_16  and  C_17
REMARK                            x       y       z     vdW  Elec       q    Type
REMARK                         _______ _______ _______ _____ _____    ______ ____
ROOT
ATOM      1  C   UNL     1       2.398   7.768  18.370  0.00  0.00    +0.000 A 
ATOM      2  C   UNL     1       3.394   8.129  17.441  0.00  0.00    +0.000 A 
ATOM      3  C   UNL     1       4.287   7.191  16.903  0.00  0.00    +0.000 A 
ATOM      4  C   UNL     1       4.173   5.850  17.286  0.00  0.00    +0.000 A 
ATOM      5  N   UNL     1       4.932   4.775  16.906  0.00  0.00    +0.000 NA
ATOM      6  C   UNL     1       4.414   3.770  17.554  0.00  0.00    +0.000 A 
ATOM      7  N   UNL     1       3.352   4.118  18.339  0.00  0.00    +0.000 N 
ATOM      8  C   UNL     1       3.173   5.476  18.183  0.00  0.00    +0.000 A 
ATOM      9  C   UNL     1       2.279   6.409  18.735  0.00  0.00    +0.000 A 
ENDROOT
BRANCH   1  15
ATOM     10  C   UNL     1       0.499   9.710  21.039  0.00  0.00    +0.000 A 
ATOM     11  C   UNL     1      -0.281  10.568  20.266  0.00  0.00    +0.000 A 
ATOM     12  C   UNL     1      -0.128  10.557  18.887  0.00  0.00    +0.000 A 
ATOM     13  F   UNL     1      -0.884  11.370  18.138  0.00  0.00    +0.000 F 
ATOM     14  C   UNL     1       0.769   9.692  18.263  0.00  0.00    +0.000 A 
ATOM     15  C   UNL     1       1.544   8.793  19.015  0.00  0.00    +0.000 A 
ATOM     16  C   UNL     1       1.410   8.844  20.417  0.00  0.00    +0.000 A 
BRANCH  10  18
ATOM     17  N   UNL     1       0.223   9.643  23.616  0.00  0.00    +0.000 NA
ATOM     18  C   UNL     1       0.335   9.669  22.461  0.00  0.00    +0.000 C 
ENDBRANCH  10  18
ENDBRANCH   1  15
BRANCH   7  19
ATOM     19  C   UNL     1       2.569   3.228  19.170  0.00  0.00    +0.000 C 
ATOM     20  C   UNL     1       2.567   3.590  20.655  0.00  0.00    +0.000 C 
ATOM     21  C   UNL     1       1.383   2.818  21.221  0.00  0.00    +0.000 C 
ATOM     22  C   UNL     1       0.386   2.663  20.073  0.00  0.00    +0.000 C 
ATOM     23  C   UNL     1       1.083   3.160  18.809  0.00  0.00    +0.000 C 
ENDBRANCH   7  19
BRANCH   6  24
ATOM     24  O   UNL     1       4.906   2.551  17.442  0.00  0.00    +0.000 OA
ATOM     25  H   UNL     1       5.348   2.605  16.574  0.00  0.00    +0.000 HD
ENDBRANCH   6  24
TORSDOF 4
ENDMDL
MODEL 3
REMARK VINA RESULT:      -7.9      1.773      2.321
REMARK  Name = 
REMARK  4 active torsions:
REMARK  status: ('A' for Active; 'I' for Inactive)
REMARK    1  A    between atoms: C_2  and  C_3
REMARK    2  A    between atoms: C_8  and  C_9
REMARK    3  A    between atoms: C_14  and  O_15
REMARK    4  A    between atoms: N_16  and  C_17
REMARK                            x       y       z     vdW  Elec       q    Type
REMARK                         _______ _______ _______ _____ _____    ______ ____
ROOT
ATOM      1  C   UNL     1       2.351   6.883  18.737  0.00  0.00    +0.000 A 
ATOM      2  C   UNL     1       1.497   5.797  18.462  0.00  0.00    +0.000 A 
ATOM      3  C   UNL     1       1.953   4.632  17.829  0.00  0.00    +0.000 A 
ATOM      4  C   UNL     1       3.304   4.537  17.475  0.00  0.00    +0.000 A 
ATOM      5  N   UNL     1       3.964   3.515  16.845  0.00  0.00    +0.000 NA
ATOM      6  C   UNL     1       5.194   3.935  16.751  0.00  0.00    +0.000 A 
ATOM      7  N   UNL     1       5.388   5.176  17.288  0.00  0.00    +0.000 N 
ATOM      8  C   UNL     1       4.165   5.595  17.768  0.00  0.00    +0.000 A 
ATOM      9  C   UNL     1       3.717   6.770  18.395  0.00  0.00    +0.000 A 
ENDROOT
BRANCH   1  15
ATOM     10  C   UNL     1       0.918   9.407  21.203  0.00  0.00    +0.000 A 
ATOM     11  C   UNL     1       0.572  10.462  20.361  0.00  0.00    +0.000 A 
ATOM     12  C   UNL     1       0.874  10.372  19.011  0.00  0.00    +0.000 A 
ATOM     13  F   UNL     1       0.532  11.377  18.194  0.00  0.00    +0.000 F 
ATOM     14  C   UNL     1       1.493   9.242  18.478  0.00  0.00    +0.000 A 
ATOM     15  C   UNL     1       1.823   8.150  19.298  0.00  0.00    +0.000 A 
ATOM     16  C   UNL     1       1.550   8.271  20.676  0.00  0.00    +0.000 A 
BRANCH  10  18
ATOM     17  N   UNL     1       0.330   9.479  23.727  0.00  0.00    +0.000 NA
ATOM     18  C   UNL     1       0.582   9.452  22.594  0.00  0.00    +0.000 C 
ENDBRANCH  10  18
ENDBRANCH   1  15
BRANCH   7  19
ATOM     19  C   UNL     1       6.637   5.905  17.340  0.00  0.00    +0.000 C 
ATOM     20  C   UNL     1       6.509   7.400  17.044  0.00  0.00    +0.000 C 
ATOM     21  C   UNL     1       7.810   7.992  17.569  0.00  0.00    +0.000 C 
ATOM     22  C   UNL     1       8.267   7.079  18.705  0.00  0.00    +0.000 C 
ATOM     23  C   UNL     1       7.346   5.861  18.695  0.00  0.00    +0.000 C 
ENDBRANCH   7  19
BRANCH   6  24
ATOM     24  O   UNL     1       6.129   3.204  16.177  0.00  0.00    +0.000 OA
ATOM     25  H   UNL     1       5.629   2.397  15.955  0.00  0.00    +0.000 HD
ENDBRANCH   6  24
TORSDOF 4
ENDMDL
MODEL 4
REMARK VINA RESULT:      -7.9      0.802      1.157
REMARK  Name = 
REMARK  4 active torsions:
REMARK  status: ('A' for Active; 'I' for Inactive)
REMARK    1  A    between atoms: C_2  and  C_3
REMARK    2  A    between atoms: C_8  and  C_9
REMARK    3  A    between atoms: C_14  and  O_15
REMARK    4  A    between atoms: N_16  and  C_17
REMARK                            x       y       z     vdW  Elec       q    Type
REMARK                         _______ _______ _______ _____ _____    ______ ____
ROOT
ATOM      1  C   UNL     1       1.924   6.605  20.007  0.00  0.00    +0.000 A 
ATOM      2  C   UNL     1       1.241   5.623  20.751  0.00  0.00    +0.000 A 
ATOM      3  C   UNL     1       1.486   4.252  20.579  0.00  0.00    +0.000 A 
ATOM      4  C   UNL     1       2.452   3.848  19.651  0.00  0.00    +0.000 A 
ATOM      5  N   UNL     1       2.846   2.582  19.308  0.00  0.00    +0.000 NA
ATOM      6  C   UNL     1       3.761   2.764  18.399  0.00  0.00    +0.000 A 
ATOM      7  N   UNL     1       4.000   4.080  18.123  0.00  0.00    +0.000 N 
ATOM      8  C   UNL     1       3.154   4.813  18.928  0.00  0.00    +0.000 A 
ATOM      9  C   UNL     1       2.911   6.188  19.087  0.00  0.00    +0.000 A 
ENDROOT
BRANCH   1  15
ATOM     10  C   UNL     1       0.446   9.852  21.341  0.00  0.00    +0.000 A 
ATOM     11  C   UNL     1       0.634  10.713  20.262  0.00  0.00    +0.000 A 
ATOM     12  C   UNL     1       1.303  10.250  19.139  0.00  0.00    +0.000 A 
ATOM     13  F   UNL     1       1.475  11.070  18.094  0.00  0.00    +0.000 F 
ATOM     14  C   UNL     1       1.769   8.939  19.061  0.00  0.00    +0.000 A 
ATOM     15  C   UNL     1       1.565   8.039  20.120  0.00  0.00    +0.000 A 
ATOM     16  C   UNL     1       0.921   8.533  21.273  0.00  0.00    +0.000 A 
BRANCH  10  18
ATOM     17  N   UNL     1      -0.875  10.656  23.421  0.00  0.00    +0.000 NA
ATOM     18  C   UNL     1      -0.277  10.288  22.497  0.00  0.00    +0.000 C 
ENDBRANCH  10  18
ENDBRANCH   1  15
BRANCH   7  19
ATOM     19  C   UNL     1       4.957   4.599  17.169  0.00  0.00    +0.000 C 
ATOM     20  C   UNL     1       6.416   4.478  17.609  0.00  0.00    +0.000 C 
ATOM     21  C   UNL     1       7.206   4.671  16.321  0.00  0.00    +0.000 C 
ATOM     22  C   UNL     1       6.301   4.188  15.188  0.00  0.00    +0.000 C 
ATOM     23  C   UNL     1       4.930   3.914  15.801  0.00  0.00    +0.000 C 
ENDBRANCH   7  19
BRANCH   6  24
ATOM     24  O   UNL     1       4.368   1.746  17.818  0.00  0.00    +0.000 OA
ATOM     25  H   UNL     1       3.714   1.501  17.137  0.00  0.00    +0.000 HD
ENDBRANCH   6  24
TORSDOF 4
ENDMDL
MODEL 5
REMARK VINA RESULT:      -7.6      2.267      4.188
REMARK  Name = 
REMARK  4 active torsions:
REMARK  status: ('A' for Active; 'I' for Inactive)
REMARK    1  A    between atoms: C_2  and  C_3
REMARK    2  A    between atoms: C_8  and  C_9
REMARK    3  A    between atoms: C_14  and  O_15
REMARK    4  A    between atoms: N_16  and  C_17
REMARK                            x       y       z     vdW  Elec       q    Type
REMARK                         _______ _______ _______ _____ _____    ______ ____
ROOT
ATOM      1  C   UNL     1       1.864   8.127  19.325  0.00  0.00    +0.000 A 
ATOM      2  C   UNL     1       2.534   8.708  18.231  0.00  0.00    +0.000 A 
ATOM      3  C   UNL     1       3.419   7.978  17.425  0.00  0.00    +0.000 A 
ATOM      4  C   UNL     1       3.629   6.623  17.705  0.00  0.00    +0.000 A 
ATOM      5  N   UNL     1       4.447   5.725  17.071  0.00  0.00    +0.000 NA
ATOM      6  C   UNL     1       4.276   4.613  17.729  0.00  0.00    +0.000 A 
ATOM      7  N   UNL     1       3.387   4.722  18.761  0.00  0.00    +0.000 N 
ATOM      8  C   UNL     1       2.949   6.030  18.769  0.00  0.00    +0.000 A 
ATOM      9  C   UNL     1       2.067   6.754  19.588  0.00  0.00    +0.000 A 
ENDROOT
BRANCH   1  15
ATOM     10  C   UNL     1      -0.387  10.918  20.609  0.00  0.00    +0.000 A 
ATOM     11  C   UNL     1      -0.374  10.686  21.982  0.00  0.00    +0.000 A 
ATOM     12  C   UNL     1       0.308   9.581  22.471  0.00  0.00    +0.000 A 
ATOM     13  F   UNL     1       0.336   9.360  23.791  0.00  0.00    +0.000 F 
ATOM     14  C   UNL     1       0.995   8.717  21.620  0.00  0.00    +0.000 A 
ATOM     15  C   UNL     1       1.026   8.946  20.234  0.00  0.00    +0.000 A 
ATOM     16  C   UNL     1       0.295  10.047  19.746  0.00  0.00    +0.000 A 
BRANCH  10  18
ATOM     17  N   UNL     1      -1.561  13.019  19.643  0.00  0.00    +0.000 NA
ATOM     18  C   UNL     1      -1.047  12.073  20.078  0.00  0.00    +0.000 C 
ENDBRANCH  10  18
ENDBRANCH   1  15
BRANCH   7  19
ATOM     19  C   UNL     1       2.987   3.666  19.666  0.00  0.00    +0.000 C 
ATOM     20  C   UNL     1       2.785   4.118  21.113  0.00  0.00    +0.000 C 
ATOM     21  C   UNL     1       1.980   2.988  21.742  0.00  0.00    +0.000 C 
ATOM     22  C   UNL     1       1.172   2.357  20.609  0.00  0.00    +0.000 C 
ATOM     23  C   UNL     1       1.665   2.985  19.308  0.00  0.00    +0.000 C 
ENDBRANCH   7  19
BRANCH   6  24
ATOM     24  O   UNL     1       4.926   3.513  17.403  0.00  0.00    +0.000 OA
ATOM     25  H   UNL     1       4.788   2.969  18.200  0.00  0.00    +0.000 HD
ENDBRANCH   6  24
TORSDOF 4
ENDMDL
MODEL 6
REMARK VINA RESULT:      -7.4      2.349      3.043
REMARK  Name = 
REMARK  4 active torsions:
REMARK  status: ('A' for Active; 'I' for Inactive)
REMARK    1  A    between atoms: C_2  and  C_3
REMARK    2  A    between atoms: C_8  and  C_9
REMARK    3  A    between atoms: C_14  and  O_15
REMARK    4  A    between atoms: N_16  and  C_17
REMARK                            x       y       z     vdW  Elec       q    Type
REMARK                         _______ _______ _______ _____ _____    ______ ____
ROOT
ATOM      1  C   UNL     1       2.374   6.557  18.911  0.00  0.00    +0.000 A 
ATOM      2  C   UNL     1       1.572   5.447  18.580  0.00  0.00    +0.000 A 
ATOM      3  C   UNL     1       2.067   4.363  17.841  0.00  0.00    +0.000 A 
ATOM      4  C   UNL     1       3.405   4.376  17.434  0.00  0.00    +0.000 A 
ATOM      5  N   UNL     1       4.096   3.446  16.702  0.00  0.00    +0.000 NA
ATOM      6  C   UNL     1       5.296   3.943  16.599  0.00  0.00    +0.000 A 
ATOM      7  N   UNL     1       5.441   5.148  17.226  0.00  0.00    +0.000 N 
ATOM      8  C   UNL     1       4.217   5.456  17.780  0.00  0.00    +0.000 A 
ATOM      9  C   UNL     1       3.729   6.551  18.513  0.00  0.00    +0.000 A 
ENDROOT
BRANCH   1  15
ATOM     10  C   UNL     1       1.269  10.140  19.575  0.00  0.00    +0.000 A 
ATOM     11  C   UNL     1       0.950  10.093  20.930  0.00  0.00    +0.000 A 
ATOM     12  C   UNL     1       1.029   8.880  21.598  0.00  0.00    +0.000 A 
ATOM     13  F   UNL     1       0.736   8.831  22.904  0.00  0.00    +0.000 F 
ATOM     14  C   UNL     1       1.440   7.718  20.948  0.00  0.00    +0.000 A 
ATOM     15  C   UNL     1       1.799   7.743  19.589  0.00  0.00    +0.000 A 
ATOM     16  C   UNL     1       1.675   8.973  18.912  0.00  0.00    +0.000 A 
BRANCH  10  18
ATOM     17  N   UNL     1       1.232  12.401  18.307  0.00  0.00    +0.000 NA
ATOM     18  C   UNL     1       1.238  11.385  18.868  0.00  0.00    +0.000 C 
ENDBRANCH  10  18
ENDBRANCH   1  15
BRANCH   7  19
ATOM     19  C   UNL     1       6.649   5.943  17.292  0.00  0.00    +0.000 C 
ATOM     20  C   UNL     1       6.434   7.439  17.066  0.00  0.00    +0.000 C 
ATOM     21  C   UNL     1       7.709   8.079  17.597  0.00  0.00    +0.000 C 
ATOM     22  C   UNL     1       8.236   7.143  18.684  0.00  0.00    +0.000 C 
ATOM     23  C   UNL     1       7.383   5.878  18.632  0.00  0.00    +0.000 C 
ENDBRANCH   7  19
BRANCH   6  24
ATOM     24  O   UNL     1       6.247   3.315  15.935  0.00  0.00    +0.000 OA
ATOM     25  H   UNL     1       5.777   3.072  15.116  0.00  0.00    +0.000 HD
ENDBRANCH   6  24
TORSDOF 4
ENDMDL
MODEL 7
REMARK VINA RESULT:      -7.3      2.228      4.008
REMARK  Name = 
REMARK  4 active torsions:
REMARK  status: ('A' for Active; 'I' for Inactive)
REMARK    1  A    between atoms: C_2  and  C_3
REMARK    2  A    between atoms: C_8  and  C_9
REMARK    3  A    between atoms: C_14  and  O_15
REMARK    4  A    between atoms: N_16  and  C_17
REMARK                            x       y       z     vdW  Elec       q    Type
REMARK                         _______ _______ _______ _____ _____    ______ ____
ROOT
ATOM      1  C   UNL     1       2.617   7.641  18.258  0.00  0.00    +0.000 A 
ATOM      2  C   UNL     1       3.609   8.229  17.449  0.00  0.00    +0.000 A 
ATOM      3  C   UNL     1       4.557   7.462  16.756  0.00  0.00    +0.000 A 
ATOM      4  C   UNL     1       4.504   6.067  16.856  0.00  0.00    +0.000 A 
ATOM      5  N   UNL     1       5.322   5.128  16.286  0.00  0.00    +0.000 NA
ATOM      6  C   UNL     1       4.844   3.989  16.702  0.00  0.00    +0.000 A 
ATOM      7  N   UNL     1       3.752   4.121  17.513  0.00  0.00    +0.000 N 
ATOM      8  C   UNL     1       3.509   5.473  17.631  0.00  0.00    +0.000 A 
ATOM      9  C   UNL     1       2.559   6.232  18.336  0.00  0.00    +0.000 A 
ENDROOT
BRANCH   1  15
ATOM     10  C   UNL     1       0.298  10.475  19.306  0.00  0.00    +0.000 A 
ATOM     11  C   UNL     1       0.154  10.234  20.670  0.00  0.00    +0.000 A 
ATOM     12  C   UNL     1       0.754   9.112  21.223  0.00  0.00    +0.000 A 
ATOM     13  F   UNL     1       0.630   8.883  22.537  0.00  0.00    +0.000 F 
ATOM     14  C   UNL     1       1.512   8.238  20.447  0.00  0.00    +0.000 A 
ATOM     15  C   UNL     1       1.702   8.473  19.075  0.00  0.00    +0.000 A 
ATOM     16  C   UNL     1       1.053   9.593  18.517  0.00  0.00    +0.000 A 
BRANCH  10  18
ATOM     17  N   UNL     1      -0.746  12.602  18.254  0.00  0.00    +0.000 NA
ATOM     18  C   UNL     1      -0.274  11.646  18.714  0.00  0.00    +0.000 C 
ENDBRANCH  10  18
ENDBRANCH   1  15
BRANCH   7  19
ATOM     19  C   UNL     1       3.000   3.046  18.125  0.00  0.00    +0.000 C 
ATOM     20  C   UNL     1       3.164   2.944  19.641  0.00  0.00    +0.000 C 
ATOM     21  C   UNL     1       1.996   2.073  20.080  0.00  0.00    +0.000 C 
ATOM     22  C   UNL     1       0.885   2.299  19.055  0.00  0.00    +0.000 C 
ATOM     23  C   UNL     1       1.486   3.133  17.926  0.00  0.00    +0.000 C 
ENDBRANCH   7  19
BRANCH   6  24
ATOM     24  O   UNL     1       5.398   2.842  16.359  0.00  0.00    +0.000 OA
ATOM     25  H   UNL     1       4.754   2.206  16.722  0.00  0.00    +0.000 HD
ENDBRANCH   6  24
TORSDOF 4
ENDMDL
MODEL 8
REMARK VINA RESULT:      -7.3      1.876      3.779
REMARK  Name = 
REMARK  4 active torsions:
REMARK  status: ('A' for Active; 'I' for Inactive)
REMARK    1  A    between atoms: C_2  and  C_3
REMARK    2  A    between atoms: C_8  and  C_9
REMARK    3  A    between atoms: C_14  and  O_15
REMARK    4  A    between atoms: N_16  and  C_17
REMARK                            x       y       z     vdW  Elec       q    Type
REMARK                         _______ _______ _______ _____ _____    ______ ____
ROOT
ATOM      1  C   UNL     1       2.141   8.132  18.678  0.00  0.00    +0.000 A 
ATOM      2  C   UNL     1       3.023   8.346  17.601  0.00  0.00    +0.000 A 
ATOM      3  C   UNL     1       4.021   7.422  17.259  0.00  0.00    +0.000 A 
ATOM      4  C   UNL     1       4.133   6.241  18.002  0.00  0.00    +0.000 A 
ATOM      5  N   UNL     1       5.028   5.213  17.862  0.00  0.00    +0.000 NA
ATOM      6  C   UNL     1       4.702   4.371  18.802  0.00  0.00    +0.000 A 
ATOM      7  N   UNL     1       3.638   4.782  19.555  0.00  0.00    +0.000 N 
ATOM      8  C   UNL     1       3.247   6.005  19.053  0.00  0.00    +0.000 A 
ATOM      9  C   UNL     1       2.249   6.928  19.408  0.00  0.00    +0.000 A 
ENDROOT
BRANCH   1  15
ATOM     10  C   UNL     1      -0.128  10.270  20.865  0.00  0.00    +0.000 A 
ATOM     11  C   UNL     1      -0.860  10.974  19.912  0.00  0.00    +0.000 A 
ATOM     12  C   UNL     1      -0.560  10.801  18.569  0.00  0.00    +0.000 A 
ATOM     13  F   UNL     1      -1.269  11.466  17.648  0.00  0.00    +0.000 F 
ATOM     14  C   UNL     1       0.441   9.923  18.157  0.00  0.00    +0.000 A 
ATOM     15  C   UNL     1       1.173   9.175  19.094  0.00  0.00    +0.000 A 
ATOM     16  C   UNL     1       0.886   9.391  20.457  0.00  0.00    +0.000 A 
BRANCH  10  18
ATOM     17  N   UNL     1      -0.678  10.490  23.389  0.00  0.00    +0.000 NA
ATOM     18  C   UNL     1      -0.443  10.396  22.256  0.00  0.00    +0.000 C 
ENDBRANCH  10  18
ENDBRANCH   1  15
BRANCH   7  19
ATOM     19  C   UNL     1       3.042   4.067  20.664  0.00  0.00    +0.000 C 
ATOM     20  C   UNL     1       1.516   4.005  20.627  0.00  0.00    +0.000 C 
ATOM     21  C   UNL     1       1.169   2.885  21.599  0.00  0.00    +0.000 C 
ATOM     22  C   UNL     1       2.361   1.929  21.591  0.00  0.00    +0.000 C 
ATOM     23  C   UNL     1       3.466   2.602  20.779  0.00  0.00    +0.000 C 
ENDBRANCH   7  19
BRANCH   6  24
ATOM     24  O   UNL     1       5.368   3.248  18.982  0.00  0.00    +0.000 OA
ATOM     25  H   UNL     1       5.572   2.999  18.061  0.00  0.00    +0.000 HD
ENDBRANCH   6  24
TORSDOF 4
ENDMDL
MODEL 9
REMARK VINA RESULT:      -7.2      4.143      8.030
REMARK  Name = 
REMARK  4 active torsions:
REMARK  status: ('A' for Active; 'I' for Inactive)
REMARK    1  A    between atoms: C_2  and  C_3
REMARK    2  A    between atoms: C_8  and  C_9
REMARK    3  A    between atoms: C_14  and  O_15
REMARK    4  A    between atoms: N_16  and  C_17
REMARK                            x       y       z     vdW  Elec       q    Type
REMARK                         _______ _______ _______ _____ _____    ______ ____
ROOT
ATOM      1  C   UNL     1       6.317   4.955  15.793  0.00  0.00    +0.000 A 
ATOM      2  C   UNL     1       7.143   5.756  16.606  0.00  0.00    +0.000 A 
ATOM      3  C   UNL     1       6.839   6.017  17.950  0.00  0.00    +0.000 A 
ATOM      4  C   UNL     1       5.688   5.448  18.507  0.00  0.00    +0.000 A 
ATOM      5  N   UNL     1       5.190   5.572  19.777  0.00  0.00    +0.000 NA
ATOM      6  C   UNL     1       4.103   4.853  19.768  0.00  0.00    +0.000 A 
ATOM      7  N   UNL     1       3.855   4.256  18.565  0.00  0.00    +0.000 N 
ATOM      8  C   UNL     1       4.878   4.630  17.719  0.00  0.00    +0.000 A 
ATOM      9  C   UNL     1       5.169   4.369  16.370  0.00  0.00    +0.000 A 
ENDROOT
BRANCH   1  15
ATOM     10  C   UNL     1       6.513   3.407  12.319  0.00  0.00    +0.000 A 
ATOM     11  C   UNL     1       7.327   4.317  11.647  0.00  0.00    +0.000 A 
ATOM     12  C   UNL     1       7.745   5.462  12.309  0.00  0.00    +0.000 A 
ATOM     13  F   UNL     1       8.538   6.333  11.674  0.00  0.00    +0.000 F 
ATOM     14  C   UNL     1       7.386   5.706  13.634  0.00  0.00    +0.000 A 
ATOM     15  C   UNL     1       6.594   4.790  14.346  0.00  0.00    +0.000 A 
ATOM     16  C   UNL     1       6.141   3.651  13.649  0.00  0.00    +0.000 A 
BRANCH  10  18
ATOM     17  N   UNL     1       5.774   1.202  11.173  0.00  0.00    +0.000 NA
ATOM     18  C   UNL     1       6.100   2.196  11.676  0.00  0.00    +0.000 C 
ENDBRANCH  10  18
ENDBRANCH   1  15
BRANCH   7  19
ATOM     19  C   UNL     1       2.734   3.397  18.246  0.00  0.00    +0.000 C 
ATOM     20  C   UNL     1       2.738   2.056  18.979  0.00  0.00    +0.000 C 
ATOM     21  C   UNL     1       1.310   1.549  18.826  0.00  0.00    +0.000 C 
ATOM     22  C   UNL     1       0.427   2.790  18.700  0.00  0.00    +0.000 C 
ATOM     23  C   UNL     1       1.363   3.990  18.574  0.00  0.00    +0.000 C 
ENDBRANCH   7  19
BRANCH   6  24
ATOM     24  O   UNL     1       3.339   4.747  20.838  0.00  0.00    +0.000 OA
ATOM     25  H   UNL     1       2.729   4.037  20.564  0.00  0.00    +0.000 HD
ENDBRANCH   6  24
TORSDOF 4
ENDMDL
