MODEL 1
REMARK VINA RESULT:      -6.9      0.000      0.000
REMARK  Name = 
REMARK  5 active torsions:
REMARK  status: ('A' for Active; 'I' for Inactive)
REMARK    1  A    between atoms: C_3  and  C_4
REMARK    2  A    between atoms: C_4  and  C_5
REMARK    3  A    between atoms: C_5  and  C_6
REMARK    4  A    between atoms: C_6  and  O_7
REMARK    5  A    between atoms: O_7  and  C_8
REMARK                            x       y       z     vdW  Elec       q    Type
REMARK                         _______ _______ _______ _____ _____    ______ ____
ROOT
ATOM      1  O   UNL     1       2.086   6.248  19.816  0.00  0.00    +0.000 OA
ENDROOT
BRANCH   1   2
ATOM      2  C   UNL     1       3.060   5.765  18.986  0.00  0.00    +0.000 A 
ATOM      3  C   UNL     1       2.614   5.125  17.832  0.00  0.00    +0.000 A 
ATOM      4  C   UNL     1       3.529   4.604  16.915  0.00  0.00    +0.000 A 
ATOM      5  C   UNL     1       4.909   4.710  17.147  0.00  0.00    +0.000 A 
ATOM      6  C   UNL     1       5.359   5.307  18.335  0.00  0.00    +0.000 A 
ATOM      7  C   UNL     1       4.429   5.835  19.244  0.00  0.00    +0.000 A 
ATOM      8  C   UNL     1       6.827   5.460  18.644  0.00  0.00    +0.000 C 
ATOM      9  C   UNL     1       7.724   4.572  17.784  0.00  0.00    +0.000 C 
ATOM     10  C   UNL     1       7.302   4.649  16.323  0.00  0.00    +0.000 C 
ATOM     11  C   UNL     1       5.877   4.124  16.149  0.00  0.00    +0.000 C 
ENDBRANCH   1   2
BRANCH   1  12
ATOM     12  C   UNL     1       1.791   5.439  20.959  0.00  0.00    +0.000 C 
BRANCH  12  13
ATOM     13  C   UNL     1       1.021   4.202  20.508  0.00  0.00    +0.000 C 
BRANCH  13  14
ATOM     14  C   UNL     1       1.651   2.929  21.080  0.00  0.00    +0.000 C 
BRANCH  14  17
ATOM     15  C   UNL     1       3.699   1.435  18.585  0.00  0.00    +0.000 A 
ATOM     16  N   UNL     1       2.522   1.799  19.038  0.00  0.00    +0.000 NA
ATOM     17  C   UNL     1       2.766   2.415  20.243  0.00  0.00    +0.000 A 
ATOM     18  C   UNL     1       4.119   2.429  20.506  0.00  0.00    +0.000 A 
ATOM     19  N   UNL     1       4.697   1.802  19.441  0.00  0.00    +0.000 N 
ATOM     20  H   UNL     1       5.686   1.627  19.308  0.00  0.00    +0.000 HD
ENDBRANCH  14  17
ENDBRANCH  13  14
ENDBRANCH  12  13
ENDBRANCH   1  12
TORSDOF 5
ENDMDL
MODEL 2
REMARK VINA RESULT:      -6.9      0.799      1.733
REMARK  Name = 
REMARK  5 active torsions:
REMARK  status: ('A' for Active; 'I' for Inactive)
REMARK    1  A    between atoms: C_3  and  C_4
REMARK    2  A    between atoms: C_4  and  C_5
REMARK    3  A    between atoms: C_5  and  C_6
REMARK    4  A    between atoms: C_6  and  O_7
REMARK    5  A    between atoms: O_7  and  C_8
REMARK                            x       y       z     vdW  Elec       q    Type
REMARK                         _______ _______ _______ _____ _____    ______ ____
ROOT
ATOM      1  O   UNL     1       2.274   6.004  19.460  0.00  0.00    +0.000 OA
ENDROOT
BRANCH   1   2
ATOM      2  C   UNL     1       3.446   5.688  18.829  0.00  0.00    +0.000 A 
ATOM      3  C   UNL     1       4.562   5.548  19.651  0.00  0.00    +0.000 A 
ATOM      4  C   UNL     1       5.804   5.218  19.105  0.00  0.00    +0.000 A 
ATOM      5  C   UNL     1       5.947   5.032  17.722  0.00  0.00    +0.000 A 
ATOM      6  C   UNL     1       4.836   5.225  16.886  0.00  0.00    +0.000 A 
ATOM      7  C   UNL     1       3.591   5.547  17.449  0.00  0.00    +0.000 A 
ATOM      8  C   UNL     1       4.918   5.035  15.392  0.00  0.00    +0.000 C 
ATOM      9  C   UNL     1       6.349   5.026  14.860  0.00  0.00    +0.000 C 
ATOM     10  C   UNL     1       7.233   4.142  15.731  0.00  0.00    +0.000 C 
ATOM     11  C   UNL     1       7.303   4.693  17.154  0.00  0.00    +0.000 C 
ENDBRANCH   1   2
BRANCH   1  12
ATOM     12  C   UNL     1       2.005   5.275  20.663  0.00  0.00    +0.000 C 
BRANCH  12  13
ATOM     13  C   UNL     1       0.922   4.239  20.384  0.00  0.00    +0.000 C 
BRANCH  13  14
ATOM     14  C   UNL     1       1.423   2.828  20.698  0.00  0.00    +0.000 C 
BRANCH  14  17
ATOM     15  C   UNL     1       3.504   1.780  18.010  0.00  0.00    +0.000 A 
ATOM     16  N   UNL     1       2.339   2.165  18.478  0.00  0.00    +0.000 NA
ATOM     17  C   UNL     1       2.543   2.408  19.816  0.00  0.00    +0.000 A 
ATOM     18  C   UNL     1       3.861   2.176  20.148  0.00  0.00    +0.000 A 
ATOM     19  N   UNL     1       4.458   1.777  18.986  0.00  0.00    +0.000 N 
ATOM     20  H   UNL     1       5.428   1.515  18.866  0.00  0.00    +0.000 HD
ENDBRANCH  14  17
ENDBRANCH  13  14
ENDBRANCH  12  13
ENDBRANCH   1  12
TORSDOF 5
ENDMDL
MODEL 3
REMARK VINA RESULT:      -6.7      2.535      5.487
REMARK  Name = 
REMARK  5 active torsions:
REMARK  status: ('A' for Active; 'I' for Inactive)
REMARK    1  A    between atoms: C_3  and  C_4
REMARK    2  A    between atoms: C_4  and  C_5
REMARK    3  A    between atoms: C_5  and  C_6
REMARK    4  A    between atoms: C_6  and  O_7
REMARK    5  A    between atoms: O_7  and  C_8
REMARK                            x       y       z     vdW  Elec       q    Type
REMARK                         _______ _______ _______ _____ _____    ______ ____
ROOT
ATOM      1  O   UNL     1       4.595   6.824  16.790  0.00  0.00    +0.000 OA
ENDROOT
BRANCH   1   2
ATOM      2  C   UNL     1       3.774   6.125  17.633  0.00  0.00    +0.000 A 
ATOM      3  C   UNL     1       3.294   6.828  18.736  0.00  0.00    +0.000 A 
ATOM      4  C   UNL     1       2.442   6.207  19.652  0.00  0.00    +0.000 A 
ATOM      5  C   UNL     1       2.065   4.867  19.478  0.00  0.00    +0.000 A 
ATOM      6  C   UNL     1       2.590   4.142  18.397  0.00  0.00    +0.000 A 
ATOM      7  C   UNL     1       3.438   4.781  17.478  0.00  0.00    +0.000 A 
ATOM      8  C   UNL     1       2.221   2.701  18.148  0.00  0.00    +0.000 C 
ATOM      9  C   UNL     1       1.588   2.019  19.359  0.00  0.00    +0.000 C 
ATOM     10  C   UNL     1       0.527   2.919  19.979  0.00  0.00    +0.000 C 
ATOM     11  C   UNL     1       1.157   4.214  20.491  0.00  0.00    +0.000 C 
ENDBRANCH   1   2
BRANCH   1  12
ATOM     12  C   UNL     1       5.948   6.977  17.232  0.00  0.00    +0.000 C 
BRANCH  12  13
ATOM     13  C   UNL     1       6.355   5.739  18.024  0.00  0.00    +0.000 C 
BRANCH  13  14
ATOM     14  C   UNL     1       7.448   4.958  17.291  0.00  0.00    +0.000 C 
BRANCH  14  17
ATOM     15  C   UNL     1       7.022   4.767  13.765  0.00  0.00    +0.000 A 
ATOM     16  N   UNL     1       7.588   5.293  14.826  0.00  0.00    +0.000 NA
ATOM     17  C   UNL     1       7.067   4.607  15.898  0.00  0.00    +0.000 A 
ATOM     18  C   UNL     1       6.180   3.645  15.464  0.00  0.00    +0.000 A 
ATOM     19  N   UNL     1       6.164   3.761  14.103  0.00  0.00    +0.000 N 
ATOM     20  H   UNL     1       5.611   3.211  13.458  0.00  0.00    +0.000 HD
ENDBRANCH  14  17
ENDBRANCH  13  14
ENDBRANCH  12  13
ENDBRANCH   1  12
TORSDOF 5
ENDMDL
MODEL 4
REMARK VINA RESULT:      -6.7      2.792      5.731
REMARK  Name = 
REMARK  5 active torsions:
REMARK  status: ('A' for Active; 'I' for Inactive)
REMARK    1  A    between atoms: C_3  and  C_4
REMARK    2  A    between atoms: C_4  and  C_5
REMARK    3  A    between atoms: C_5  and  C_6
REMARK    4  A    between atoms: C_6  and  O_7
REMARK    5  A    between atoms: O_7  and  C_8
REMARK                            x       y       z     vdW  Elec       q    Type
REMARK                         _______ _______ _______ _____ _____    ______ ____
ROOT
ATOM      1  O   UNL     1       4.800   5.980  16.034  0.00  0.00    +0.000 OA
ENDROOT
BRANCH   1   2
ATOM      2  C   UNL     1       4.004   5.624  17.088  0.00  0.00    +0.000 A 
ATOM      3  C   UNL     1       3.584   6.665  17.913  0.00  0.00    +0.000 A 
ATOM      4  C   UNL     1       2.761   6.407  19.011  0.00  0.00    +0.000 A 
ATOM      5  C   UNL     1       2.354   5.097  19.304  0.00  0.00    +0.000 A 
ATOM      6  C   UNL     1       2.821   4.040  18.506  0.00  0.00    +0.000 A 
ATOM      7  C   UNL     1       3.639   4.315  17.399  0.00  0.00    +0.000 A 
ATOM      8  C   UNL     1       2.417   2.610  18.760  0.00  0.00    +0.000 C 
ATOM      9  C   UNL     1       1.825   2.385  20.150  0.00  0.00    +0.000 C 
ATOM     10  C   UNL     1       0.806   3.471  20.474  0.00  0.00    +0.000 C 
ATOM     11  C   UNL     1       1.479   4.842  20.506  0.00  0.00    +0.000 C 
ENDBRANCH   1   2
BRANCH   1  12
ATOM     12  C   UNL     1       5.327   4.895  15.263  0.00  0.00    +0.000 C 
BRANCH  12  13
ATOM     13  C   UNL     1       6.846   4.878  15.402  0.00  0.00    +0.000 C 
BRANCH  13  14
ATOM     14  C   UNL     1       7.258   4.543  16.837  0.00  0.00    +0.000 C 
BRANCH  14  17
ATOM     15  C   UNL     1       8.082   7.810  17.978  0.00  0.00    +0.000 A 
ATOM     16  N   UNL     1       7.676   6.991  17.035  0.00  0.00    +0.000 NA
ATOM     17  C   UNL     1       7.638   5.747  17.621  0.00  0.00    +0.000 A 
ATOM     18  C   UNL     1       8.017   5.830  18.943  0.00  0.00    +0.000 A 
ATOM     19  N   UNL     1       8.295   7.151  19.153  0.00  0.00    +0.000 N 
ATOM     20  H   UNL     1       8.614   7.569  20.018  0.00  0.00    +0.000 HD
ENDBRANCH  14  17
ENDBRANCH  13  14
ENDBRANCH  12  13
ENDBRANCH   1  12
TORSDOF 5
ENDMDL
MODEL 5
REMARK VINA RESULT:      -6.6      5.338      7.752
REMARK  Name = 
REMARK  5 active torsions:
REMARK  status: ('A' for Active; 'I' for Inactive)
REMARK    1  A    between atoms: C_3  and  C_4
REMARK    2  A    between atoms: C_4  and  C_5
REMARK    3  A    between atoms: C_5  and  C_6
REMARK    4  A    between atoms: C_6  and  O_7
REMARK    5  A    between atoms: O_7  and  C_8
REMARK                            x       y       z     vdW  Elec       q    Type
REMARK                         _______ _______ _______ _____ _____    ______ ____
ROOT
ATOM      1  O   UNL     1       7.484   7.111  16.754  0.00  0.00    +0.000 OA
ENDROOT
BRANCH   1   2
ATOM      2  C   UNL     1       6.434   6.238  16.841  0.00  0.00    +0.000 A 
ATOM      3  C   UNL     1       6.625   4.996  16.239  0.00  0.00    +0.000 A 
ATOM      4  C   UNL     1       5.617   4.030  16.280  0.00  0.00    +0.000 A 
ATOM      5  C   UNL     1       4.397   4.300  16.919  0.00  0.00    +0.000 A 
ATOM      6  C   UNL     1       4.183   5.569  17.479  0.00  0.00    +0.000 A 
ATOM      7  C   UNL     1       5.209   6.527  17.440  0.00  0.00    +0.000 A 
ATOM      8  C   UNL     1       2.900   5.923  18.186  0.00  0.00    +0.000 C 
ATOM      9  C   UNL     1       1.754   4.961  17.880  0.00  0.00    +0.000 C 
ATOM     10  C   UNL     1       2.234   3.518  17.976  0.00  0.00    +0.000 C 
ATOM     11  C   UNL     1       3.318   3.245  16.934  0.00  0.00    +0.000 C 
ENDBRANCH   1   2
BRANCH   1  12
ATOM     12  C   UNL     1       7.922   7.676  17.995  0.00  0.00    +0.000 C 
BRANCH  12  13
ATOM     13  C   UNL     1       8.138   9.174  17.811  0.00  0.00    +0.000 C 
BRANCH  13  14
ATOM     14  C   UNL     1       9.049   9.732  18.907  0.00  0.00    +0.000 C 
BRANCH  14  17
ATOM     15  C   UNL     1       9.373  13.082  17.757  0.00  0.00    +0.000 A 
ATOM     16  N   UNL     1       8.754  11.924  17.762  0.00  0.00    +0.000 NA
ATOM     17  C   UNL     1       9.440  11.144  18.663  0.00  0.00    +0.000 A 
ATOM     18  C   UNL     1      10.483  11.858  19.215  0.00  0.00    +0.000 A 
ATOM     19  N   UNL     1      10.424  13.089  18.627  0.00  0.00    +0.000 N 
ATOM     20  H   UNL     1      11.051  13.866  18.794  0.00  0.00    +0.000 HD
ENDBRANCH  14  17
ENDBRANCH  13  14
ENDBRANCH  12  13
ENDBRANCH   1  12
TORSDOF 5
ENDMDL
MODEL 6
REMARK VINA RESULT:      -6.6      2.449      4.756
REMARK  Name = 
REMARK  5 active torsions:
REMARK  status: ('A' for Active; 'I' for Inactive)
REMARK    1  A    between atoms: C_3  and  C_4
REMARK    2  A    between atoms: C_4  and  C_5
REMARK    3  A    between atoms: C_5  and  C_6
REMARK    4  A    between atoms: C_6  and  O_7
REMARK    5  A    between atoms: O_7  and  C_8
REMARK                            x       y       z     vdW  Elec       q    Type
REMARK                         _______ _______ _______ _____ _____    ______ ____
ROOT
ATOM      1  O   UNL     1       4.188   4.953  18.357  0.00  0.00    +0.000 OA
ENDROOT
BRANCH   1   2
ATOM      2  C   UNL     1       3.433   6.072  18.584  0.00  0.00    +0.000 A 
ATOM      3  C   UNL     1       3.428   7.019  17.563  0.00  0.00    +0.000 A 
ATOM      4  C   UNL     1       2.682   8.193  17.693  0.00  0.00    +0.000 A 
ATOM      5  C   UNL     1       1.936   8.438  18.855  0.00  0.00    +0.000 A 
ATOM      6  C   UNL     1       1.984   7.509  19.908  0.00  0.00    +0.000 A 
ATOM      7  C   UNL     1       2.730   6.329  19.760  0.00  0.00    +0.000 A 
ATOM      8  C   UNL     1       1.201   7.707  21.182  0.00  0.00    +0.000 C 
ATOM      9  C   UNL     1       0.714   9.141  21.378  0.00  0.00    +0.000 C 
ATOM     10  C   UNL     1       0.102   9.674  20.088  0.00  0.00    +0.000 C 
ATOM     11  C   UNL     1       1.152   9.721  18.979  0.00  0.00    +0.000 C 
ENDBRANCH   1   2
BRANCH   1  12
ATOM     12  C   UNL     1       3.888   4.240  17.153  0.00  0.00    +0.000 C 
BRANCH  12  13
ATOM     13  C   UNL     1       2.606   3.439  17.355  0.00  0.00    +0.000 C 
BRANCH  13  14
ATOM     14  C   UNL     1       2.857   2.229  18.258  0.00  0.00    +0.000 C 
BRANCH  14  17
ATOM     15  C   UNL     1       1.249   3.058  21.321  0.00  0.00    +0.000 A 
ATOM     16  N   UNL     1       1.220   2.877  20.021  0.00  0.00    +0.000 NA
ATOM     17  C   UNL     1       2.493   2.487  19.676  0.00  0.00    +0.000 A 
ATOM     18  C   UNL     1       3.292   2.421  20.797  0.00  0.00    +0.000 A 
ATOM     19  N   UNL     1       2.484   2.787  21.835  0.00  0.00    +0.000 N 
ATOM     20  H   UNL     1       2.750   2.857  22.809  0.00  0.00    +0.000 HD
ENDBRANCH  14  17
ENDBRANCH  13  14
ENDBRANCH  12  13
ENDBRANCH   1  12
TORSDOF 5
ENDMDL
MODEL 7
REMARK VINA RESULT:      -6.6      2.539      5.421
REMARK  Name = 
REMARK  5 active torsions:
REMARK  status: ('A' for Active; 'I' for Inactive)
REMARK    1  A    between atoms: C_3  and  C_4
REMARK    2  A    between atoms: C_4  and  C_5
REMARK    3  A    between atoms: C_5  and  C_6
REMARK    4  A    between atoms: C_6  and  O_7
REMARK    5  A    between atoms: O_7  and  C_8
REMARK                            x       y       z     vdW  Elec       q    Type
REMARK                         _______ _______ _______ _____ _____    ______ ____
ROOT
ATOM      1  O   UNL     1       4.269   7.106  17.590  0.00  0.00    +0.000 OA
ENDROOT
BRANCH   1   2
ATOM      2  C   UNL     1       3.680   5.970  18.076  0.00  0.00    +0.000 A 
ATOM      3  C   UNL     1       3.464   4.953  17.149  0.00  0.00    +0.000 A 
ATOM      4  C   UNL     1       2.877   3.749  17.546  0.00  0.00    +0.000 A 
ATOM      5  C   UNL     1       2.489   3.552  18.880  0.00  0.00    +0.000 A 
ATOM      6  C   UNL     1       2.656   4.596  19.803  0.00  0.00    +0.000 A 
ATOM      7  C   UNL     1       3.257   5.797  19.393  0.00  0.00    +0.000 A 
ATOM      8  C   UNL     1       2.268   4.449  21.253  0.00  0.00    +0.000 C 
ATOM      9  C   UNL     1       1.335   3.269  21.513  0.00  0.00    +0.000 C 
ATOM     10  C   UNL     1       1.838   2.025  20.792  0.00  0.00    +0.000 C 
ATOM     11  C   UNL     1       1.841   2.250  19.280  0.00  0.00    +0.000 C 
ENDBRANCH   1   2
BRANCH   1  12
ATOM     12  C   UNL     1       5.253   6.903  16.571  0.00  0.00    +0.000 C 
BRANCH  12  13
ATOM     13  C   UNL     1       6.622   6.753  17.225  0.00  0.00    +0.000 C 
BRANCH  13  14
ATOM     14  C   UNL     1       7.136   5.318  17.091  0.00  0.00    +0.000 C 
BRANCH  14  17
ATOM     15  C   UNL     1       7.170   4.659  13.596  0.00  0.00    +0.000 A 
ATOM     16  N   UNL     1       7.566   5.353  14.638  0.00  0.00    +0.000 NA
ATOM     17  C   UNL     1       6.954   4.769  15.722  0.00  0.00    +0.000 A 
ATOM     18  C   UNL     1       6.187   3.698  15.317  0.00  0.00    +0.000 A 
ATOM     19  N   UNL     1       6.337   3.642  13.961  0.00  0.00    +0.000 N 
ATOM     20  H   UNL     1       5.902   2.977  13.334  0.00  0.00    +0.000 HD
ENDBRANCH  14  17
ENDBRANCH  13  14
ENDBRANCH  12  13
ENDBRANCH   1  12
TORSDOF 5
ENDMDL
MODEL 8
REMARK VINA RESULT:      -6.5      5.052      7.089
REMARK  Name = 
REMARK  5 active torsions:
REMARK  status: ('A' for Active; 'I' for Inactive)
REMARK    1  A    between atoms: C_3  and  C_4
REMARK    2  A    between atoms: C_4  and  C_5
REMARK    3  A    between atoms: C_5  and  C_6
REMARK    4  A    between atoms: C_6  and  O_7
REMARK    5  A    between atoms: O_7  and  C_8
REMARK                            x       y       z     vdW  Elec       q    Type
REMARK                         _______ _______ _______ _____ _____    ______ ____
ROOT
ATOM      1  O   UNL     1       2.778   8.488  18.396  0.00  0.00    +0.000 OA
ENDROOT
BRANCH   1   2
ATOM      2  C   UNL     1       2.445   7.221  18.793  0.00  0.00    +0.000 A 
ATOM      3  C   UNL     1       2.060   7.083  20.125  0.00  0.00    +0.000 A 
ATOM      4  C   UNL     1       1.693   5.832  20.626  0.00  0.00    +0.000 A 
ATOM      5  C   UNL     1       1.714   4.699  19.800  0.00  0.00    +0.000 A 
ATOM      6  C   UNL     1       2.154   4.827  18.473  0.00  0.00    +0.000 A 
ATOM      7  C   UNL     1       2.511   6.092  17.979  0.00  0.00    +0.000 A 
ATOM      8  C   UNL     1       2.195   3.652  17.529  0.00  0.00    +0.000 C 
ATOM      9  C   UNL     1       2.121   2.302  18.239  0.00  0.00    +0.000 C 
ATOM     10  C   UNL     1       1.022   2.317  19.294  0.00  0.00    +0.000 C 
ATOM     11  C   UNL     1       1.329   3.357  20.371  0.00  0.00    +0.000 C 
ENDBRANCH   1   2
BRANCH   1  12
ATOM     12  C   UNL     1       1.757   9.202  17.692  0.00  0.00    +0.000 C 
BRANCH  12  13
ATOM     13  C   UNL     1       1.274  10.361  18.557  0.00  0.00    +0.000 C 
BRANCH  13  14
ATOM     14  C   UNL     1      -0.102  10.058  19.155  0.00  0.00    +0.000 C 
BRANCH  14  17
ATOM     15  C   UNL     1      -2.556  11.002  16.759  0.00  0.00    +0.000 A 
ATOM     16  N   UNL     1      -1.599  10.201  17.169  0.00  0.00    +0.000 NA
ATOM     17  C   UNL     1      -1.210  10.691  18.394  0.00  0.00    +0.000 A 
ATOM     18  C   UNL     1      -1.961  11.799  18.725  0.00  0.00    +0.000 A 
ATOM     19  N   UNL     1      -2.812  11.982  17.674  0.00  0.00    +0.000 N 
ATOM     20  H   UNL     1      -3.503  12.716  17.578  0.00  0.00    +0.000 HD
ENDBRANCH  14  17
ENDBRANCH  13  14
ENDBRANCH  12  13
ENDBRANCH   1  12
TORSDOF 5
ENDMDL
MODEL 9
REMARK VINA RESULT:      -6.5      5.542      8.015
REMARK  Name = 
REMARK  5 active torsions:
REMARK  status: ('A' for Active; 'I' for Inactive)
REMARK    1  A    between atoms: C_3  and  C_4
REMARK    2  A    between atoms: C_4  and  C_5
REMARK    3  A    between atoms: C_5  and  C_6
REMARK    4  A    between atoms: C_6  and  O_7
REMARK    5  A    between atoms: O_7  and  C_8
REMARK                            x       y       z     vdW  Elec       q    Type
REMARK                         _______ _______ _______ _____ _____    ______ ____
ROOT
ATOM      1  O   UNL     1       7.761   7.592  16.936  0.00  0.00    +0.000 OA
ENDROOT
BRANCH   1   2
ATOM      2  C   UNL     1       6.741   6.682  16.994  0.00  0.00    +0.000 A 
ATOM      3  C   UNL     1       6.995   5.444  16.406  0.00  0.00    +0.000 A 
ATOM      4  C   UNL     1       6.021   4.443  16.421  0.00  0.00    +0.000 A 
ATOM      5  C   UNL     1       4.773   4.672  17.018  0.00  0.00    +0.000 A 
ATOM      6  C   UNL     1       4.496   5.936  17.562  0.00  0.00    +0.000 A 
ATOM      7  C   UNL     1       5.487   6.930  17.550  0.00  0.00    +0.000 A 
ATOM      8  C   UNL     1       3.177   6.247  18.225  0.00  0.00    +0.000 C 
ATOM      9  C   UNL     1       2.077   5.243  17.889  0.00  0.00    +0.000 C 
ATOM     10  C   UNL     1       2.605   3.819  18.009  0.00  0.00    +0.000 C 
ATOM     11  C   UNL     1       3.732   3.580  17.005  0.00  0.00    +0.000 C 
ENDBRANCH   1   2
BRANCH   1  12
ATOM     12  C   UNL     1       8.134   8.182  18.185  0.00  0.00    +0.000 C 
BRANCH  12  13
ATOM     13  C   UNL     1       8.477   9.650  17.958  0.00  0.00    +0.000 C 
BRANCH  13  14
ATOM     14  C   UNL     1       9.133  10.256  19.202  0.00  0.00    +0.000 C 
BRANCH  14  17
ATOM     15  C   UNL     1      12.158  12.126  19.260  0.00  0.00    +0.000 A 
ATOM     16  N   UNL     1      11.232  11.420  19.867  0.00  0.00    +0.000 NA
ATOM     17  C   UNL     1      10.351  11.043  18.881  0.00  0.00    +0.000 A 
ATOM     18  C   UNL     1      10.770  11.524  17.659  0.00  0.00    +0.000 A 
ATOM     19  N   UNL     1      11.921  12.210  17.919  0.00  0.00    +0.000 N 
ATOM     20  H   UNL     1      12.494  12.704  17.246  0.00  0.00    +0.000 HD
ENDBRANCH  14  17
ENDBRANCH  13  14
ENDBRANCH  12  13
ENDBRANCH   1  12
TORSDOF 5
ENDMDL
