MODEL 1
REMARK VINA RESULT:      -6.0      0.000      0.000
REMARK  Name = 
REMARK  6 active torsions:
REMARK  status: ('A' for Active; 'I' for Inactive)
REMARK    1  A    between atoms: C_1  and  C_2
REMARK    2  A    between atoms: C_6  and  S_7
REMARK    3  A    between atoms: S_7  and  C_8
REMARK    4  A    between atoms: C_8  and  C_9
REMARK    5  A    between atoms: C_8  and  C_10
REMARK    6  A    between atoms: C_15  and  C_16
REMARK                            x       y       z     vdW  Elec       q    Type
REMARK                         _______ _______ _______ _____ _____    ______ ____
ROOT
ATOM      1  C   UNL     1       1.772   2.499  21.618  0.00  0.00    +0.000 C 
ATOM      2  C   UNL     1       2.643   3.254  20.666  0.00  0.00    +0.000 A 
ATOM      3  S   UNL     1       4.067   2.529  20.070  0.00  0.00    +0.000 S 
ATOM      4  C   UNL     1       4.449   3.891  19.131  0.00  0.00    +0.000 A 
ATOM      5  N   UNL     1       5.562   3.887  18.381  0.00  0.00    +0.000 NA
ATOM      6  C   UNL     1       5.719   5.005  17.675  0.00  0.00    +0.000 A 
ATOM      7  N   UNL     1       4.901   6.069  17.691  0.00  0.00    +0.000 NA
ATOM      8  C   UNL     1       3.805   6.051  18.467  0.00  0.00    +0.000 A 
ATOM      9  N   UNL     1       3.039   7.212  18.426  0.00  0.00    +0.000 N 
ATOM     10  C   UNL     1       3.519   4.915  19.246  0.00  0.00    +0.000 A 
ATOM     11  C   UNL     1       2.450   4.537  20.164  0.00  0.00    +0.000 A 
ATOM     12  C   UNL     1       1.268   5.371  20.549  0.00  0.00    +0.000 C 
ATOM     13  H   UNL     1       3.558   7.926  17.925  0.00  0.00    +0.000 HD
ATOM     14  H   UNL     1       2.707   7.511  19.334  0.00  0.00    +0.000 HD
ENDROOT
BRANCH   6  15
ATOM     15  S   UNL     1       7.153   5.172  16.633  0.00  0.00    +0.000 S 
BRANCH  15  16
ATOM     16  C   UNL     1       6.422   5.038  14.956  0.00  0.00    +0.000 C 
ATOM     17  C   UNL     1       7.492   5.128  13.870  0.00  0.00    +0.000 C 
ATOM     18  C   UNL     1       5.709   3.687  14.869  0.00  0.00    +0.000 C 
ENDBRANCH  15  16
ENDBRANCH   6  15
TORSDOF 2
ENDMDL
MODEL 2
REMARK VINA RESULT:      -5.9      2.689      3.836
REMARK  Name = 
REMARK  6 active torsions:
REMARK  status: ('A' for Active; 'I' for Inactive)
REMARK    1  A    between atoms: C_1  and  C_2
REMARK    2  A    between atoms: C_6  and  S_7
REMARK    3  A    between atoms: S_7  and  C_8
REMARK    4  A    between atoms: C_8  and  C_9
REMARK    5  A    between atoms: C_8  and  C_10
REMARK    6  A    between atoms: C_15  and  C_16
REMARK                            x       y       z     vdW  Elec       q    Type
REMARK                         _______ _______ _______ _____ _____    ______ ____
ROOT
ATOM      1  C   UNL     1       3.643   3.691  19.691  0.00  0.00    +0.000 C 
ATOM      2  C   UNL     1       4.413   3.951  18.436  0.00  0.00    +0.000 A 
ATOM      3  S   UNL     1       4.032   3.084  17.018  0.00  0.00    +0.000 S 
ATOM      4  C   UNL     1       5.229   3.890  16.122  0.00  0.00    +0.000 A 
ATOM      5  N   UNL     1       5.400   3.588  14.825  0.00  0.00    +0.000 NA
ATOM      6  C   UNL     1       6.350   4.317  14.242  0.00  0.00    +0.000 A 
ATOM      7  N   UNL     1       7.108   5.249  14.841  0.00  0.00    +0.000 NA
ATOM      8  C   UNL     1       6.927   5.515  16.145  0.00  0.00    +0.000 A 
ATOM      9  N   UNL     1       7.779   6.480  16.671  0.00  0.00    +0.000 N 
ATOM     10  C   UNL     1       5.937   4.822  16.867  0.00  0.00    +0.000 A 
ATOM     11  C   UNL     1       5.455   4.852  18.244  0.00  0.00    +0.000 A 
ATOM     12  C   UNL     1       5.966   5.724  19.349  0.00  0.00    +0.000 C 
ATOM     13  H   UNL     1       8.498   6.686  15.985  0.00  0.00    +0.000 HD
ATOM     14  H   UNL     1       8.144   6.244  17.585  0.00  0.00    +0.000 HD
ENDROOT
BRANCH   6  15
ATOM     15  S   UNL     1       6.717   4.038  12.522  0.00  0.00    +0.000 S 
BRANCH  15  16
ATOM     16  C   UNL     1       5.524   2.714  12.089  0.00  0.00    +0.000 C 
ATOM     17  C   UNL     1       4.321   3.271  11.330  0.00  0.00    +0.000 C 
ATOM     18  C   UNL     1       6.259   1.694  11.219  0.00  0.00    +0.000 C 
ENDBRANCH  15  16
ENDBRANCH   6  15
TORSDOF 2
ENDMDL
MODEL 3
REMARK VINA RESULT:      -5.8      1.513      1.994
REMARK  Name = 
REMARK  6 active torsions:
REMARK  status: ('A' for Active; 'I' for Inactive)
REMARK    1  A    between atoms: C_1  and  C_2
REMARK    2  A    between atoms: C_6  and  S_7
REMARK    3  A    between atoms: S_7  and  C_8
REMARK    4  A    between atoms: C_8  and  C_9
REMARK    5  A    between atoms: C_8  and  C_10
REMARK    6  A    between atoms: C_15  and  C_16
REMARK                            x       y       z     vdW  Elec       q    Type
REMARK                         _______ _______ _______ _____ _____    ______ ____
ROOT
ATOM      1  C   UNL     1       1.893   2.364  21.711  0.00  0.00    +0.000 C 
ATOM      2  C   UNL     1       2.644   3.211  20.734  0.00  0.00    +0.000 A 
ATOM      3  S   UNL     1       4.112   2.642  20.079  0.00  0.00    +0.000 S 
ATOM      4  C   UNL     1       4.314   4.042  19.138  0.00  0.00    +0.000 A 
ATOM      5  N   UNL     1       5.392   4.158  18.348  0.00  0.00    +0.000 NA
ATOM      6  C   UNL     1       5.405   5.290  17.646  0.00  0.00    +0.000 A 
ATOM      7  N   UNL     1       4.481   6.263  17.703  0.00  0.00    +0.000 NA
ATOM      8  C   UNL     1       3.423   6.126  18.519  0.00  0.00    +0.000 A 
ATOM      9  N   UNL     1       2.540   7.201  18.518  0.00  0.00    +0.000 N 
ATOM     10  C   UNL     1       3.288   4.962  19.298  0.00  0.00    +0.000 A 
ATOM     11  C   UNL     1       2.300   4.470  20.252  0.00  0.00    +0.000 A 
ATOM     12  C   UNL     1       1.052   5.175  20.688  0.00  0.00    +0.000 C 
ATOM     13  H   UNL     1       2.963   7.968  18.005  0.00  0.00    +0.000 HD
ATOM     14  H   UNL     1       2.213   7.459  19.440  0.00  0.00    +0.000 HD
ENDROOT
BRANCH   6  15
ATOM     15  S   UNL     1       6.773   5.612  16.553  0.00  0.00    +0.000 S 
BRANCH  15  16
ATOM     16  C   UNL     1       7.855   6.661  17.597  0.00  0.00    +0.000 C 
ATOM     17  C   UNL     1       7.374   8.111  17.621  0.00  0.00    +0.000 C 
ATOM     18  C   UNL     1       7.832   6.085  19.014  0.00  0.00    +0.000 C 
ENDBRANCH  15  16
ENDBRANCH   6  15
TORSDOF 2
ENDMDL
MODEL 4
REMARK VINA RESULT:      -5.6      4.501      6.062
REMARK  Name = 
REMARK  6 active torsions:
REMARK  status: ('A' for Active; 'I' for Inactive)
REMARK    1  A    between atoms: C_1  and  C_2
REMARK    2  A    between atoms: C_6  and  S_7
REMARK    3  A    between atoms: S_7  and  C_8
REMARK    4  A    between atoms: C_8  and  C_9
REMARK    5  A    between atoms: C_8  and  C_10
REMARK    6  A    between atoms: C_15  and  C_16
REMARK                            x       y       z     vdW  Elec       q    Type
REMARK                         _______ _______ _______ _____ _____    ______ ____
ROOT
ATOM      1  C   UNL     1      -0.970  11.805  22.525  0.00  0.00    +0.000 C 
ATOM      2  C   UNL     1      -0.195  10.795  21.740  0.00  0.00    +0.000 A 
ATOM      3  S   UNL     1       0.246   9.318  22.470  0.00  0.00    +0.000 S 
ATOM      4  C   UNL     1       1.014   8.771  21.057  0.00  0.00    +0.000 A 
ATOM      5  N   UNL     1       1.593   7.560  21.046  0.00  0.00    +0.000 NA
ATOM      6  C   UNL     1       2.128   7.249  19.867  0.00  0.00    +0.000 A 
ATOM      7  N   UNL     1       2.144   8.034  18.777  0.00  0.00    +0.000 NA
ATOM      8  C   UNL     1       1.573   9.249  18.826  0.00  0.00    +0.000 A 
ATOM      9  N   UNL     1       1.665   9.987  17.650  0.00  0.00    +0.000 N 
ATOM     10  C   UNL     1       0.956   9.683  20.014  0.00  0.00    +0.000 A 
ATOM     11  C   UNL     1       0.243  10.888  20.423  0.00  0.00    +0.000 A 
ATOM     12  C   UNL     1      -0.025  12.096  19.580  0.00  0.00    +0.000 C 
ATOM     13  H   UNL     1       2.303   9.512  17.018  0.00  0.00    +0.000 HD
ATOM     14  H   UNL     1       1.891  10.962  17.800  0.00  0.00    +0.000 HD
ENDROOT
BRANCH   6  15
ATOM     15  S   UNL     1       2.949   5.681  19.678  0.00  0.00    +0.000 S 
BRANCH  15  16
ATOM     16  C   UNL     1       2.704   5.335  17.895  0.00  0.00    +0.000 C 
ATOM     17  C   UNL     1       3.930   4.663  17.280  0.00  0.00    +0.000 C 
ATOM     18  C   UNL     1       1.489   4.414  17.764  0.00  0.00    +0.000 C 
ENDBRANCH  15  16
ENDBRANCH   6  15
TORSDOF 2
ENDMDL
MODEL 5
REMARK VINA RESULT:      -5.5      1.419      2.542
REMARK  Name = 
REMARK  6 active torsions:
REMARK  status: ('A' for Active; 'I' for Inactive)
REMARK    1  A    between atoms: C_1  and  C_2
REMARK    2  A    between atoms: C_6  and  S_7
REMARK    3  A    between atoms: S_7  and  C_8
REMARK    4  A    between atoms: C_8  and  C_9
REMARK    5  A    between atoms: C_8  and  C_10
REMARK    6  A    between atoms: C_15  and  C_16
REMARK                            x       y       z     vdW  Elec       q    Type
REMARK                         _______ _______ _______ _____ _____    ______ ____
ROOT
ATOM      1  C   UNL     1       0.887   6.384  20.832  0.00  0.00    +0.000 C 
ATOM      2  C   UNL     1       2.112   5.873  20.144  0.00  0.00    +0.000 A 
ATOM      3  S   UNL     1       2.901   6.850  18.991  0.00  0.00    +0.000 S 
ATOM      4  C   UNL     1       4.093   5.674  18.709  0.00  0.00    +0.000 A 
ATOM      5  N   UNL     1       5.067   5.918  17.818  0.00  0.00    +0.000 NA
ATOM      6  C   UNL     1       5.947   4.924  17.722  0.00  0.00    +0.000 A 
ATOM      7  N   UNL     1       5.903   3.764  18.397  0.00  0.00    +0.000 NA
ATOM      8  C   UNL     1       4.905   3.540  19.268  0.00  0.00    +0.000 A 
ATOM      9  N   UNL     1       4.943   2.299  19.897  0.00  0.00    +0.000 N 
ATOM     10  C   UNL     1       3.922   4.527  19.472  0.00  0.00    +0.000 A 
ATOM     11  C   UNL     1       2.741   4.645  20.319  0.00  0.00    +0.000 A 
ATOM     12  C   UNL     1       2.226   3.617  21.280  0.00  0.00    +0.000 C 
ATOM     13  H   UNL     1       5.648   1.728  19.443  0.00  0.00    +0.000 HD
ATOM     14  H   UNL     1       4.038   1.852  19.965  0.00  0.00    +0.000 HD
ENDROOT
BRANCH   6  15
ATOM     15  S   UNL     1       7.300   5.077  16.575  0.00  0.00    +0.000 S 
BRANCH  15  16
ATOM     16  C   UNL     1       6.430   5.092  14.961  0.00  0.00    +0.000 C 
ATOM     17  C   UNL     1       7.414   5.049  13.794  0.00  0.00    +0.000 C 
ATOM     18  C   UNL     1       5.518   3.865  14.915  0.00  0.00    +0.000 C 
ENDBRANCH  15  16
ENDBRANCH   6  15
TORSDOF 2
ENDMDL
MODEL 6
REMARK VINA RESULT:      -5.5      2.975      4.186
REMARK  Name = 
REMARK  6 active torsions:
REMARK  status: ('A' for Active; 'I' for Inactive)
REMARK    1  A    between atoms: C_1  and  C_2
REMARK    2  A    between atoms: C_6  and  S_7
REMARK    3  A    between atoms: S_7  and  C_8
REMARK    4  A    between atoms: C_8  and  C_9
REMARK    5  A    between atoms: C_8  and  C_10
REMARK    6  A    between atoms: C_15  and  C_16
REMARK                            x       y       z     vdW  Elec       q    Type
REMARK                         _______ _______ _______ _____ _____    ______ ____
ROOT
ATOM      1  C   UNL     1       0.504  10.440  19.716  0.00  0.00    +0.000 C 
ATOM      2  C   UNL     1       1.347   9.275  19.307  0.00  0.00    +0.000 A 
ATOM      3  S   UNL     1       2.103   9.277  17.778  0.00  0.00    +0.000 S 
ATOM      4  C   UNL     1       2.815   7.760  18.053  0.00  0.00    +0.000 A 
ATOM      5  N   UNL     1       3.593   7.212  17.105  0.00  0.00    +0.000 NA
ATOM      6  C   UNL     1       4.108   6.039  17.468  0.00  0.00    +0.000 A 
ATOM      7  N   UNL     1       3.887   5.407  18.631  0.00  0.00    +0.000 NA
ATOM      8  C   UNL     1       3.088   5.971  19.552  0.00  0.00    +0.000 A 
ATOM      9  N   UNL     1       2.910   5.222  20.711  0.00  0.00    +0.000 N 
ATOM     10  C   UNL     1       2.499   7.222  19.293  0.00  0.00    +0.000 A 
ATOM     11  C   UNL     1       1.621   8.121  20.033  0.00  0.00    +0.000 A 
ATOM     12  C   UNL     1       1.063   7.894  21.405  0.00  0.00    +0.000 C 
ATOM     13  H   UNL     1       3.302   4.297  20.563  0.00  0.00    +0.000 HD
ATOM     14  H   UNL     1       1.954   5.210  21.043  0.00  0.00    +0.000 HD
ENDROOT
BRANCH   6  15
ATOM     15  S   UNL     1       5.156   5.167  16.323  0.00  0.00    +0.000 S 
BRANCH  15  16
ATOM     16  C   UNL     1       6.823   5.760  16.806  0.00  0.00    +0.000 C 
ATOM     17  C   UNL     1       6.758   7.134  17.470  0.00  0.00    +0.000 C 
ATOM     18  C   UNL     1       7.412   4.740  17.783  0.00  0.00    +0.000 C 
ENDBRANCH  15  16
ENDBRANCH   6  15
TORSDOF 2
ENDMDL
MODEL 7
REMARK VINA RESULT:      -5.4      3.526      4.918
REMARK  Name = 
REMARK  6 active torsions:
REMARK  status: ('A' for Active; 'I' for Inactive)
REMARK    1  A    between atoms: C_1  and  C_2
REMARK    2  A    between atoms: C_6  and  S_7
REMARK    3  A    between atoms: S_7  and  C_8
REMARK    4  A    between atoms: C_8  and  C_9
REMARK    5  A    between atoms: C_8  and  C_10
REMARK    6  A    between atoms: C_15  and  C_16
REMARK                            x       y       z     vdW  Elec       q    Type
REMARK                         _______ _______ _______ _____ _____    ______ ____
ROOT
ATOM      1  C   UNL     1      -0.463  11.147  20.095  0.00  0.00    +0.000 C 
ATOM      2  C   UNL     1       0.478  10.066  19.667  0.00  0.00    +0.000 A 
ATOM      3  S   UNL     1       1.362  10.242  18.219  0.00  0.00    +0.000 S 
ATOM      4  C   UNL     1       2.135   8.744  18.429  0.00  0.00    +0.000 A 
ATOM      5  N   UNL     1       3.022   8.323  17.514  0.00  0.00    +0.000 NA
ATOM      6  C   UNL     1       3.571   7.150  17.822  0.00  0.00    +0.000 A 
ATOM      7  N   UNL     1       3.288   6.406  18.903  0.00  0.00    +0.000 NA
ATOM      8  C   UNL     1       2.381   6.845  19.792  0.00  0.00    +0.000 A 
ATOM      9  N   UNL     1       2.148   5.988  20.863  0.00  0.00    +0.000 N 
ATOM     10  C   UNL     1       1.745   8.084  19.586  0.00  0.00    +0.000 A 
ATOM     11  C   UNL     1       0.756   8.868  20.317  0.00  0.00    +0.000 A 
ATOM     12  C   UNL     1       0.096   8.492  21.608  0.00  0.00    +0.000 C 
ATOM     13  H   UNL     1       2.604   5.102  20.674  0.00  0.00    +0.000 HD
ATOM     14  H   UNL     1       1.169   5.899  21.104  0.00  0.00    +0.000 HD
ENDROOT
BRANCH   6  15
ATOM     15  S   UNL     1       4.763   6.437  16.708  0.00  0.00    +0.000 S 
BRANCH  15  16
ATOM     16  C   UNL     1       6.190   6.136  17.820  0.00  0.00    +0.000 C 
ATOM     17  C   UNL     1       6.726   4.713  17.670  0.00  0.00    +0.000 C 
ATOM     18  C   UNL     1       7.282   7.142  17.453  0.00  0.00    +0.000 C 
ENDBRANCH  15  16
ENDBRANCH   6  15
TORSDOF 2
ENDMDL
MODEL 8
REMARK VINA RESULT:      -5.4      3.239      5.710
REMARK  Name = 
REMARK  6 active torsions:
REMARK  status: ('A' for Active; 'I' for Inactive)
REMARK    1  A    between atoms: C_1  and  C_2
REMARK    2  A    between atoms: C_6  and  S_7
REMARK    3  A    between atoms: S_7  and  C_8
REMARK    4  A    between atoms: C_8  and  C_9
REMARK    5  A    between atoms: C_8  and  C_10
REMARK    6  A    between atoms: C_15  and  C_16
REMARK                            x       y       z     vdW  Elec       q    Type
REMARK                         _______ _______ _______ _____ _____    ______ ____
ROOT
ATOM      1  C   UNL     1       3.320   1.729  18.407  0.00  0.00    +0.000 C 
ATOM      2  C   UNL     1       2.994   3.149  18.740  0.00  0.00    +0.000 A 
ATOM      3  S   UNL     1       2.062   3.498  20.125  0.00  0.00    +0.000 S 
ATOM      4  C   UNL     1       2.138   5.171  19.838  0.00  0.00    +0.000 A 
ATOM      5  N   UNL     1       1.528   6.015  20.684  0.00  0.00    +0.000 NA
ATOM      6  C   UNL     1       1.695   7.295  20.355  0.00  0.00    +0.000 A 
ATOM      7  N   UNL     1       2.367   7.752  19.286  0.00  0.00    +0.000 NA
ATOM      8  C   UNL     1       2.950   6.881  18.446  0.00  0.00    +0.000 A 
ATOM      9  N   UNL     1       3.601   7.459  17.361  0.00  0.00    +0.000 N 
ATOM     10  C   UNL     1       2.860   5.499  18.700  0.00  0.00    +0.000 A 
ATOM     11  C   UNL     1       3.363   4.297  18.045  0.00  0.00    +0.000 A 
ATOM     12  C   UNL     1       4.182   4.239  16.793  0.00  0.00    +0.000 C 
ATOM     13  H   UNL     1       3.365   8.446  17.330  0.00  0.00    +0.000 HD
ATOM     14  H   UNL     1       3.441   6.975  16.487  0.00  0.00    +0.000 HD
ENDROOT
BRANCH   6  15
ATOM     15  S   UNL     1       0.941   8.551  21.365  0.00  0.00    +0.000 S 
BRANCH  15  16
ATOM     16  C   UNL     1       0.785   9.946  20.185  0.00  0.00    +0.000 C 
ATOM     17  C   UNL     1      -0.574   9.940  19.487  0.00  0.00    +0.000 C 
ATOM     18  C   UNL     1       0.956  11.244  20.976  0.00  0.00    +0.000 C 
ENDBRANCH  15  16
ENDBRANCH   6  15
TORSDOF 2
ENDMDL
MODEL 9
REMARK VINA RESULT:      -5.4      1.301      1.422
REMARK  Name = 
REMARK  6 active torsions:
REMARK  status: ('A' for Active; 'I' for Inactive)
REMARK    1  A    between atoms: C_1  and  C_2
REMARK    2  A    between atoms: C_6  and  S_7
REMARK    3  A    between atoms: S_7  and  C_8
REMARK    4  A    between atoms: C_8  and  C_9
REMARK    5  A    between atoms: C_8  and  C_10
REMARK    6  A    between atoms: C_15  and  C_16
REMARK                            x       y       z     vdW  Elec       q    Type
REMARK                         _______ _______ _______ _____ _____    ______ ____
ROOT
ATOM      1  C   UNL     1       1.469   3.100  21.537  0.00  0.00    +0.000 C 
ATOM      2  C   UNL     1       2.109   3.920  20.463  0.00  0.00    +0.000 A 
ATOM      3  S   UNL     1       3.170   3.177  19.354  0.00  0.00    +0.000 S 
ATOM      4  C   UNL     1       3.438   4.636  18.528  0.00  0.00    +0.000 A 
ATOM      5  N   UNL     1       4.261   4.655  17.468  0.00  0.00    +0.000 NA
ATOM      6  C   UNL     1       4.352   5.856  16.900  0.00  0.00    +0.000 A 
ATOM      7  N   UNL     1       3.734   6.973  17.315  0.00  0.00    +0.000 NA
ATOM      8  C   UNL     1       2.932   6.927  18.391  0.00  0.00    +0.000 A 
ATOM      9  N   UNL     1       2.359   8.144  18.749  0.00  0.00    +0.000 N 
ATOM     10  C   UNL     1       2.739   5.707  19.066  0.00  0.00    +0.000 A 
ATOM     11  C   UNL     1       1.955   5.281  20.220  0.00  0.00    +0.000 A 
ATOM     12  C   UNL     1       1.073   6.145  21.068  0.00  0.00    +0.000 C 
ATOM     13  H   UNL     1       2.798   8.880  18.205  0.00  0.00    +0.000 HD
ATOM     14  H   UNL     1       2.362   8.316  19.746  0.00  0.00    +0.000 HD
ENDROOT
BRANCH   6  15
ATOM     15  S   UNL     1       5.414   6.063  15.486  0.00  0.00    +0.000 S 
BRANCH  15  16
ATOM     16  C   UNL     1       6.128   4.384  15.298  0.00  0.00    +0.000 C 
ATOM     17  C   UNL     1       6.454   4.074  13.838  0.00  0.00    +0.000 C 
ATOM     18  C   UNL     1       7.406   4.328  16.137  0.00  0.00    +0.000 C 
ENDBRANCH  15  16
ENDBRANCH   6  15
TORSDOF 2
ENDMDL
