MODEL 1
REMARK VINA RESULT:      -8.4      0.000      0.000
REMARK  Name = 
REMARK  9 active torsions:
REMARK  status: ('A' for Active; 'I' for Inactive)
REMARK    1  A    between atoms: C_1  and  N_2
REMARK    2  A    between atoms: N_2  and  C_3
REMARK    3  A    between atoms: N_2  and  C_4
REMARK    4  A    between atoms: C_4  and  C_5
REMARK    5  A    between atoms: C_7  and  O_8
REMARK    6  A    between atoms: C_9  and  O_10
REMARK    7  A    between atoms: C_11  and  C_12
REMARK    8  A    between atoms: N_14  and  C_15
REMARK    9  A    between atoms: C_15  and  C_16
REMARK                            x       y       z     vdW  Elec       q    Type
REMARK                         _______ _______ _______ _____ _____    ______ ____
ROOT
ATOM      1  C   UNL     1       5.238   4.847  18.592  0.00  0.00    +0.000 A 
ATOM      2  N   UNL     1       5.498   3.547  18.853  0.00  0.00    +0.000 NA
ATOM      3  C   UNL     1       4.606   2.916  19.615  0.00  0.00    +0.000 A 
ATOM      4  C   UNL     1       3.464   3.457  20.146  0.00  0.00    +0.000 A 
ATOM      5  C   UNL     1       3.266   4.778  19.817  0.00  0.00    +0.000 A 
ATOM      6  N   UNL     1       4.132   5.495  19.036  0.00  0.00    +0.000 NA
ENDROOT
BRANCH   1   7
ATOM      7  C   UNL     1       6.239   5.599  17.669  0.00  0.00    +0.000 C 
ATOM      8  C   UNL     1       5.506   6.288  16.482  0.00  0.00    +0.000 C 
ATOM      9  C   UNL     1       5.129   5.164  15.521  0.00  0.00    +0.000 C 
ATOM     10  C   UNL     1       6.171   4.073  15.740  0.00  0.00    +0.000 C 
ATOM     11  C   UNL     1       7.087   4.584  16.855  0.00  0.00    +0.000 C 
BRANCH   7  13
ATOM     12  C   UNL     1       8.132   6.024  19.211  0.00  0.00    +0.000 C 
ATOM     13  N   UNL     1       7.086   6.614  18.370  0.00  0.00    +0.000 NA
ATOM     14  C   UNL     1       7.671   7.617  17.482  0.00  0.00    +0.000 C 
ENDBRANCH   7  13
ENDBRANCH   1   7
BRANCH   5  15
ATOM     15  C   UNL     1       2.060   5.525  20.326  0.00  0.00    +0.000 C 
ATOM     16  O   UNL     1       0.999   4.969  20.579  0.00  0.00    +0.000 OA
ATOM     17  N   UNL     1       2.228   6.885  20.502  0.00  0.00    +0.000 N 
ATOM     18  H   UNL     1       3.127   7.288  20.267  0.00  0.00    +0.000 HD
BRANCH  17  19
ATOM     19  C   UNL     1       1.171   7.712  21.038  0.00  0.00    +0.000 C 
BRANCH  19  20
ATOM     20  C   UNL     1       1.077   9.032  20.319  0.00  0.00    +0.000 A 
ATOM     21  C   UNL     1       0.615  10.175  20.995  0.00  0.00    +0.000 A 
ATOM     22  C   UNL     1       0.544  11.403  20.335  0.00  0.00    +0.000 A 
ATOM     23  C   UNL     1       0.921  11.487  19.001  0.00  0.00    +0.000 A 
ATOM     24  F   UNL     1       0.855  12.666  18.368  0.00  0.00    +0.000 F 
ATOM     25  C   UNL     1       1.368  10.366  18.312  0.00  0.00    +0.000 A 
ATOM     26  C   UNL     1       1.444   9.137  18.969  0.00  0.00    +0.000 A 
ENDBRANCH  19  20
ENDBRANCH  17  19
ENDBRANCH   5  15
BRANCH   3  27
ATOM     27  O   UNL     1       4.905   1.611  19.865  0.00  0.00    +0.000 OA
ATOM     28  H   UNL     1       4.730   1.215  18.991  0.00  0.00    +0.000 HD
ENDBRANCH   3  27
BRANCH   4  29
ATOM     29  O   UNL     1       2.647   2.698  20.920  0.00  0.00    +0.000 OA
ATOM     30  H   UNL     1       2.347   1.947  20.371  0.00  0.00    +0.000 HD
ENDBRANCH   4  29
TORSDOF 7
ENDMDL
MODEL 2
REMARK VINA RESULT:      -7.9      0.428      1.228
REMARK  Name = 
REMARK  9 active torsions:
REMARK  status: ('A' for Active; 'I' for Inactive)
REMARK    1  A    between atoms: C_1  and  N_2
REMARK    2  A    between atoms: N_2  and  C_3
REMARK    3  A    between atoms: N_2  and  C_4
REMARK    4  A    between atoms: C_4  and  C_5
REMARK    5  A    between atoms: C_7  and  O_8
REMARK    6  A    between atoms: C_9  and  O_10
REMARK    7  A    between atoms: C_11  and  C_12
REMARK    8  A    between atoms: N_14  and  C_15
REMARK    9  A    between atoms: C_15  and  C_16
REMARK                            x       y       z     vdW  Elec       q    Type
REMARK                         _______ _______ _______ _____ _____    ______ ____
ROOT
ATOM      1  C   UNL     1       5.392   4.833  18.570  0.00  0.00    +0.000 A 
ATOM      2  N   UNL     1       5.635   3.524  18.798  0.00  0.00    +0.000 NA
ATOM      3  C   UNL     1       4.728   2.882  19.533  0.00  0.00    +0.000 A 
ATOM      4  C   UNL     1       3.585   3.420  20.065  0.00  0.00    +0.000 A 
ATOM      5  C   UNL     1       3.405   4.752  19.769  0.00  0.00    +0.000 A 
ATOM      6  N   UNL     1       4.287   5.481  19.018  0.00  0.00    +0.000 NA
ENDROOT
BRANCH   1   7
ATOM      7  C   UNL     1       6.412   5.598  17.679  0.00  0.00    +0.000 C 
ATOM      8  C   UNL     1       5.759   6.846  17.016  0.00  0.00    +0.000 C 
ATOM      9  C   UNL     1       4.867   6.301  15.903  0.00  0.00    +0.000 C 
ATOM     10  C   UNL     1       5.505   4.984  15.477  0.00  0.00    +0.000 C 
ATOM     11  C   UNL     1       6.717   4.787  16.391  0.00  0.00    +0.000 C 
BRANCH   7  13
ATOM     12  C   UNL     1       7.963   7.450  18.231  0.00  0.00    +0.000 C 
ATOM     13  N   UNL     1       7.658   6.025  18.390  0.00  0.00    +0.000 NA
ATOM     14  C   UNL     1       7.689   5.665  19.806  0.00  0.00    +0.000 C 
ENDBRANCH   7  13
ENDBRANCH   1   7
BRANCH   5  15
ATOM     15  C   UNL     1       2.201   5.498  20.284  0.00  0.00    +0.000 C 
ATOM     16  O   UNL     1       1.149   4.938  20.564  0.00  0.00    +0.000 OA
ATOM     17  N   UNL     1       2.361   6.862  20.435  0.00  0.00    +0.000 N 
ATOM     18  H   UNL     1       3.253   7.268  20.179  0.00  0.00    +0.000 HD
BRANCH  17  19
ATOM     19  C   UNL     1       1.305   7.690  20.973  0.00  0.00    +0.000 C 
BRANCH  19  20
ATOM     20  C   UNL     1       1.202   9.005  20.247  0.00  0.00    +0.000 A 
ATOM     21  C   UNL     1       1.550   9.093  18.888  0.00  0.00    +0.000 A 
ATOM     22  C   UNL     1       1.439  10.307  18.208  0.00  0.00    +0.000 A 
ATOM     23  C   UNL     1       0.993  11.433  18.888  0.00  0.00    +0.000 A 
ATOM     24  F   UNL     1       0.884  12.599  18.236  0.00  0.00    +0.000 F 
ATOM     25  C   UNL     1       0.657  11.370  20.235  0.00  0.00    +0.000 A 
ATOM     26  C   UNL     1       0.763  10.157  20.917  0.00  0.00    +0.000 A 
ENDBRANCH  19  20
ENDBRANCH  17  19
ENDBRANCH   5  15
BRANCH   3  27
ATOM     27  O   UNL     1       5.010   1.567  19.751  0.00  0.00    +0.000 OA
ATOM     28  H   UNL     1       5.527   1.358  18.950  0.00  0.00    +0.000 HD
ENDBRANCH   3  27
BRANCH   4  29
ATOM     29  O   UNL     1       2.751   2.649  20.808  0.00  0.00    +0.000 OA
ATOM     30  H   UNL     1       3.051   2.713  21.736  0.00  0.00    +0.000 HD
ENDBRANCH   4  29
TORSDOF 7
ENDMDL
MODEL 3
REMARK VINA RESULT:      -7.9      0.858      1.945
REMARK  Name = 
REMARK  9 active torsions:
REMARK  status: ('A' for Active; 'I' for Inactive)
REMARK    1  A    between atoms: C_1  and  N_2
REMARK    2  A    between atoms: N_2  and  C_3
REMARK    3  A    between atoms: N_2  and  C_4
REMARK    4  A    between atoms: C_4  and  C_5
REMARK    5  A    between atoms: C_7  and  O_8
REMARK    6  A    between atoms: C_9  and  O_10
REMARK    7  A    between atoms: C_11  and  C_12
REMARK    8  A    between atoms: N_14  and  C_15
REMARK    9  A    between atoms: C_15  and  C_16
REMARK                            x       y       z     vdW  Elec       q    Type
REMARK                         _______ _______ _______ _____ _____    ______ ____
ROOT
ATOM      1  C   UNL     1       5.054   4.527  18.424  0.00  0.00    +0.000 A 
ATOM      2  N   UNL     1       5.375   3.285  18.846  0.00  0.00    +0.000 NA
ATOM      3  C   UNL     1       4.583   2.764  19.782  0.00  0.00    +0.000 A 
ATOM      4  C   UNL     1       3.486   3.365  20.343  0.00  0.00    +0.000 A 
ATOM      5  C   UNL     1       3.219   4.620  19.845  0.00  0.00    +0.000 A 
ATOM      6  N   UNL     1       3.982   5.222  18.881  0.00  0.00    +0.000 NA
ENDROOT
BRANCH   1   7
ATOM      7  C   UNL     1       5.937   5.144  17.301  0.00  0.00    +0.000 C 
ATOM      8  C   UNL     1       7.304   4.409  17.188  0.00  0.00    +0.000 C 
ATOM      9  C   UNL     1       8.124   4.876  18.388  0.00  0.00    +0.000 C 
ATOM     10  C   UNL     1       7.600   6.268  18.722  0.00  0.00    +0.000 C 
ATOM     11  C   UNL     1       6.463   6.539  17.735  0.00  0.00    +0.000 C 
BRANCH   7  13
ATOM     12  C   UNL     1       5.190   6.522  15.381  0.00  0.00    +0.000 C 
ATOM     13  N   UNL     1       5.291   5.175  15.952  0.00  0.00    +0.000 NA
ATOM     14  C   UNL     1       5.899   4.269  14.980  0.00  0.00    +0.000 C 
ENDBRANCH   7  13
ENDBRANCH   1   7
BRANCH   5  15
ATOM     15  C   UNL     1       2.052   5.420  20.360  0.00  0.00    +0.000 C 
ATOM     16  O   UNL     1       0.981   4.907  20.658  0.00  0.00    +0.000 OA
ATOM     17  N   UNL     1       2.267   6.779  20.489  0.00  0.00    +0.000 N 
ATOM     18  H   UNL     1       3.171   7.146  20.219  0.00  0.00    +0.000 HD
BRANCH  17  19
ATOM     19  C   UNL     1       1.250   7.655  21.026  0.00  0.00    +0.000 C 
BRANCH  19  20
ATOM     20  C   UNL     1       1.186   8.959  20.275  0.00  0.00    +0.000 A 
ATOM     21  C   UNL     1       0.734  10.125  20.918  0.00  0.00    +0.000 A 
ATOM     22  C   UNL     1       0.690  11.338  20.229  0.00  0.00    +0.000 A 
ATOM     23  C   UNL     1       1.085  11.384  18.898  0.00  0.00    +0.000 A 
ATOM     24  F   UNL     1       1.045  12.549  18.237  0.00  0.00    +0.000 F 
ATOM     25  C   UNL     1       1.523  10.240  18.241  0.00  0.00    +0.000 A 
ATOM     26  C   UNL     1       1.571   9.026  18.927  0.00  0.00    +0.000 A 
ENDBRANCH  19  20
ENDBRANCH  17  19
ENDBRANCH   5  15
BRANCH   3  27
ATOM     27  O   UNL     1       4.941   1.515  20.190  0.00  0.00    +0.000 OA
ATOM     28  H   UNL     1       5.801   1.702  20.610  0.00  0.00    +0.000 HD
ENDBRANCH   3  27
BRANCH   4  29
ATOM     29  O   UNL     1       2.772   2.721  21.302  0.00  0.00    +0.000 OA
ATOM     30  H   UNL     1       1.884   3.128  21.321  0.00  0.00    +0.000 HD
ENDBRANCH   4  29
TORSDOF 7
ENDMDL
MODEL 4
REMARK VINA RESULT:      -7.8      4.346      8.057
REMARK  Name = 
REMARK  9 active torsions:
REMARK  status: ('A' for Active; 'I' for Inactive)
REMARK    1  A    between atoms: C_1  and  N_2
REMARK    2  A    between atoms: N_2  and  C_3
REMARK    3  A    between atoms: N_2  and  C_4
REMARK    4  A    between atoms: C_4  and  C_5
REMARK    5  A    between atoms: C_7  and  O_8
REMARK    6  A    between atoms: C_9  and  O_10
REMARK    7  A    between atoms: C_11  and  C_12
REMARK    8  A    between atoms: N_14  and  C_15
REMARK    9  A    between atoms: C_15  and  C_16
REMARK                            x       y       z     vdW  Elec       q    Type
REMARK                         _______ _______ _______ _____ _____    ______ ____
ROOT
ATOM      1  C   UNL     1       4.514   4.554  18.778  0.00  0.00    +0.000 A 
ATOM      2  N   UNL     1       5.489   4.803  19.679  0.00  0.00    +0.000 NA
ATOM      3  C   UNL     1       6.603   5.352  19.196  0.00  0.00    +0.000 A 
ATOM      4  C   UNL     1       6.842   5.685  17.888  0.00  0.00    +0.000 A 
ATOM      5  C   UNL     1       5.792   5.415  17.041  0.00  0.00    +0.000 A 
ATOM      6  N   UNL     1       4.614   4.857  17.460  0.00  0.00    +0.000 NA
ENDROOT
BRANCH   1   7
ATOM      7  C   UNL     1       3.185   3.953  19.320  0.00  0.00    +0.000 C 
ATOM      8  C   UNL     1       3.426   2.577  20.007  0.00  0.00    +0.000 C 
ATOM      9  C   UNL     1       3.664   1.586  18.872  0.00  0.00    +0.000 C 
ATOM     10  C   UNL     1       2.906   2.146  17.674  0.00  0.00    +0.000 C 
ATOM     11  C   UNL     1       2.295   3.468  18.144  0.00  0.00    +0.000 C 
BRANCH   7  13
ATOM     12  C   UNL     1       2.379   6.241  19.828  0.00  0.00    +0.000 C 
ATOM     13  N   UNL     1       2.442   4.843  20.266  0.00  0.00    +0.000 NA
ATOM     14  C   UNL     1       1.102   4.368  20.602  0.00  0.00    +0.000 C 
ENDBRANCH   7  13
ENDBRANCH   1   7
BRANCH   5  15
ATOM     15  C   UNL     1       5.895   5.715  15.568  0.00  0.00    +0.000 C 
ATOM     16  O   UNL     1       5.218   6.577  15.022  0.00  0.00    +0.000 OA
ATOM     17  N   UNL     1       6.816   4.961  14.866  0.00  0.00    +0.000 N 
ATOM     18  H   UNL     1       7.340   4.258  15.372  0.00  0.00    +0.000 HD
BRANCH  17  19
ATOM     19  C   UNL     1       7.056   5.185  13.458  0.00  0.00    +0.000 C 
BRANCH  19  20
ATOM     20  C   UNL     1       6.722   3.969  12.636  0.00  0.00    +0.000 A 
ATOM     21  C   UNL     1       7.738   3.268  11.963  0.00  0.00    +0.000 A 
ATOM     22  C   UNL     1       7.433   2.130  11.213  0.00  0.00    +0.000 A 
ATOM     23  C   UNL     1       6.115   1.700  11.128  0.00  0.00    +0.000 A 
ATOM     24  F   UNL     1       5.822   0.607  10.410  0.00  0.00    +0.000 F 
ATOM     25  C   UNL     1       5.094   2.387  11.775  0.00  0.00    +0.000 A 
ATOM     26  C   UNL     1       5.396   3.523  12.527  0.00  0.00    +0.000 A 
ENDBRANCH  19  20
ENDBRANCH  17  19
ENDBRANCH   5  15
BRANCH   3  27
ATOM     27  O   UNL     1       7.567   5.581  20.131  0.00  0.00    +0.000 OA
ATOM     28  H   UNL     1       7.109   5.284  20.939  0.00  0.00    +0.000 HD
ENDBRANCH   3  27
BRANCH   4  29
ATOM     29  O   UNL     1       8.034   6.230  17.532  0.00  0.00    +0.000 OA
ATOM     30  H   UNL     1       7.842   7.089  17.107  0.00  0.00    +0.000 HD
ENDBRANCH   4  29
TORSDOF 7
ENDMDL
MODEL 5
REMARK VINA RESULT:      -7.7      0.935      1.162
REMARK  Name = 
REMARK  9 active torsions:
REMARK  status: ('A' for Active; 'I' for Inactive)
REMARK    1  A    between atoms: C_1  and  N_2
REMARK    2  A    between atoms: N_2  and  C_3
REMARK    3  A    between atoms: N_2  and  C_4
REMARK    4  A    between atoms: C_4  and  C_5
REMARK    5  A    between atoms: C_7  and  O_8
REMARK    6  A    between atoms: C_9  and  O_10
REMARK    7  A    between atoms: C_11  and  C_12
REMARK    8  A    between atoms: N_14  and  C_15
REMARK    9  A    between atoms: C_15  and  C_16
REMARK                            x       y       z     vdW  Elec       q    Type
REMARK                         _______ _______ _______ _____ _____    ______ ____
ROOT
ATOM      1  C   UNL     1       5.134   4.847  18.157  0.00  0.00    +0.000 A 
ATOM      2  N   UNL     1       5.094   3.506  17.997  0.00  0.00    +0.000 NA
ATOM      3  C   UNL     1       4.078   2.878  18.588  0.00  0.00    +0.000 A 
ATOM      4  C   UNL     1       3.084   3.463  19.328  0.00  0.00    +0.000 A 
ATOM      5  C   UNL     1       3.190   4.831  19.426  0.00  0.00    +0.000 A 
ATOM      6  N   UNL     1       4.199   5.549  18.845  0.00  0.00    +0.000 NA
ENDROOT
BRANCH   1   7
ATOM      7  C   UNL     1       6.285   5.612  17.442  0.00  0.00    +0.000 C 
ATOM      8  C   UNL     1       5.783   6.960  16.847  0.00  0.00    +0.000 C 
ATOM      9  C   UNL     1       4.970   6.587  15.609  0.00  0.00    +0.000 C 
ATOM     10  C   UNL     1       5.558   5.270  15.116  0.00  0.00    +0.000 C 
ATOM     11  C   UNL     1       6.660   4.901  16.113  0.00  0.00    +0.000 C 
BRANCH   7  13
ATOM     12  C   UNL     1       7.973   7.256  18.209  0.00  0.00    +0.000 C 
ATOM     13  N   UNL     1       7.481   5.878  18.301  0.00  0.00    +0.000 NA
ATOM     14  C   UNL     1       7.301   5.507  19.703  0.00  0.00    +0.000 C 
ENDBRANCH   7  13
ENDBRANCH   1   7
BRANCH   5  15
ATOM     15  C   UNL     1       2.180   5.626  20.212  0.00  0.00    +0.000 C 
ATOM     16  O   UNL     1       1.183   5.118  20.710  0.00  0.00    +0.000 OA
ATOM     17  N   UNL     1       2.452   6.974  20.348  0.00  0.00    +0.000 N 
ATOM     18  H   UNL     1       3.288   7.337  19.906  0.00  0.00    +0.000 HD
BRANCH  17  19
ATOM     19  C   UNL     1       1.597   7.841  21.125  0.00  0.00    +0.000 C 
BRANCH  19  20
ATOM     20  C   UNL     1       0.930   8.882  20.265  0.00  0.00    +0.000 A 
ATOM     21  C   UNL     1      -0.143   9.637  20.771  0.00  0.00    +0.000 A 
ATOM     22  C   UNL     1      -0.751  10.615  19.981  0.00  0.00    +0.000 A 
ATOM     23  C   UNL     1      -0.297  10.829  18.686  0.00  0.00    +0.000 A 
ATOM     24  F   UNL     1      -0.879  11.768  17.928  0.00  0.00    +0.000 F 
ATOM     25  C   UNL     1       0.754  10.084  18.163  0.00  0.00    +0.000 A 
ATOM     26  C   UNL     1       1.367   9.108  18.951  0.00  0.00    +0.000 A 
ENDBRANCH  19  20
ENDBRANCH  17  19
ENDBRANCH   5  15
BRANCH   3  27
ATOM     27  O   UNL     1       4.075   1.527  18.413  0.00  0.00    +0.000 OA
ATOM     28  H   UNL     1       4.626   1.247  19.167  0.00  0.00    +0.000 HD
ENDBRANCH   3  27
BRANCH   4  29
ATOM     29  O   UNL     1       2.112   2.697  19.887  0.00  0.00    +0.000 OA
ATOM     30  H   UNL     1       2.339   2.588  20.832  0.00  0.00    +0.000 HD
ENDBRANCH   4  29
TORSDOF 7
ENDMDL
MODEL 6
REMARK VINA RESULT:      -7.6      1.290      2.294
REMARK  Name = 
REMARK  9 active torsions:
REMARK  status: ('A' for Active; 'I' for Inactive)
REMARK    1  A    between atoms: C_1  and  N_2
REMARK    2  A    between atoms: N_2  and  C_3
REMARK    3  A    between atoms: N_2  and  C_4
REMARK    4  A    between atoms: C_4  and  C_5
REMARK    5  A    between atoms: C_7  and  O_8
REMARK    6  A    between atoms: C_9  and  O_10
REMARK    7  A    between atoms: C_11  and  C_12
REMARK    8  A    between atoms: N_14  and  C_15
REMARK    9  A    between atoms: C_15  and  C_16
REMARK                            x       y       z     vdW  Elec       q    Type
REMARK                         _______ _______ _______ _____ _____    ______ ____
ROOT
ATOM      1  C   UNL     1       4.801   4.471  17.759  0.00  0.00    +0.000 A 
ATOM      2  N   UNL     1       4.624   3.147  17.555  0.00  0.00    +0.000 NA
ATOM      3  C   UNL     1       3.682   2.564  18.296  0.00  0.00    +0.000 A 
ATOM      4  C   UNL     1       2.888   3.178  19.229  0.00  0.00    +0.000 A 
ATOM      5  C   UNL     1       3.121   4.527  19.361  0.00  0.00    +0.000 A 
ATOM      6  N   UNL     1       4.066   5.201  18.635  0.00  0.00    +0.000 NA
ENDROOT
BRANCH   1   7
ATOM      7  C   UNL     1       5.864   5.187  16.877  0.00  0.00    +0.000 C 
ATOM      8  C   UNL     1       7.210   4.406  16.868  0.00  0.00    +0.000 C 
ATOM      9  C   UNL     1       7.848   4.668  18.230  0.00  0.00    +0.000 C 
ATOM     10  C   UNL     1       7.319   6.027  18.674  0.00  0.00    +0.000 C 
ATOM     11  C   UNL     1       6.357   6.484  17.576  0.00  0.00    +0.000 C 
BRANCH   7  13
ATOM     12  C   UNL     1       5.107   6.832  15.185  0.00  0.00    +0.000 C 
ATOM     13  N   UNL     1       5.436   5.430  15.464  0.00  0.00    +0.000 NA
ATOM     14  C   UNL     1       6.376   4.932  14.463  0.00  0.00    +0.000 C 
ENDBRANCH   7  13
ENDBRANCH   1   7
BRANCH   5  15
ATOM     15  C   UNL     1       2.337   5.350  20.351  0.00  0.00    +0.000 C 
ATOM     16  O   UNL     1       1.794   4.859  21.332  0.00  0.00    +0.000 OA
ATOM     17  N   UNL     1       2.276   6.705  20.088  0.00  0.00    +0.000 N 
ATOM     18  H   UNL     1       2.739   7.050  19.256  0.00  0.00    +0.000 HD
BRANCH  17  19
ATOM     19  C   UNL     1       1.605   7.617  20.987  0.00  0.00    +0.000 C 
BRANCH  19  20
ATOM     20  C   UNL     1       1.039   8.805  20.254  0.00  0.00    +0.000 A 
ATOM     21  C   UNL     1       1.494   9.124  18.963  0.00  0.00    +0.000 A 
ATOM     22  C   UNL     1       0.958  10.214  18.276  0.00  0.00    +0.000 A 
ATOM     23  C   UNL     1      -0.022  10.991  18.881  0.00  0.00    +0.000 A 
ATOM     24  F   UNL     1      -0.539  12.036  18.221  0.00  0.00    +0.000 F 
ATOM     25  C   UNL     1      -0.476  10.700  20.163  0.00  0.00    +0.000 A 
ATOM     26  C   UNL     1       0.055   9.608  20.851  0.00  0.00    +0.000 A 
ENDBRANCH  19  20
ENDBRANCH  17  19
ENDBRANCH   5  15
BRANCH   3  27
ATOM     27  O   UNL     1       3.537   1.229  18.070  0.00  0.00    +0.000 OA
ATOM     28  H   UNL     1       4.464   0.932  18.138  0.00  0.00    +0.000 HD
ENDBRANCH   3  27
BRANCH   4  29
ATOM     29  O   UNL     1       1.973   2.456  19.925  0.00  0.00    +0.000 OA
ATOM     30  H   UNL     1       2.398   1.610  20.168  0.00  0.00    +0.000 HD
ENDBRANCH   4  29
TORSDOF 7
ENDMDL
MODEL 7
REMARK VINA RESULT:      -7.5      2.140      3.307
REMARK  Name = 
REMARK  9 active torsions:
REMARK  status: ('A' for Active; 'I' for Inactive)
REMARK    1  A    between atoms: C_1  and  N_2
REMARK    2  A    between atoms: N_2  and  C_3
REMARK    3  A    between atoms: N_2  and  C_4
REMARK    4  A    between atoms: C_4  and  C_5
REMARK    5  A    between atoms: C_7  and  O_8
REMARK    6  A    between atoms: C_9  and  O_10
REMARK    7  A    between atoms: C_11  and  C_12
REMARK    8  A    between atoms: N_14  and  C_15
REMARK    9  A    between atoms: C_15  and  C_16
REMARK                            x       y       z     vdW  Elec       q    Type
REMARK                         _______ _______ _______ _____ _____    ______ ____
ROOT
ATOM      1  C   UNL     1       5.157   5.520  18.100  0.00  0.00    +0.000 A 
ATOM      2  N   UNL     1       4.772   4.586  18.996  0.00  0.00    +0.000 NA
ATOM      3  C   UNL     1       3.615   4.815  19.617  0.00  0.00    +0.000 A 
ATOM      4  C   UNL     1       2.792   5.894  19.427  0.00  0.00    +0.000 A 
ATOM      5  C   UNL     1       3.249   6.787  18.486  0.00  0.00    +0.000 A 
ATOM      6  N   UNL     1       4.423   6.622  17.802  0.00  0.00    +0.000 NA
ENDROOT
BRANCH   1   7
ATOM      7  C   UNL     1       6.482   5.259  17.328  0.00  0.00    +0.000 C 
ATOM      8  C   UNL     1       7.585   4.701  18.273  0.00  0.00    +0.000 C 
ATOM      9  C   UNL     1       8.053   5.890  19.108  0.00  0.00    +0.000 C 
ATOM     10  C   UNL     1       7.807   7.119  18.241  0.00  0.00    +0.000 C 
ATOM     11  C   UNL     1       7.160   6.604  16.953  0.00  0.00    +0.000 C 
BRANCH   7  13
ATOM     12  C   UNL     1       4.952   4.063  15.788  0.00  0.00    +0.000 C 
ATOM     13  N   UNL     1       6.344   4.344  16.152  0.00  0.00    +0.000 NA
ATOM     14  C   UNL     1       7.088   4.776  14.971  0.00  0.00    +0.000 C 
ENDBRANCH   7  13
ENDBRANCH   1   7
BRANCH   5  15
ATOM     15  C   UNL     1       2.465   8.032  18.163  0.00  0.00    +0.000 C 
ATOM     16  O   UNL     1       2.397   8.493  17.030  0.00  0.00    +0.000 OA
ATOM     17  N   UNL     1       1.812   8.623  19.227  0.00  0.00    +0.000 N 
ATOM     18  H   UNL     1       1.912   8.199  20.142  0.00  0.00    +0.000 HD
BRANCH  17  19
ATOM     19  C   UNL     1       0.978   9.790  19.047  0.00  0.00    +0.000 C 
BRANCH  19  20
ATOM     20  C   UNL     1       0.256  10.161  20.315  0.00  0.00    +0.000 A 
ATOM     21  C   UNL     1      -0.528  11.326  20.369  0.00  0.00    +0.000 A 
ATOM     22  C   UNL     1      -1.211  11.663  21.539  0.00  0.00    +0.000 A 
ATOM     23  C   UNL     1      -1.103  10.843  22.655  0.00  0.00    +0.000 A 
ATOM     24  F   UNL     1      -1.761  11.164  23.778  0.00  0.00    +0.000 F 
ATOM     25  C   UNL     1      -0.323   9.693  22.626  0.00  0.00    +0.000 A 
ATOM     26  C   UNL     1       0.360   9.352  21.457  0.00  0.00    +0.000 A 
ENDBRANCH  19  20
ENDBRANCH  17  19
ENDBRANCH   5  15
BRANCH   3  27
ATOM     27  O   UNL     1       3.264   3.857  20.520  0.00  0.00    +0.000 OA
ATOM     28  H   UNL     1       3.248   3.067  19.948  0.00  0.00    +0.000 HD
ENDBRANCH   3  27
BRANCH   4  29
ATOM     29  O   UNL     1       1.642   6.007  20.141  0.00  0.00    +0.000 OA
ATOM     30  H   UNL     1       1.262   6.884  19.937  0.00  0.00    +0.000 HD
ENDBRANCH   4  29
TORSDOF 7
ENDMDL
MODEL 8
REMARK VINA RESULT:      -7.5      4.289      8.786
REMARK  Name = 
REMARK  9 active torsions:
REMARK  status: ('A' for Active; 'I' for Inactive)
REMARK    1  A    between atoms: C_1  and  N_2
REMARK    2  A    between atoms: N_2  and  C_3
REMARK    3  A    between atoms: N_2  and  C_4
REMARK    4  A    between atoms: C_4  and  C_5
REMARK    5  A    between atoms: C_7  and  O_8
REMARK    6  A    between atoms: C_9  and  O_10
REMARK    7  A    between atoms: C_11  and  C_12
REMARK    8  A    between atoms: N_14  and  C_15
REMARK    9  A    between atoms: C_15  and  C_16
REMARK                            x       y       z     vdW  Elec       q    Type
REMARK                         _______ _______ _______ _____ _____    ______ ____
ROOT
ATOM      1  C   UNL     1      -0.855  11.096  20.006  0.00  0.00    +0.000 A 
ATOM      2  N   UNL     1      -0.916  11.236  21.348  0.00  0.00    +0.000 NA
ATOM      3  C   UNL     1      -0.100  10.454  22.054  0.00  0.00    +0.000 A 
ATOM      4  C   UNL     1       0.785   9.538  21.548  0.00  0.00    +0.000 A 
ATOM      5  C   UNL     1       0.797   9.472  20.174  0.00  0.00    +0.000 A 
ATOM      6  N   UNL     1      -0.006  10.243  19.378  0.00  0.00    +0.000 NA
ENDROOT
BRANCH   1   7
ATOM      7  C   UNL     1      -1.765  12.026  19.154  0.00  0.00    +0.000 C 
ATOM      8  C   UNL     1      -0.932  12.842  18.123  0.00  0.00    +0.000 C 
ATOM      9  C   UNL     1      -0.218  13.922  18.933  0.00  0.00    +0.000 C 
ATOM     10  C   UNL     1      -1.109  14.181  20.142  0.00  0.00    +0.000 C 
ATOM     11  C   UNL     1      -2.284  13.208  20.016  0.00  0.00    +0.000 C 
BRANCH   7  13
ATOM     12  C   UNL     1      -4.198  11.881  18.703  0.00  0.00    +0.000 C 
ATOM     13  N   UNL     1      -2.870  11.320  18.432  0.00  0.00    +0.000 NA
ATOM     14  C   UNL     1      -2.664  11.208  16.990  0.00  0.00    +0.000 C 
ENDBRANCH   7  13
ENDBRANCH   1   7
BRANCH   5  15
ATOM     15  C   UNL     1       1.709   8.509  19.458  0.00  0.00    +0.000 C 
ATOM     16  O   UNL     1       2.129   8.717  18.327  0.00  0.00    +0.000 OA
ATOM     17  N   UNL     1       2.056   7.373  20.164  0.00  0.00    +0.000 N 
ATOM     18  H   UNL     1       1.669   7.254  21.093  0.00  0.00    +0.000 HD
BRANCH  17  19
ATOM     19  C   UNL     1       2.969   6.396  19.618  0.00  0.00    +0.000 C 
BRANCH  19  20
ATOM     20  C   UNL     1       2.277   5.092  19.321  0.00  0.00    +0.000 A 
ATOM     21  C   UNL     1       2.384   4.506  18.047  0.00  0.00    +0.000 A 
ATOM     22  C   UNL     1       1.758   3.289  17.775  0.00  0.00    +0.000 A 
ATOM     23  C   UNL     1       1.017   2.663  18.770  0.00  0.00    +0.000 A 
ATOM     24  F   UNL     1       0.417   1.494  18.511  0.00  0.00    +0.000 F 
ATOM     25  C   UNL     1       0.888   3.232  20.032  0.00  0.00    +0.000 A 
ATOM     26  C   UNL     1       1.516   4.447  20.308  0.00  0.00    +0.000 A 
ENDBRANCH  19  20
ENDBRANCH  17  19
ENDBRANCH   5  15
BRANCH   3  27
ATOM     27  O   UNL     1      -0.195  10.616  23.403  0.00  0.00    +0.000 OA
ATOM     28  H   UNL     1       0.695  10.957  23.607  0.00  0.00    +0.000 HD
ENDBRANCH   3  27
BRANCH   4  29
ATOM     29  O   UNL     1       1.551   8.796  22.388  0.00  0.00    +0.000 OA
ATOM     30  H   UNL     1       0.963   8.137  22.807  0.00  0.00    +0.000 HD
ENDBRANCH   4  29
TORSDOF 7
ENDMDL
MODEL 9
REMARK VINA RESULT:      -7.5      1.456      1.855
REMARK  Name = 
REMARK  9 active torsions:
REMARK  status: ('A' for Active; 'I' for Inactive)
REMARK    1  A    between atoms: C_1  and  N_2
REMARK    2  A    between atoms: N_2  and  C_3
REMARK    3  A    between atoms: N_2  and  C_4
REMARK    4  A    between atoms: C_4  and  C_5
REMARK    5  A    between atoms: C_7  and  O_8
REMARK    6  A    between atoms: C_9  and  O_10
REMARK    7  A    between atoms: C_11  and  C_12
REMARK    8  A    between atoms: N_14  and  C_15
REMARK    9  A    between atoms: C_15  and  C_16
REMARK                            x       y       z     vdW  Elec       q    Type
REMARK                         _______ _______ _______ _____ _____    ______ ____
ROOT
ATOM      1  C   UNL     1       4.444   4.395  17.979  0.00  0.00    +0.000 A 
ATOM      2  N   UNL     1       3.959   3.237  17.479  0.00  0.00    +0.000 NA
ATOM      3  C   UNL     1       2.738   2.892  17.888  0.00  0.00    +0.000 A 
ATOM      4  C   UNL     1       1.942   3.597  18.753  0.00  0.00    +0.000 A 
ATOM      5  C   UNL     1       2.504   4.770  19.200  0.00  0.00    +0.000 A 
ATOM      6  N   UNL     1       3.749   5.198  18.824  0.00  0.00    +0.000 NA
ENDROOT
BRANCH   1   7
ATOM      7  C   UNL     1       5.849   4.846  17.486  0.00  0.00    +0.000 C 
ATOM      8  C   UNL     1       5.852   6.350  17.087  0.00  0.00    +0.000 C 
ATOM      9  C   UNL     1       5.120   6.423  15.749  0.00  0.00    +0.000 C 
ATOM     10  C   UNL     1       5.339   5.066  15.090  0.00  0.00    +0.000 C 
ATOM     11  C   UNL     1       6.150   4.238  16.089  0.00  0.00    +0.000 C 
BRANCH   7  13
ATOM     12  C   UNL     1       8.254   4.356  17.827  0.00  0.00    +0.000 C 
ATOM     13  N   UNL     1       6.956   4.602  18.463  0.00  0.00    +0.000 NA
ATOM     14  C   UNL     1       7.092   5.642  19.481  0.00  0.00    +0.000 C 
ENDBRANCH   7  13
ENDBRANCH   1   7
BRANCH   5  15
ATOM     15  C   UNL     1       1.763   5.661  20.163  0.00  0.00    +0.000 C 
ATOM     16  O   UNL     1       0.860   5.248  20.881  0.00  0.00    +0.000 OA
ATOM     17  N   UNL     1       2.172   6.980  20.198  0.00  0.00    +0.000 N 
ATOM     18  H   UNL     1       2.919   7.263  19.574  0.00  0.00    +0.000 HD
BRANCH  17  19
ATOM     19  C   UNL     1       1.585   7.927  21.117  0.00  0.00    +0.000 C 
BRANCH  19  20
ATOM     20  C   UNL     1       0.909   9.061  20.392  0.00  0.00    +0.000 A 
ATOM     21  C   UNL     1       1.247   9.351  19.059  0.00  0.00    +0.000 A 
ATOM     22  C   UNL     1       0.609  10.390  18.379  0.00  0.00    +0.000 A 
ATOM     23  C   UNL     1      -0.355  11.146  19.034  0.00  0.00    +0.000 A 
ATOM     24  F   UNL     1      -0.968  12.143  18.382  0.00  0.00    +0.000 F 
ATOM     25  C   UNL     1      -0.693  10.885  20.357  0.00  0.00    +0.000 A 
ATOM     26  C   UNL     1      -0.060   9.844  21.038  0.00  0.00    +0.000 A 
ENDBRANCH  19  20
ENDBRANCH  17  19
ENDBRANCH   5  15
BRANCH   3  27
ATOM     27  O   UNL     1       2.285   1.716  17.371  0.00  0.00    +0.000 OA
ATOM     28  H   UNL     1       1.879   2.028  16.541  0.00  0.00    +0.000 HD
ENDBRANCH   3  27
BRANCH   4  29
ATOM     29  O   UNL     1       0.719   3.119  19.095  0.00  0.00    +0.000 OA
ATOM     30  H   UNL     1       0.833   2.177  19.331  0.00  0.00    +0.000 HD
ENDBRANCH   4  29
TORSDOF 7
ENDMDL
