MODEL 1
REMARK VINA RESULT:      -6.9      0.000      0.000
REMARK  Name = 
REMARK  5 active torsions:
REMARK  status: ('A' for Active; 'I' for Inactive)
REMARK    1  A    between atoms: C_1  and  S_2
REMARK    2  A    between atoms: S_2  and  C_3
REMARK    3  A    between atoms: C_5  and  C_6
REMARK    4  A    between atoms: C_13  and  C_14
REMARK    5  A    between atoms: C_14  and  O_16
REMARK                            x       y       z     vdW  Elec       q    Type
REMARK                         _______ _______ _______ _____ _____    ______ ____
ROOT
ATOM      1  C   UNL     1       6.503   4.621  15.247  0.00  0.00    +0.000 A 
ATOM      2  C   UNL     1       5.301   4.031  15.552  0.00  0.00    +0.000 A 
ATOM      3  C   UNL     1       4.951   4.125  16.949  0.00  0.00    +0.000 A 
ATOM      4  C   UNL     1       5.958   4.774  17.661  0.00  0.00    +0.000 A 
ATOM      5  S   UNL     1       7.279   5.202  16.636  0.00  0.00    +0.000 S 
ENDROOT
BRANCH   3   6
ATOM      6  C   UNL     1       3.692   3.614  17.520  0.00  0.00    +0.000 A 
ATOM      7  C   UNL     1       3.551   2.298  17.983  0.00  0.00    +0.000 A 
ATOM      8  C   UNL     1       2.340   1.855  18.528  0.00  0.00    +0.000 A 
ATOM      9  C   UNL     1       1.250   2.711  18.573  0.00  0.00    +0.000 A 
ATOM     10  F   UNL     1       0.091   2.283  19.088  0.00  0.00    +0.000 F 
ATOM     11  C   UNL     1       1.346   4.006  18.084  0.00  0.00    +0.000 A 
ATOM     12  C   UNL     1       2.564   4.458  17.567  0.00  0.00    +0.000 A 
ENDBRANCH   3   6
BRANCH   1  14
ATOM     13  C   UNL     1       6.227   3.560  12.744  0.00  0.00    +0.000 C 
ATOM     14  S   UNL     1       7.218   4.771  13.653  0.00  0.00    +0.000 S 
ENDBRANCH   1  14
BRANCH   4  15
ATOM     15  C   UNL     1       6.032   5.173  19.060  0.00  0.00    +0.000 C 
ATOM     16  O   UNL     1       5.090   5.472  19.779  0.00  0.00    +0.000 OA
BRANCH  15  17
ATOM     17  O   UNL     1       7.303   5.157  19.544  0.00  0.00    +0.000 OA
ATOM     18  H   UNL     1       7.321   5.092  20.519  0.00  0.00    +0.000 HD
ENDBRANCH  15  17
ENDBRANCH   4  15
TORSDOF 4
ENDMDL
MODEL 2
REMARK VINA RESULT:      -6.8      0.099      1.173
REMARK  Name = 
REMARK  5 active torsions:
REMARK  status: ('A' for Active; 'I' for Inactive)
REMARK    1  A    between atoms: C_1  and  S_2
REMARK    2  A    between atoms: S_2  and  C_3
REMARK    3  A    between atoms: C_5  and  C_6
REMARK    4  A    between atoms: C_13  and  C_14
REMARK    5  A    between atoms: C_14  and  O_16
REMARK                            x       y       z     vdW  Elec       q    Type
REMARK                         _______ _______ _______ _____ _____    ______ ____
ROOT
ATOM      1  C   UNL     1       6.423   4.573  15.185  0.00  0.00    +0.000 A 
ATOM      2  C   UNL     1       5.203   4.029  15.504  0.00  0.00    +0.000 A 
ATOM      3  C   UNL     1       4.875   4.129  16.906  0.00  0.00    +0.000 A 
ATOM      4  C   UNL     1       5.916   4.735  17.607  0.00  0.00    +0.000 A 
ATOM      5  S   UNL     1       7.239   5.117  16.567  0.00  0.00    +0.000 S 
ENDROOT
BRANCH   3   6
ATOM      6  C   UNL     1       3.605   3.666  17.491  0.00  0.00    +0.000 A 
ATOM      7  C   UNL     1       2.495   4.507  17.651  0.00  0.00    +0.000 A 
ATOM      8  C   UNL     1       1.301   4.024  18.201  0.00  0.00    +0.000 A 
ATOM      9  C   UNL     1       1.224   2.709  18.635  0.00  0.00    +0.000 A 
ATOM     10  F   UNL     1       0.085   2.251  19.168  0.00  0.00    +0.000 F 
ATOM     11  C   UNL     1       2.319   1.863  18.528  0.00  0.00    +0.000 A 
ATOM     12  C   UNL     1       3.501   2.338  17.950  0.00  0.00    +0.000 A 
ENDBRANCH   3   6
BRANCH   1  14
ATOM     13  C   UNL     1       6.131   3.472  12.702  0.00  0.00    +0.000 C 
ATOM     14  S   UNL     1       7.123   4.703  13.583  0.00  0.00    +0.000 S 
ENDBRANCH   1  14
BRANCH   4  15
ATOM     15  C   UNL     1       6.024   5.124  19.007  0.00  0.00    +0.000 C 
ATOM     16  O   UNL     1       5.100   5.433  19.746  0.00  0.00    +0.000 OA
BRANCH  15  17
ATOM     17  O   UNL     1       7.303   5.086  19.466  0.00  0.00    +0.000 OA
ATOM     18  H   UNL     1       7.806   4.339  19.083  0.00  0.00    +0.000 HD
ENDBRANCH  15  17
ENDBRANCH   4  15
TORSDOF 4
ENDMDL
MODEL 3
REMARK VINA RESULT:      -6.6      3.857      4.950
REMARK  Name = 
REMARK  5 active torsions:
REMARK  status: ('A' for Active; 'I' for Inactive)
REMARK    1  A    between atoms: C_1  and  S_2
REMARK    2  A    between atoms: S_2  and  C_3
REMARK    3  A    between atoms: C_5  and  C_6
REMARK    4  A    between atoms: C_13  and  C_14
REMARK    5  A    between atoms: C_14  and  O_16
REMARK                            x       y       z     vdW  Elec       q    Type
REMARK                         _______ _______ _______ _____ _____    ______ ____
ROOT
ATOM      1  C   UNL     1       5.387   5.049  17.494  0.00  0.00    +0.000 A 
ATOM      2  C   UNL     1       4.813   6.256  17.812  0.00  0.00    +0.000 A 
ATOM      3  C   UNL     1       3.411   6.159  18.144  0.00  0.00    +0.000 A 
ATOM      4  C   UNL     1       2.973   4.841  18.021  0.00  0.00    +0.000 A 
ATOM      5  S   UNL     1       4.241   3.802  17.484  0.00  0.00    +0.000 S 
ENDROOT
BRANCH   3   6
ATOM      6  C   UNL     1       2.584   7.301  18.567  0.00  0.00    +0.000 A 
ATOM      7  C   UNL     1       2.230   8.342  17.696  0.00  0.00    +0.000 A 
ATOM      8  C   UNL     1       1.432   9.405  18.135  0.00  0.00    +0.000 A 
ATOM      9  C   UNL     1       1.019   9.458  19.458  0.00  0.00    +0.000 A 
ATOM     10  F   UNL     1       0.263  10.479  19.877  0.00  0.00    +0.000 F 
ATOM     11  C   UNL     1       1.388   8.465  20.354  0.00  0.00    +0.000 A 
ATOM     12  C   UNL     1       2.160   7.387  19.908  0.00  0.00    +0.000 A 
ENDBRANCH   3   6
BRANCH   1  14
ATOM     13  C   UNL     1       6.975   4.637  15.310  0.00  0.00    +0.000 C 
ATOM     14  S   UNL     1       7.074   4.762  17.113  0.00  0.00    +0.000 S 
ENDBRANCH   1  14
BRANCH   4  15
ATOM     15  C   UNL     1       1.682   4.235  18.318  0.00  0.00    +0.000 C 
ATOM     16  O   UNL     1       1.264   3.926  19.424  0.00  0.00    +0.000 OA
BRANCH  15  17
ATOM     17  O   UNL     1       0.918   4.056  17.207  0.00  0.00    +0.000 OA
ATOM     18  H   UNL     1       1.386   3.539  16.522  0.00  0.00    +0.000 HD
ENDBRANCH  15  17
ENDBRANCH   4  15
TORSDOF 4
ENDMDL
MODEL 4
REMARK VINA RESULT:      -6.5      3.797      4.724
REMARK  Name = 
REMARK  5 active torsions:
REMARK  status: ('A' for Active; 'I' for Inactive)
REMARK    1  A    between atoms: C_1  and  S_2
REMARK    2  A    between atoms: S_2  and  C_3
REMARK    3  A    between atoms: C_5  and  C_6
REMARK    4  A    between atoms: C_13  and  C_14
REMARK    5  A    between atoms: C_14  and  O_16
REMARK                            x       y       z     vdW  Elec       q    Type
REMARK                         _______ _______ _______ _____ _____    ______ ____
ROOT
ATOM      1  C   UNL     1       5.354   5.235  16.923  0.00  0.00    +0.000 A 
ATOM      2  C   UNL     1       4.780   6.387  17.403  0.00  0.00    +0.000 A 
ATOM      3  C   UNL     1       3.445   6.194  17.919  0.00  0.00    +0.000 A 
ATOM      4  C   UNL     1       3.051   4.865  17.766  0.00  0.00    +0.000 A 
ATOM      5  S   UNL     1       4.274   3.931  16.986  0.00  0.00    +0.000 S 
ENDROOT
BRANCH   3   6
ATOM      6  C   UNL     1       2.637   7.262  18.532  0.00  0.00    +0.000 A 
ATOM      7  C   UNL     1       2.211   7.216  19.868  0.00  0.00    +0.000 A 
ATOM      8  C   UNL     1       1.453   8.257  20.416  0.00  0.00    +0.000 A 
ATOM      9  C   UNL     1       1.078   9.330  19.621  0.00  0.00    +0.000 A 
ATOM     10  F   UNL     1       0.346  10.320  20.144  0.00  0.00    +0.000 F 
ATOM     11  C   UNL     1       1.448   9.384  18.285  0.00  0.00    +0.000 A 
ATOM     12  C   UNL     1       2.231   8.358  17.746  0.00  0.00    +0.000 A 
ENDBRANCH   3   6
BRANCH   1  14
ATOM     13  C   UNL     1       6.612   4.429  14.637  0.00  0.00    +0.000 C 
ATOM     14  S   UNL     1       6.980   5.063  16.291  0.00  0.00    +0.000 S 
ENDBRANCH   1  14
BRANCH   4  15
ATOM     15  C   UNL     1       1.844   4.174  18.197  0.00  0.00    +0.000 C 
ATOM     16  O   UNL     1       1.631   3.712  19.309  0.00  0.00    +0.000 OA
BRANCH  15  17
ATOM     17  O   UNL     1       0.902   4.102  17.218  0.00  0.00    +0.000 OA
ATOM     18  H   UNL     1       0.056   4.505  17.497  0.00  0.00    +0.000 HD
ENDBRANCH  15  17
ENDBRANCH   4  15
TORSDOF 4
ENDMDL
MODEL 5
REMARK VINA RESULT:      -6.4      1.842      2.236
REMARK  Name = 
REMARK  5 active torsions:
REMARK  status: ('A' for Active; 'I' for Inactive)
REMARK    1  A    between atoms: C_1  and  S_2
REMARK    2  A    between atoms: S_2  and  C_3
REMARK    3  A    between atoms: C_5  and  C_6
REMARK    4  A    between atoms: C_13  and  C_14
REMARK    5  A    between atoms: C_14  and  O_16
REMARK                            x       y       z     vdW  Elec       q    Type
REMARK                         _______ _______ _______ _____ _____    ______ ____
ROOT
ATOM      1  C   UNL     1       6.001   4.199  15.511  0.00  0.00    +0.000 A 
ATOM      2  C   UNL     1       4.995   3.868  16.387  0.00  0.00    +0.000 A 
ATOM      3  C   UNL     1       5.244   4.302  17.741  0.00  0.00    +0.000 A 
ATOM      4  C   UNL     1       6.485   4.931  17.831  0.00  0.00    +0.000 A 
ATOM      5  S   UNL     1       7.300   4.937  16.309  0.00  0.00    +0.000 S 
ENDROOT
BRANCH   3   6
ATOM      6  C   UNL     1       4.298   4.111  18.854  0.00  0.00    +0.000 A 
ATOM      7  C   UNL     1       3.509   5.153  19.362  0.00  0.00    +0.000 A 
ATOM      8  C   UNL     1       2.614   4.928  20.414  0.00  0.00    +0.000 A 
ATOM      9  C   UNL     1       2.533   3.671  20.994  0.00  0.00    +0.000 A 
ATOM     10  F   UNL     1       1.682   3.459  22.005  0.00  0.00    +0.000 F 
ATOM     11  C   UNL     1       3.331   2.630  20.541  0.00  0.00    +0.000 A 
ATOM     12  C   UNL     1       4.204   2.848  19.470  0.00  0.00    +0.000 A 
ENDBRANCH   3   6
BRANCH   1  14
ATOM     13  C   UNL     1       7.415   4.953  13.299  0.00  0.00    +0.000 C 
ATOM     14  S   UNL     1       6.019   3.907  13.783  0.00  0.00    +0.000 S 
ENDBRANCH   1  14
BRANCH   4  15
ATOM     15  C   UNL     1       7.137   5.597  18.949  0.00  0.00    +0.000 C 
ATOM     16  O   UNL     1       7.133   5.228  20.115  0.00  0.00    +0.000 OA
BRANCH  15  17
ATOM     17  O   UNL     1       7.818   6.712  18.572  0.00  0.00    +0.000 OA
ATOM     18  H   UNL     1       7.448   7.108  17.758  0.00  0.00    +0.000 HD
ENDBRANCH  15  17
ENDBRANCH   4  15
TORSDOF 4
ENDMDL
MODEL 6
REMARK VINA RESULT:      -6.4      3.924      5.163
REMARK  Name = 
REMARK  5 active torsions:
REMARK  status: ('A' for Active; 'I' for Inactive)
REMARK    1  A    between atoms: C_1  and  S_2
REMARK    2  A    between atoms: S_2  and  C_3
REMARK    3  A    between atoms: C_5  and  C_6
REMARK    4  A    between atoms: C_13  and  C_14
REMARK    5  A    between atoms: C_14  and  O_16
REMARK                            x       y       z     vdW  Elec       q    Type
REMARK                         _______ _______ _______ _____ _____    ______ ____
ROOT
ATOM      1  C   UNL     1       5.438   5.047  17.879  0.00  0.00    +0.000 A 
ATOM      2  C   UNL     1       4.851   6.256  18.161  0.00  0.00    +0.000 A 
ATOM      3  C   UNL     1       3.424   6.170  18.365  0.00  0.00    +0.000 A 
ATOM      4  C   UNL     1       2.984   4.860  18.187  0.00  0.00    +0.000 A 
ATOM      5  S   UNL     1       4.285   3.812  17.752  0.00  0.00    +0.000 S 
ENDROOT
BRANCH   3   6
ATOM      6  C   UNL     1       2.573   7.317  18.727  0.00  0.00    +0.000 A 
ATOM      7  C   UNL     1       2.048   7.492  20.015  0.00  0.00    +0.000 A 
ATOM      8  C   UNL     1       1.252   8.603  20.321  0.00  0.00    +0.000 A 
ATOM      9  C   UNL     1       0.940   9.522  19.331  0.00  0.00    +0.000 A 
ATOM     10  F   UNL     1       0.173  10.578  19.623  0.00  0.00    +0.000 F 
ATOM     11  C   UNL     1       1.410   9.354  18.036  0.00  0.00    +0.000 A 
ATOM     12  C   UNL     1       2.230   8.260  17.738  0.00  0.00    +0.000 A 
ENDBRANCH   3   6
BRANCH   1  14
ATOM     13  C   UNL     1       7.846   6.093  18.632  0.00  0.00    +0.000 C 
ATOM     14  S   UNL     1       7.149   4.745  17.646  0.00  0.00    +0.000 S 
ENDBRANCH   1  14
BRANCH   4  15
ATOM     15  C   UNL     1       1.667   4.264  18.360  0.00  0.00    +0.000 C 
ATOM     16  O   UNL     1       1.117   4.017  19.424  0.00  0.00    +0.000 OA
BRANCH  15  17
ATOM     17  O   UNL     1       1.042   4.018  17.178  0.00  0.00    +0.000 OA
ATOM     18  H   UNL     1       0.198   4.507  17.102  0.00  0.00    +0.000 HD
ENDBRANCH  15  17
ENDBRANCH   4  15
TORSDOF 4
ENDMDL
MODEL 7
REMARK VINA RESULT:      -6.4      3.933      5.228
REMARK  Name = 
REMARK  5 active torsions:
REMARK  status: ('A' for Active; 'I' for Inactive)
REMARK    1  A    between atoms: C_1  and  S_2
REMARK    2  A    between atoms: S_2  and  C_3
REMARK    3  A    between atoms: C_5  and  C_6
REMARK    4  A    between atoms: C_13  and  C_14
REMARK    5  A    between atoms: C_14  and  O_16
REMARK                            x       y       z     vdW  Elec       q    Type
REMARK                         _______ _______ _______ _____ _____    ______ ____
ROOT
ATOM      1  C   UNL     1       5.445   5.132  17.877  0.00  0.00    +0.000 A 
ATOM      2  C   UNL     1       4.841   6.329  18.175  0.00  0.00    +0.000 A 
ATOM      3  C   UNL     1       3.404   6.238  18.283  0.00  0.00    +0.000 A 
ATOM      4  C   UNL     1       2.977   4.938  18.019  0.00  0.00    +0.000 A 
ATOM      5  S   UNL     1       4.303   3.908  17.620  0.00  0.00    +0.000 S 
ENDROOT
BRANCH   3   6
ATOM      6  C   UNL     1       2.532   7.370  18.642  0.00  0.00    +0.000 A 
ATOM      7  C   UNL     1       2.146   8.350  17.716  0.00  0.00    +0.000 A 
ATOM      8  C   UNL     1       1.306   9.404  18.094  0.00  0.00    +0.000 A 
ATOM      9  C   UNL     1       0.883   9.510  19.410  0.00  0.00    +0.000 A 
ATOM     10  F   UNL     1       0.087  10.523  19.772  0.00  0.00    +0.000 F 
ATOM     11  C   UNL     1       1.282   8.580  20.359  0.00  0.00    +0.000 A 
ATOM     12  C   UNL     1       2.096   7.510  19.974  0.00  0.00    +0.000 A 
ENDBRANCH   3   6
BRANCH   1  14
ATOM     13  C   UNL     1       7.810   6.374  18.447  0.00  0.00    +0.000 C 
ATOM     14  S   UNL     1       7.167   4.836  17.740  0.00  0.00    +0.000 S 
ENDBRANCH   1  14
BRANCH   4  15
ATOM     15  C   UNL     1       1.651   4.339  18.080  0.00  0.00    +0.000 C 
ATOM     16  O   UNL     1       0.892   4.161  17.138  0.00  0.00    +0.000 OA
BRANCH  15  17
ATOM     17  O   UNL     1       1.311   3.941  19.335  0.00  0.00    +0.000 OA
ATOM     18  H   UNL     1       2.042   3.464  19.777  0.00  0.00    +0.000 HD
ENDBRANCH  15  17
ENDBRANCH   4  15
TORSDOF 4
ENDMDL
MODEL 8
REMARK VINA RESULT:      -6.4      1.836      1.906
REMARK  Name = 
REMARK  5 active torsions:
REMARK  status: ('A' for Active; 'I' for Inactive)
REMARK    1  A    between atoms: C_1  and  S_2
REMARK    2  A    between atoms: S_2  and  C_3
REMARK    3  A    between atoms: C_5  and  C_6
REMARK    4  A    between atoms: C_13  and  C_14
REMARK    5  A    between atoms: C_14  and  O_16
REMARK                            x       y       z     vdW  Elec       q    Type
REMARK                         _______ _______ _______ _____ _____    ______ ____
ROOT
ATOM      1  C   UNL     1       5.906   4.242  15.492  0.00  0.00    +0.000 A 
ATOM      2  C   UNL     1       4.933   3.870  16.387  0.00  0.00    +0.000 A 
ATOM      3  C   UNL     1       5.212   4.275  17.744  0.00  0.00    +0.000 A 
ATOM      4  C   UNL     1       6.443   4.926  17.815  0.00  0.00    +0.000 A 
ATOM      5  S   UNL     1       7.213   4.987  16.272  0.00  0.00    +0.000 S 
ENDROOT
BRANCH   3   6
ATOM      6  C   UNL     1       4.302   4.038  18.878  0.00  0.00    +0.000 A 
ATOM      7  C   UNL     1       4.241   2.812  19.555  0.00  0.00    +0.000 A 
ATOM      8  C   UNL     1       3.370   2.631  20.636  0.00  0.00    +0.000 A 
ATOM      9  C   UNL     1       2.523   3.660  21.019  0.00  0.00    +0.000 A 
ATOM     10  F   UNL     1       1.685   3.483  22.047  0.00  0.00    +0.000 F 
ATOM     11  C   UNL     1       2.530   4.872  20.342  0.00  0.00    +0.000 A 
ATOM     12  C   UNL     1       3.422   5.062  19.282  0.00  0.00    +0.000 A 
ENDBRANCH   3   6
BRANCH   1  14
ATOM     13  C   UNL     1       7.357   4.926  13.281  0.00  0.00    +0.000 C 
ATOM     14  S   UNL     1       5.881   3.993  13.757  0.00  0.00    +0.000 S 
ENDBRANCH   1  14
BRANCH   4  15
ATOM     15  C   UNL     1       7.114   5.578  18.931  0.00  0.00    +0.000 C 
ATOM     16  O   UNL     1       7.097   5.216  20.098  0.00  0.00    +0.000 OA
BRANCH  15  17
ATOM     17  O   UNL     1       7.830   6.670  18.548  0.00  0.00    +0.000 OA
ATOM     18  H   UNL     1       7.689   6.886  17.605  0.00  0.00    +0.000 HD
ENDBRANCH  15  17
ENDBRANCH   4  15
TORSDOF 4
ENDMDL
MODEL 9
REMARK VINA RESULT:      -6.3      3.416      5.594
REMARK  Name = 
REMARK  5 active torsions:
REMARK  status: ('A' for Active; 'I' for Inactive)
REMARK    1  A    between atoms: C_1  and  S_2
REMARK    2  A    between atoms: S_2  and  C_3
REMARK    3  A    between atoms: C_5  and  C_6
REMARK    4  A    between atoms: C_13  and  C_14
REMARK    5  A    between atoms: C_14  and  O_16
REMARK                            x       y       z     vdW  Elec       q    Type
REMARK                         _______ _______ _______ _____ _____    ______ ____
ROOT
ATOM      1  C   UNL     1       3.661   4.329  18.187  0.00  0.00    +0.000 A 
ATOM      2  C   UNL     1       3.975   4.265  16.852  0.00  0.00    +0.000 A 
ATOM      3  C   UNL     1       5.365   4.541  16.573  0.00  0.00    +0.000 A 
ATOM      4  C   UNL     1       6.047   4.844  17.750  0.00  0.00    +0.000 A 
ATOM      5  S   UNL     1       4.990   4.820  19.115  0.00  0.00    +0.000 S 
ENDROOT
BRANCH   3   6
ATOM      6  C   UNL     1       5.962   4.487  15.227  0.00  0.00    +0.000 A 
ATOM      7  C   UNL     1       7.067   5.268  14.859  0.00  0.00    +0.000 A 
ATOM      8  C   UNL     1       7.611   5.179  13.572  0.00  0.00    +0.000 A 
ATOM      9  C   UNL     1       7.027   4.343  12.632  0.00  0.00    +0.000 A 
ATOM     10  F   UNL     1       7.544   4.266  11.400  0.00  0.00    +0.000 F 
ATOM     11  C   UNL     1       5.907   3.590  12.954  0.00  0.00    +0.000 A 
ATOM     12  C   UNL     1       5.382   3.656  14.249  0.00  0.00    +0.000 A 
ENDBRANCH   3   6
BRANCH   1  14
ATOM     13  C   UNL     1       2.460   2.392  19.694  0.00  0.00    +0.000 C 
ATOM     14  S   UNL     1       2.102   3.984  18.911  0.00  0.00    +0.000 S 
ENDBRANCH   1  14
BRANCH   4  15
ATOM     15  C   UNL     1       7.458   5.110  17.993  0.00  0.00    +0.000 C 
ATOM     16  O   UNL     1       7.939   6.161  18.393  0.00  0.00    +0.000 OA
BRANCH  15  17
ATOM     17  O   UNL     1       8.245   4.027  17.757  0.00  0.00    +0.000 OA
ATOM     18  H   UNL     1       8.991   4.241  17.162  0.00  0.00    +0.000 HD
ENDBRANCH  15  17
ENDBRANCH   4  15
TORSDOF 4
ENDMDL
