MODEL 1
REMARK VINA RESULT:      -9.2      0.000      0.000
REMARK  Name = 
REMARK  8 active torsions:
REMARK  status: ('A' for Active; 'I' for Inactive)
REMARK    1  A    between atoms: C_1  and  C_2
REMARK    2  A    between atoms: C_4  and  C_5
REMARK    3  A    between atoms: C_5  and  N_6
REMARK    4  A    between atoms: N_9  and  C_10
REMARK    5  A    between atoms: C_15  and  C_16
REMARK    6  A    between atoms: N_18  and  C_19
REMARK    7  A    between atoms: C_19  and  C_20
REMARK    8  A    between atoms: N_32  and  C_33
REMARK                            x       y       z     vdW  Elec       q    Type
REMARK                         _______ _______ _______ _____ _____    ______ ____
ROOT
ATOM      1  N   UNL     1       2.701   4.277  18.649  0.00  0.00    +0.000 N 
ATOM      2  C   UNL     1       2.779   3.154  19.458  0.00  0.00    +0.000 C 
ATOM      3  O   UNL     1       3.131   2.060  19.007  0.00  0.00    +0.000 OA
ATOM      4  N   UNL     1       2.449   3.304  20.788  0.00  0.00    +0.000 N 
ATOM      5  C   UNL     1       2.485   2.147  21.664  0.00  0.00    +0.000 C 
ATOM      6  C   UNL     1       1.876   4.511  21.350  0.00  0.00    +0.000 C 
ATOM      7  C   UNL     1       1.957   5.709  20.467  0.00  0.00    +0.000 A 
ATOM      8  C   UNL     1       1.573   6.973  20.956  0.00  0.00    +0.000 A 
ATOM      9  C   UNL     1       1.593   8.097  20.125  0.00  0.00    +0.000 A 
ATOM     10  C   UNL     1       2.027   7.965  18.809  0.00  0.00    +0.000 A 
ATOM     11  C   UNL     1       2.486   6.718  18.368  0.00  0.00    +0.000 A 
ATOM     12  C   UNL     1       2.389   5.568  19.154  0.00  0.00    +0.000 A 
ENDROOT
BRANCH  10  13
ATOM     13  C   UNL     1       2.010   9.150  17.904  0.00  0.00    +0.000 C 
ATOM     14  O   UNL     1       2.902   9.295  17.079  0.00  0.00    +0.000 OA
ATOM     15  N   UNL     1       1.017  10.107  18.021  0.00  0.00    +0.000 N 
ATOM     16  H   UNL     1       1.026  10.785  17.269  0.00  0.00    +0.000 HD
BRANCH  15  17
ATOM     17  C   UNL     1      -0.106  10.105  18.935  0.00  0.00    +0.000 C 
BRANCH  17  18
ATOM     18  C   UNL     1      -1.403  10.571  18.362  0.00  0.00    +0.000 A 
ATOM     19  C   UNL     1      -1.936  10.008  17.209  0.00  0.00    +0.000 A 
ATOM     20  F   UNL     1      -1.249   9.072  16.541  0.00  0.00    +0.000 F 
ATOM     21  C   UNL     1      -3.198  10.372  16.747  0.00  0.00    +0.000 A 
ATOM     22  C   UNL     1      -3.932  11.312  17.461  0.00  0.00    +0.000 A 
ATOM     23  F   UNL     1      -5.152  11.656  17.033  0.00  0.00    +0.000 F 
ATOM     24  C   UNL     1      -3.429  11.886  18.621  0.00  0.00    +0.000 A 
ATOM     25  C   UNL     1      -2.171  11.509  19.061  0.00  0.00    +0.000 A 
ATOM     26  F   UNL     1      -1.711  12.036  20.204  0.00  0.00    +0.000 F 
ENDBRANCH  17  18
ENDBRANCH  15  17
ENDBRANCH  10  13
BRANCH   1  27
ATOM     27  C   UNL     1       2.899   4.062  17.210  0.00  0.00    +0.000 C 
BRANCH  27  31
ATOM     28  C   UNL     1       7.241   4.873  14.628  0.00  0.00    +0.000 C 
ATOM     29  C   UNL     1       6.189   4.601  15.635  0.00  0.00    +0.000 A 
ATOM     30  C   UNL     1       4.830   4.424  15.490  0.00  0.00    +0.000 A 
ATOM     31  C   UNL     1       4.330   4.228  16.797  0.00  0.00    +0.000 A 
ATOM     32  N   UNL     1       5.314   4.294  17.709  0.00  0.00    +0.000 NA
ATOM     33  N   UNL     1       6.429   4.494  16.979  0.00  0.00    +0.000 N 
ATOM     34  C   UNL     1       7.699   4.637  17.654  0.00  0.00    +0.000 C 
ENDBRANCH  27  31
ENDBRANCH   1  27
TORSDOF 5
ENDMDL
MODEL 2
REMARK VINA RESULT:      -9.2      3.711      8.718
REMARK  Name = 
REMARK  8 active torsions:
REMARK  status: ('A' for Active; 'I' for Inactive)
REMARK    1  A    between atoms: C_1  and  C_2
REMARK    2  A    between atoms: C_4  and  C_5
REMARK    3  A    between atoms: C_5  and  N_6
REMARK    4  A    between atoms: N_9  and  C_10
REMARK    5  A    between atoms: C_15  and  C_16
REMARK    6  A    between atoms: N_18  and  C_19
REMARK    7  A    between atoms: C_19  and  C_20
REMARK    8  A    between atoms: N_32  and  C_33
REMARK                            x       y       z     vdW  Elec       q    Type
REMARK                         _______ _______ _______ _____ _____    ______ ____
ROOT
ATOM      1  N   UNL     1      -1.117  11.672  20.311  0.00  0.00    +0.000 N 
ATOM      2  C   UNL     1      -1.898  12.112  21.369  0.00  0.00    +0.000 C 
ATOM      3  O   UNL     1      -2.697  13.044  21.235  0.00  0.00    +0.000 OA
ATOM      4  N   UNL     1      -1.751  11.468  22.578  0.00  0.00    +0.000 N 
ATOM      5  C   UNL     1      -2.524  11.918  23.721  0.00  0.00    +0.000 C 
ATOM      6  C   UNL     1      -0.725  10.480  22.852  0.00  0.00    +0.000 C 
ATOM      7  C   UNL     1      -0.027   9.956  21.645  0.00  0.00    +0.000 A 
ATOM      8  C   UNL     1       0.881   8.886  21.763  0.00  0.00    +0.000 A 
ATOM      9  C   UNL     1       1.583   8.418  20.649  0.00  0.00    +0.000 A 
ATOM     10  C   UNL     1       1.356   9.000  19.405  0.00  0.00    +0.000 A 
ATOM     11  C   UNL     1       0.387  10.003  19.293  0.00  0.00    +0.000 A 
ATOM     12  C   UNL     1      -0.258  10.544  20.407  0.00  0.00    +0.000 A 
ENDROOT
BRANCH  10  13
ATOM     13  C   UNL     1       2.134   8.535  18.221  0.00  0.00    +0.000 C 
ATOM     14  O   UNL     1       2.111   9.191  17.187  0.00  0.00    +0.000 OA
ATOM     15  N   UNL     1       2.843   7.349  18.268  0.00  0.00    +0.000 N 
ATOM     16  H   UNL     1       3.441   7.207  17.463  0.00  0.00    +0.000 HD
BRANCH  15  17
ATOM     17  C   UNL     1       2.978   6.447  19.394  0.00  0.00    +0.000 C 
BRANCH  17  18
ATOM     18  C   UNL     1       2.365   5.098  19.217  0.00  0.00    +0.000 A 
ATOM     19  C   UNL     1       1.433   4.596  20.117  0.00  0.00    +0.000 A 
ATOM     20  F   UNL     1       1.119   5.295  21.216  0.00  0.00    +0.000 F 
ATOM     21  C   UNL     1       0.785   3.387  19.882  0.00  0.00    +0.000 A 
ATOM     22  C   UNL     1       1.076   2.679  18.722  0.00  0.00    +0.000 A 
ATOM     23  F   UNL     1       0.447   1.524  18.481  0.00  0.00    +0.000 F 
ATOM     24  C   UNL     1       1.998   3.159  17.801  0.00  0.00    +0.000 A 
ATOM     25  C   UNL     1       2.631   4.364  18.056  0.00  0.00    +0.000 A 
ATOM     26  F   UNL     1       3.486   4.841  17.140  0.00  0.00    +0.000 F 
ENDBRANCH  17  18
ENDBRANCH  15  17
ENDBRANCH  10  13
BRANCH   1  27
ATOM     27  C   UNL     1      -1.171  12.472  19.081  0.00  0.00    +0.000 C 
BRANCH  27  31
ATOM     28  C   UNL     1      -3.591  10.245  15.161  0.00  0.00    +0.000 C 
ATOM     29  C   UNL     1      -3.198  10.967  16.394  0.00  0.00    +0.000 A 
ATOM     30  C   UNL     1      -1.955  11.314  16.875  0.00  0.00    +0.000 A 
ATOM     31  C   UNL     1      -2.192  11.961  18.110  0.00  0.00    +0.000 A 
ATOM     32  N   UNL     1      -3.504  12.004  18.392  0.00  0.00    +0.000 NA
ATOM     33  N   UNL     1      -4.091  11.420  17.329  0.00  0.00    +0.000 N 
ATOM     34  C   UNL     1      -5.529  11.274  17.307  0.00  0.00    +0.000 C 
ENDBRANCH  27  31
ENDBRANCH   1  27
TORSDOF 5
ENDMDL
MODEL 3
REMARK VINA RESULT:      -9.2      0.127      1.439
REMARK  Name = 
REMARK  8 active torsions:
REMARK  status: ('A' for Active; 'I' for Inactive)
REMARK    1  A    between atoms: C_1  and  C_2
REMARK    2  A    between atoms: C_4  and  C_5
REMARK    3  A    between atoms: C_5  and  N_6
REMARK    4  A    between atoms: N_9  and  C_10
REMARK    5  A    between atoms: C_15  and  C_16
REMARK    6  A    between atoms: N_18  and  C_19
REMARK    7  A    between atoms: C_19  and  C_20
REMARK    8  A    between atoms: N_32  and  C_33
REMARK                            x       y       z     vdW  Elec       q    Type
REMARK                         _______ _______ _______ _____ _____    ______ ____
ROOT
ATOM      1  N   UNL     1       2.716   4.334  18.649  0.00  0.00    +0.000 N 
ATOM      2  C   UNL     1       2.810   3.206  19.449  0.00  0.00    +0.000 C 
ATOM      3  O   UNL     1       3.176   2.120  18.989  0.00  0.00    +0.000 OA
ATOM      4  N   UNL     1       2.480   3.342  20.780  0.00  0.00    +0.000 N 
ATOM      5  C   UNL     1       2.532   2.179  21.647  0.00  0.00    +0.000 C 
ATOM      6  C   UNL     1       1.892   4.537  21.352  0.00  0.00    +0.000 C 
ATOM      7  C   UNL     1       1.956   5.742  20.479  0.00  0.00    +0.000 A 
ATOM      8  C   UNL     1       1.556   6.998  20.978  0.00  0.00    +0.000 A 
ATOM      9  C   UNL     1       1.562   8.128  20.155  0.00  0.00    +0.000 A 
ATOM     10  C   UNL     1       1.996   8.012  18.838  0.00  0.00    +0.000 A 
ATOM     11  C   UNL     1       2.470   6.774  18.387  0.00  0.00    +0.000 A 
ATOM     12  C   UNL     1       2.389   5.617  19.164  0.00  0.00    +0.000 A 
ENDROOT
BRANCH  10  13
ATOM     13  C   UNL     1       1.962   9.203  17.943  0.00  0.00    +0.000 C 
ATOM     14  O   UNL     1       2.836   9.351  17.098  0.00  0.00    +0.000 OA
ATOM     15  N   UNL     1       0.976  10.163  18.089  0.00  0.00    +0.000 N 
ATOM     16  H   UNL     1       0.970  10.847  17.342  0.00  0.00    +0.000 HD
BRANCH  15  17
ATOM     17  C   UNL     1      -0.126  10.159  19.029  0.00  0.00    +0.000 C 
BRANCH  17  18
ATOM     18  C   UNL     1      -1.460  10.509  18.459  0.00  0.00    +0.000 A 
ATOM     19  C   UNL     1      -2.270  11.479  19.038  0.00  0.00    +0.000 A 
ATOM     20  F   UNL     1      -1.892  12.073  20.177  0.00  0.00    +0.000 F 
ATOM     21  C   UNL     1      -3.459  11.875  18.435  0.00  0.00    +0.000 A 
ATOM     22  C   UNL     1      -3.834  11.290  17.231  0.00  0.00    +0.000 A 
ATOM     23  F   UNL     1      -4.969  11.677  16.637  0.00  0.00    +0.000 F 
ATOM     24  C   UNL     1      -3.042  10.324  16.625  0.00  0.00    +0.000 A 
ATOM     25  C   UNL     1      -1.863   9.944  17.244  0.00  0.00    +0.000 A 
ATOM     26  F   UNL     1      -1.083   9.043  16.630  0.00  0.00    +0.000 F 
ENDBRANCH  17  18
ENDBRANCH  15  17
ENDBRANCH  10  13
BRANCH   1  27
ATOM     27  C   UNL     1       2.916   4.133  17.208  0.00  0.00    +0.000 C 
BRANCH  27  31
ATOM     28  C   UNL     1       7.289   4.826  14.644  0.00  0.00    +0.000 C 
ATOM     29  C   UNL     1       6.225   4.591  15.648  0.00  0.00    +0.000 A 
ATOM     30  C   UNL     1       4.865   4.429  15.496  0.00  0.00    +0.000 A 
ATOM     31  C   UNL     1       4.352   4.270  16.804  0.00  0.00    +0.000 A 
ATOM     32  N   UNL     1       5.330   4.343  17.721  0.00  0.00    +0.000 NA
ATOM     33  N   UNL     1       6.453   4.511  16.996  0.00  0.00    +0.000 N 
ATOM     34  C   UNL     1       7.719   4.653  17.677  0.00  0.00    +0.000 C 
ENDBRANCH  27  31
ENDBRANCH   1  27
TORSDOF 5
ENDMDL
MODEL 4
REMARK VINA RESULT:      -9.1      3.721      9.102
REMARK  Name = 
REMARK  8 active torsions:
REMARK  status: ('A' for Active; 'I' for Inactive)
REMARK    1  A    between atoms: C_1  and  C_2
REMARK    2  A    between atoms: C_4  and  C_5
REMARK    3  A    between atoms: C_5  and  N_6
REMARK    4  A    between atoms: N_9  and  C_10
REMARK    5  A    between atoms: C_15  and  C_16
REMARK    6  A    between atoms: N_18  and  C_19
REMARK    7  A    between atoms: C_19  and  C_20
REMARK    8  A    between atoms: N_32  and  C_33
REMARK                            x       y       z     vdW  Elec       q    Type
REMARK                         _______ _______ _______ _____ _____    ______ ____
ROOT
ATOM      1  N   UNL     1      -1.198  11.720  20.359  0.00  0.00    +0.000 N 
ATOM      2  C   UNL     1      -1.997  12.268  21.350  0.00  0.00    +0.000 C 
ATOM      3  O   UNL     1      -2.747  13.221  21.118  0.00  0.00    +0.000 OA
ATOM      4  N   UNL     1      -1.923  11.709  22.608  0.00  0.00    +0.000 N 
ATOM      5  C   UNL     1      -2.718  12.273  23.684  0.00  0.00    +0.000 C 
ATOM      6  C   UNL     1      -0.954  10.701  22.992  0.00  0.00    +0.000 C 
ATOM      7  C   UNL     1      -0.236  10.061  21.854  0.00  0.00    +0.000 A 
ATOM      8  C   UNL     1       0.618   8.965  22.085  0.00  0.00    +0.000 A 
ATOM      9  C   UNL     1       1.339   8.388  21.036  0.00  0.00    +0.000 A 
ATOM     10  C   UNL     1       1.185   8.886  19.746  0.00  0.00    +0.000 A 
ATOM     11  C   UNL     1       0.267   9.919  19.523  0.00  0.00    +0.000 A 
ATOM     12  C   UNL     1      -0.394  10.567  20.569  0.00  0.00    +0.000 A 
ENDROOT
BRANCH  10  13
ATOM     13  C   UNL     1       1.984   8.304  18.630  0.00  0.00    +0.000 C 
ATOM     14  O   UNL     1       2.112   8.931  17.586  0.00  0.00    +0.000 OA
ATOM     15  N   UNL     1       2.543   7.045  18.750  0.00  0.00    +0.000 N 
ATOM     16  H   UNL     1       3.176   6.814  17.993  0.00  0.00    +0.000 HD
BRANCH  15  17
ATOM     17  C   UNL     1       2.492   6.163  19.898  0.00  0.00    +0.000 C 
BRANCH  17  18
ATOM     18  C   UNL     1       2.858   4.740  19.634  0.00  0.00    +0.000 A 
ATOM     19  C   UNL     1       1.892   3.750  19.504  0.00  0.00    +0.000 A 
ATOM     20  F   UNL     1       0.599   4.048  19.689  0.00  0.00    +0.000 F 
ATOM     21  C   UNL     1       2.238   2.450  19.148  0.00  0.00    +0.000 A 
ATOM     22  C   UNL     1       3.574   2.147  18.915  0.00  0.00    +0.000 A 
ATOM     23  F   UNL     1       3.914   0.904  18.558  0.00  0.00    +0.000 F 
ATOM     24  C   UNL     1       4.561   3.117  19.030  0.00  0.00    +0.000 A 
ATOM     25  C   UNL     1       4.193   4.404  19.387  0.00  0.00    +0.000 A 
ATOM     26  F   UNL     1       5.147   5.344  19.452  0.00  0.00    +0.000 F 
ENDBRANCH  17  18
ENDBRANCH  15  17
ENDBRANCH  10  13
BRANCH   1  27
ATOM     27  C   UNL     1      -1.170  12.429  19.074  0.00  0.00    +0.000 C 
BRANCH  27  31
ATOM     28  C   UNL     1      -3.556  10.094  15.196  0.00  0.00    +0.000 C 
ATOM     29  C   UNL     1      -3.173  10.856  16.408  0.00  0.00    +0.000 A 
ATOM     30  C   UNL     1      -1.933  11.201  16.899  0.00  0.00    +0.000 A 
ATOM     31  C   UNL     1      -2.181  11.898  18.104  0.00  0.00    +0.000 A 
ATOM     32  N   UNL     1      -3.498  11.971  18.361  0.00  0.00    +0.000 NA
ATOM     33  N   UNL     1      -4.075  11.357  17.310  0.00  0.00    +0.000 N 
ATOM     34  C   UNL     1      -5.514  11.232  17.267  0.00  0.00    +0.000 C 
ENDBRANCH  27  31
ENDBRANCH   1  27
TORSDOF 5
ENDMDL
MODEL 5
REMARK VINA RESULT:      -9.1      1.037      1.079
REMARK  Name = 
REMARK  8 active torsions:
REMARK  status: ('A' for Active; 'I' for Inactive)
REMARK    1  A    between atoms: C_1  and  C_2
REMARK    2  A    between atoms: C_4  and  C_5
REMARK    3  A    between atoms: C_5  and  N_6
REMARK    4  A    between atoms: N_9  and  C_10
REMARK    5  A    between atoms: C_15  and  C_16
REMARK    6  A    between atoms: N_18  and  C_19
REMARK    7  A    between atoms: C_19  and  C_20
REMARK    8  A    between atoms: N_32  and  C_33
REMARK                            x       y       z     vdW  Elec       q    Type
REMARK                         _______ _______ _______ _____ _____    ______ ____
ROOT
ATOM      1  N   UNL     1       2.762   5.130  18.619  0.00  0.00    +0.000 N 
ATOM      2  C   UNL     1       2.948   3.958  19.335  0.00  0.00    +0.000 C 
ATOM      3  O   UNL     1       3.425   2.949  18.806  0.00  0.00    +0.000 OA
ATOM      4  N   UNL     1       2.580   3.959  20.664  0.00  0.00    +0.000 N 
ATOM      5  C   UNL     1       2.726   2.743  21.442  0.00  0.00    +0.000 C 
ATOM      6  C   UNL     1       1.869   5.047  21.307  0.00  0.00    +0.000 C 
ATOM      7  C   UNL     1       1.835   6.316  20.528  0.00  0.00    +0.000 A 
ATOM      8  C   UNL     1       1.307   7.487  21.108  0.00  0.00    +0.000 A 
ATOM      9  C   UNL     1       1.220   8.672  20.372  0.00  0.00    +0.000 A 
ATOM     10  C   UNL     1       1.689   8.698  19.062  0.00  0.00    +0.000 A 
ATOM     11  C   UNL     1       2.288   7.549  18.533  0.00  0.00    +0.000 A 
ATOM     12  C   UNL     1       2.303   6.334  19.220  0.00  0.00    +0.000 A 
ENDROOT
BRANCH  10  13
ATOM     13  C   UNL     1       1.559   9.947  18.257  0.00  0.00    +0.000 C 
ATOM     14  O   UNL     1       2.523  10.691  18.134  0.00  0.00    +0.000 OA
ATOM     15  N   UNL     1       0.347  10.291  17.687  0.00  0.00    +0.000 N 
ATOM     16  H   UNL     1       0.412  11.077  17.051  0.00  0.00    +0.000 HD
BRANCH  15  17
ATOM     17  C   UNL     1      -0.892   9.542  17.731  0.00  0.00    +0.000 C 
BRANCH  17  18
ATOM     18  C   UNL     1      -2.131  10.329  17.459  0.00  0.00    +0.000 A 
ATOM     19  C   UNL     1      -2.857  10.164  16.286  0.00  0.00    +0.000 A 
ATOM     20  F   UNL     1      -2.411   9.336  15.333  0.00  0.00    +0.000 F 
ATOM     21  C   UNL     1      -4.069  10.820  16.093  0.00  0.00    +0.000 A 
ATOM     22  C   UNL     1      -4.557  11.648  17.097  0.00  0.00    +0.000 A 
ATOM     23  F   UNL     1      -5.728  12.270  16.926  0.00  0.00    +0.000 F 
ATOM     24  C   UNL     1      -3.857  11.826  18.283  0.00  0.00    +0.000 A 
ATOM     25  C   UNL     1      -2.652  11.164  18.454  0.00  0.00    +0.000 A 
ATOM     26  F   UNL     1      -2.005  11.307  19.619  0.00  0.00    +0.000 F 
ENDBRANCH  17  18
ENDBRANCH  15  17
ENDBRANCH  10  13
BRANCH   1  27
ATOM     27  C   UNL     1       3.009   5.060  17.173  0.00  0.00    +0.000 C 
BRANCH  27  31
ATOM     28  C   UNL     1       7.610   4.963  14.938  0.00  0.00    +0.000 C 
ATOM     29  C   UNL     1       6.433   5.178  15.812  0.00  0.00    +0.000 A 
ATOM     30  C   UNL     1       5.163   4.647  15.756  0.00  0.00    +0.000 A 
ATOM     31  C   UNL     1       4.456   5.238  16.828  0.00  0.00    +0.000 A 
ATOM     32  N   UNL     1       5.232   6.100  17.505  0.00  0.00    +0.000 NA
ATOM     33  N   UNL     1       6.427   6.026  16.888  0.00  0.00    +0.000 N 
ATOM     34  C   UNL     1       7.515   6.855  17.352  0.00  0.00    +0.000 C 
ENDBRANCH  27  31
ENDBRANCH   1  27
TORSDOF 5
ENDMDL
MODEL 6
REMARK VINA RESULT:      -9.0      1.247      2.024
REMARK  Name = 
REMARK  8 active torsions:
REMARK  status: ('A' for Active; 'I' for Inactive)
REMARK    1  A    between atoms: C_1  and  C_2
REMARK    2  A    between atoms: C_4  and  C_5
REMARK    3  A    between atoms: C_5  and  N_6
REMARK    4  A    between atoms: N_9  and  C_10
REMARK    5  A    between atoms: C_15  and  C_16
REMARK    6  A    between atoms: N_18  and  C_19
REMARK    7  A    between atoms: C_19  and  C_20
REMARK    8  A    between atoms: N_32  and  C_33
REMARK                            x       y       z     vdW  Elec       q    Type
REMARK                         _______ _______ _______ _____ _____    ______ ____
ROOT
ATOM      1  N   UNL     1       2.738   5.241  18.703  0.00  0.00    +0.000 N 
ATOM      2  C   UNL     1       2.935   4.063  19.409  0.00  0.00    +0.000 C 
ATOM      3  O   UNL     1       3.448   3.074  18.879  0.00  0.00    +0.000 OA
ATOM      4  N   UNL     1       2.535   4.039  20.728  0.00  0.00    +0.000 N 
ATOM      5  C   UNL     1       2.691   2.817  21.495  0.00  0.00    +0.000 C 
ATOM      6  C   UNL     1       1.783   5.102  21.367  0.00  0.00    +0.000 C 
ATOM      7  C   UNL     1       1.738   6.380  20.604  0.00  0.00    +0.000 A 
ATOM      8  C   UNL     1       1.168   7.530  21.185  0.00  0.00    +0.000 A 
ATOM      9  C   UNL     1       1.071   8.722  20.462  0.00  0.00    +0.000 A 
ATOM     10  C   UNL     1       1.571   8.777  19.165  0.00  0.00    +0.000 A 
ATOM     11  C   UNL     1       2.209   7.649  18.636  0.00  0.00    +0.000 A 
ATOM     12  C   UNL     1       2.237   6.425  19.307  0.00  0.00    +0.000 A 
ENDROOT
BRANCH  10  13
ATOM     13  C   UNL     1       1.430  10.032  18.372  0.00  0.00    +0.000 C 
ATOM     14  O   UNL     1       2.351  10.838  18.348  0.00  0.00    +0.000 OA
ATOM     15  N   UNL     1       0.253  10.311  17.702  0.00  0.00    +0.000 N 
ATOM     16  H   UNL     1       0.322  11.113  17.088  0.00  0.00    +0.000 HD
BRANCH  15  17
ATOM     17  C   UNL     1      -0.934   9.483  17.623  0.00  0.00    +0.000 C 
BRANCH  17  18
ATOM     18  C   UNL     1      -2.224  10.220  17.482  0.00  0.00    +0.000 A 
ATOM     19  C   UNL     1      -2.677  11.094  18.464  0.00  0.00    +0.000 A 
ATOM     20  F   UNL     1      -1.987  11.236  19.603  0.00  0.00    +0.000 F 
ATOM     21  C   UNL     1      -3.823  11.858  18.273  0.00  0.00    +0.000 A 
ATOM     22  C   UNL     1      -4.518  11.745  17.075  0.00  0.00    +0.000 A 
ATOM     23  F   UNL     1      -5.613  12.488  16.876  0.00  0.00    +0.000 F 
ATOM     24  C   UNL     1      -4.086  10.886  16.073  0.00  0.00    +0.000 A 
ATOM     25  C   UNL     1      -2.943  10.133  16.285  0.00  0.00    +0.000 A 
ATOM     26  F   UNL     1      -2.509   9.340  15.296  0.00  0.00    +0.000 F 
ENDBRANCH  17  18
ENDBRANCH  15  17
ENDBRANCH  10  13
BRANCH   1  27
ATOM     27  C   UNL     1       3.021   5.195  17.263  0.00  0.00    +0.000 C 
BRANCH  27  31
ATOM     28  C   UNL     1       7.737   7.178  17.249  0.00  0.00    +0.000 C 
ATOM     29  C   UNL     1       6.482   6.436  16.989  0.00  0.00    +0.000 A 
ATOM     30  C   UNL     1       5.239   6.536  17.576  0.00  0.00    +0.000 A 
ATOM     31  C   UNL     1       4.440   5.556  16.945  0.00  0.00    +0.000 A 
ATOM     32  N   UNL     1       5.144   4.870  16.029  0.00  0.00    +0.000 NA
ATOM     33  N   UNL     1       6.365   5.438  16.057  0.00  0.00    +0.000 N 
ATOM     34  C   UNL     1       7.404   4.924  15.194  0.00  0.00    +0.000 C 
ENDBRANCH  27  31
ENDBRANCH   1  27
TORSDOF 5
ENDMDL
MODEL 7
REMARK VINA RESULT:      -9.0      1.002      1.741
REMARK  Name = 
REMARK  8 active torsions:
REMARK  status: ('A' for Active; 'I' for Inactive)
REMARK    1  A    between atoms: C_1  and  C_2
REMARK    2  A    between atoms: C_4  and  C_5
REMARK    3  A    between atoms: C_5  and  N_6
REMARK    4  A    between atoms: N_9  and  C_10
REMARK    5  A    between atoms: C_15  and  C_16
REMARK    6  A    between atoms: N_18  and  C_19
REMARK    7  A    between atoms: C_19  and  C_20
REMARK    8  A    between atoms: N_32  and  C_33
REMARK                            x       y       z     vdW  Elec       q    Type
REMARK                         _______ _______ _______ _____ _____    ______ ____
ROOT
ATOM      1  N   UNL     1       2.815   4.979  18.575  0.00  0.00    +0.000 N 
ATOM      2  C   UNL     1       3.022   3.822  19.310  0.00  0.00    +0.000 C 
ATOM      3  O   UNL     1       3.515   2.813  18.797  0.00  0.00    +0.000 OA
ATOM      4  N   UNL     1       2.656   3.839  20.639  0.00  0.00    +0.000 N 
ATOM      5  C   UNL     1       2.824   2.638  21.438  0.00  0.00    +0.000 C 
ATOM      6  C   UNL     1       1.928   4.925  21.266  0.00  0.00    +0.000 C 
ATOM      7  C   UNL     1       1.871   6.180  20.467  0.00  0.00    +0.000 A 
ATOM      8  C   UNL     1       1.324   7.351  21.029  0.00  0.00    +0.000 A 
ATOM      9  C   UNL     1       1.216   8.522  20.274  0.00  0.00    +0.000 A 
ATOM     10  C   UNL     1       1.682   8.536  18.963  0.00  0.00    +0.000 A 
ATOM     11  C   UNL     1       2.300   7.388  18.452  0.00  0.00    +0.000 A 
ATOM     12  C   UNL     1       2.337   6.184  19.158  0.00  0.00    +0.000 A 
ENDROOT
BRANCH  10  13
ATOM     13  C   UNL     1       1.530   9.768  18.139  0.00  0.00    +0.000 C 
ATOM     14  O   UNL     1       2.490  10.510  17.975  0.00  0.00    +0.000 OA
ATOM     15  N   UNL     1       0.302  10.101  17.594  0.00  0.00    +0.000 N 
ATOM     16  H   UNL     1       0.350  10.875  16.943  0.00  0.00    +0.000 HD
BRANCH  15  17
ATOM     17  C   UNL     1      -0.935   9.353  17.687  0.00  0.00    +0.000 C 
BRANCH  17  18
ATOM     18  C   UNL     1      -2.184  10.147  17.494  0.00  0.00    +0.000 A 
ATOM     19  C   UNL     1      -2.635  11.043  18.455  0.00  0.00    +0.000 A 
ATOM     20  F   UNL     1      -1.987  11.157  19.621  0.00  0.00    +0.000 F 
ATOM     21  C   UNL     1      -3.737  11.859  18.217  0.00  0.00    +0.000 A 
ATOM     22  C   UNL     1      -4.388  11.774  16.992  0.00  0.00    +0.000 A 
ATOM     23  F   UNL     1      -5.439  12.565  16.748  0.00  0.00    +0.000 F 
ATOM     24  C   UNL     1      -3.956  10.893  16.009  0.00  0.00    +0.000 A 
ATOM     25  C   UNL     1      -2.857  10.090  16.268  0.00  0.00    +0.000 A 
ATOM     26  F   UNL     1      -2.420   9.275  15.298  0.00  0.00    +0.000 F 
ENDBRANCH  17  18
ENDBRANCH  15  17
ENDBRANCH  10  13
BRANCH   1  27
ATOM     27  C   UNL     1       3.060   4.889  17.131  0.00  0.00    +0.000 C 
BRANCH  27  31
ATOM     28  C   UNL     1       7.641   5.002  14.855  0.00  0.00    +0.000 C 
ATOM     29  C   UNL     1       6.465   5.158  15.742  0.00  0.00    +0.000 A 
ATOM     30  C   UNL     1       5.215   4.581  15.689  0.00  0.00    +0.000 A 
ATOM     31  C   UNL     1       4.496   5.127  16.777  0.00  0.00    +0.000 A 
ATOM     32  N   UNL     1       5.246   6.007  17.461  0.00  0.00    +0.000 NA
ATOM     33  N   UNL     1       6.437   5.988  16.832  0.00  0.00    +0.000 N 
ATOM     34  C   UNL     1       7.498   6.850  17.301  0.00  0.00    +0.000 C 
ENDBRANCH  27  31
ENDBRANCH   1  27
TORSDOF 5
ENDMDL
MODEL 8
REMARK VINA RESULT:      -9.0      3.883      8.468
REMARK  Name = 
REMARK  8 active torsions:
REMARK  status: ('A' for Active; 'I' for Inactive)
REMARK    1  A    between atoms: C_1  and  C_2
REMARK    2  A    between atoms: C_4  and  C_5
REMARK    3  A    between atoms: C_5  and  N_6
REMARK    4  A    between atoms: N_9  and  C_10
REMARK    5  A    between atoms: C_15  and  C_16
REMARK    6  A    between atoms: N_18  and  C_19
REMARK    7  A    between atoms: C_19  and  C_20
REMARK    8  A    between atoms: N_32  and  C_33
REMARK                            x       y       z     vdW  Elec       q    Type
REMARK                         _______ _______ _______ _____ _____    ______ ____
ROOT
ATOM      1  N   UNL     1      -0.705  11.696  19.880  0.00  0.00    +0.000 N 
ATOM      2  C   UNL     1      -1.537  12.188  20.874  0.00  0.00    +0.000 C 
ATOM      3  O   UNL     1      -2.249  13.179  20.684  0.00  0.00    +0.000 OA
ATOM      4  N   UNL     1      -1.541  11.529  22.084  0.00  0.00    +0.000 N 
ATOM      5  C   UNL     1      -2.372  12.031  23.163  0.00  0.00    +0.000 C 
ATOM      6  C   UNL     1      -0.620  10.465  22.431  0.00  0.00    +0.000 C 
ATOM      7  C   UNL     1       0.137   9.895  21.281  0.00  0.00    +0.000 A 
ATOM      8  C   UNL     1       0.949   8.759  21.463  0.00  0.00    +0.000 A 
ATOM      9  C   UNL     1       1.705   8.244  20.407  0.00  0.00    +0.000 A 
ATOM     10  C   UNL     1       1.628   8.848  19.155  0.00  0.00    +0.000 A 
ATOM     11  C   UNL     1       0.751   9.923  18.973  0.00  0.00    +0.000 A 
ATOM     12  C   UNL     1       0.056  10.506  20.035  0.00  0.00    +0.000 A 
ENDROOT
BRANCH  10  13
ATOM     13  C   UNL     1       2.466   8.331  18.035  0.00  0.00    +0.000 C 
ATOM     14  O   UNL     1       2.577   8.990  17.009  0.00  0.00    +0.000 OA
ATOM     15  N   UNL     1       3.081   7.096  18.130  0.00  0.00    +0.000 N 
ATOM     16  H   UNL     1       3.733   6.914  17.376  0.00  0.00    +0.000 HD
BRANCH  15  17
ATOM     17  C   UNL     1       3.057   6.184  19.255  0.00  0.00    +0.000 C 
BRANCH  17  18
ATOM     18  C   UNL     1       2.339   4.896  19.025  0.00  0.00    +0.000 A 
ATOM     19  C   UNL     1       2.696   4.036  17.993  0.00  0.00    +0.000 A 
ATOM     20  F   UNL     1       3.657   4.388  17.130  0.00  0.00    +0.000 F 
ATOM     21  C   UNL     1       2.094   2.789  17.857  0.00  0.00    +0.000 A 
ATOM     22  C   UNL     1       1.126   2.402  18.776  0.00  0.00    +0.000 A 
ATOM     23  F   UNL     1       0.553   1.198  18.661  0.00  0.00    +0.000 F 
ATOM     24  C   UNL     1       0.754   3.237  19.821  0.00  0.00    +0.000 A 
ATOM     25  C   UNL     1       1.365   4.474  19.937  0.00  0.00    +0.000 A 
ATOM     26  F   UNL     1       1.032   5.255  20.974  0.00  0.00    +0.000 F 
ENDBRANCH  17  18
ENDBRANCH  15  17
ENDBRANCH  10  13
BRANCH   1  27
ATOM     27  C   UNL     1      -0.595  12.503  18.659  0.00  0.00    +0.000 C 
BRANCH  27  31
ATOM     28  C   UNL     1       3.967  14.763  18.143  0.00  0.00    +0.000 C 
ATOM     29  C   UNL     1       2.562  14.395  18.439  0.00  0.00    +0.000 A 
ATOM     30  C   UNL     1       1.893  13.202  18.278  0.00  0.00    +0.000 A 
ATOM     31  C   UNL     1       0.566  13.449  18.700  0.00  0.00    +0.000 A 
ATOM     32  N   UNL     1       0.411  14.726  19.087  0.00  0.00    +0.000 NA
ATOM     33  N   UNL     1       1.636  15.268  18.945  0.00  0.00    +0.000 N 
ATOM     34  C   UNL     1       1.832  16.665  19.259  0.00  0.00    +0.000 C 
ENDBRANCH  27  31
ENDBRANCH   1  27
TORSDOF 5
ENDMDL
MODEL 9
REMARK VINA RESULT:      -9.0      0.985      1.224
REMARK  Name = 
REMARK  8 active torsions:
REMARK  status: ('A' for Active; 'I' for Inactive)
REMARK    1  A    between atoms: C_1  and  C_2
REMARK    2  A    between atoms: C_4  and  C_5
REMARK    3  A    between atoms: C_5  and  N_6
REMARK    4  A    between atoms: N_9  and  C_10
REMARK    5  A    between atoms: C_15  and  C_16
REMARK    6  A    between atoms: N_18  and  C_19
REMARK    7  A    between atoms: C_19  and  C_20
REMARK    8  A    between atoms: N_32  and  C_33
REMARK                            x       y       z     vdW  Elec       q    Type
REMARK                         _______ _______ _______ _____ _____    ______ ____
ROOT
ATOM      1  N   UNL     1       2.848   4.806  18.667  0.00  0.00    +0.000 N 
ATOM      2  C   UNL     1       3.036   3.669  19.439  0.00  0.00    +0.000 C 
ATOM      3  O   UNL     1       3.533   2.644  18.964  0.00  0.00    +0.000 OA
ATOM      4  N   UNL     1       2.646   3.727  20.760  0.00  0.00    +0.000 N 
ATOM      5  C   UNL     1       2.793   2.550  21.596  0.00  0.00    +0.000 C 
ATOM      6  C   UNL     1       1.912   4.834  21.341  0.00  0.00    +0.000 C 
ATOM      7  C   UNL     1       1.876   6.066  20.505  0.00  0.00    +0.000 A 
ATOM      8  C   UNL     1       1.325   7.255  21.022  0.00  0.00    +0.000 A 
ATOM      9  C   UNL     1       1.237   8.405  20.231  0.00  0.00    +0.000 A 
ATOM     10  C   UNL     1       1.727   8.377  18.929  0.00  0.00    +0.000 A 
ATOM     11  C   UNL     1       2.348   7.212  18.463  0.00  0.00    +0.000 A 
ATOM     12  C   UNL     1       2.366   6.029  19.205  0.00  0.00    +0.000 A 
ENDROOT
BRANCH  10  13
ATOM     13  C   UNL     1       1.596   9.586  18.066  0.00  0.00    +0.000 C 
ATOM     14  O   UNL     1       2.591  10.058  17.532  0.00  0.00    +0.000 OA
ATOM     15  N   UNL     1       0.368  10.200  17.901  0.00  0.00    +0.000 N 
ATOM     16  H   UNL     1       0.373  10.919  17.188  0.00  0.00    +0.000 HD
BRANCH  15  17
ATOM     17  C   UNL     1      -0.905   9.788  18.456  0.00  0.00    +0.000 C 
BRANCH  17  18
ATOM     18  C   UNL     1      -2.103  10.499  17.918  0.00  0.00    +0.000 A 
ATOM     19  C   UNL     1      -2.653  10.172  16.684  0.00  0.00    +0.000 A 
ATOM     20  F   UNL     1      -2.065   9.249  15.913  0.00  0.00    +0.000 F 
ATOM     21  C   UNL     1      -3.833  10.764  16.244  0.00  0.00    +0.000 A 
ATOM     22  C   UNL     1      -4.468  11.692  17.060  0.00  0.00    +0.000 A 
ATOM     23  F   UNL     1      -5.611  12.254  16.652  0.00  0.00    +0.000 F 
ATOM     24  C   UNL     1      -3.946  12.033  18.301  0.00  0.00    +0.000 A 
ATOM     25  C   UNL     1      -2.770  11.433  18.719  0.00  0.00    +0.000 A 
ATOM     26  F   UNL     1      -2.297  11.735  19.936  0.00  0.00    +0.000 F 
ENDBRANCH  17  18
ENDBRANCH  15  17
ENDBRANCH  10  13
BRANCH   1  27
ATOM     27  C   UNL     1       3.119   4.672  17.230  0.00  0.00    +0.000 C 
BRANCH  27  31
ATOM     28  C   UNL     1       7.725   6.898  17.142  0.00  0.00    +0.000 C 
ATOM     29  C   UNL     1       6.483   6.137  16.870  0.00  0.00    +0.000 A 
ATOM     30  C   UNL     1       5.298   6.070  17.570  0.00  0.00    +0.000 A 
ATOM     31  C   UNL     1       4.485   5.160  16.856  0.00  0.00    +0.000 A 
ATOM     32  N   UNL     1       5.129   4.673  15.782  0.00  0.00    +0.000 NA
ATOM     33  N   UNL     1       6.322   5.298  15.799  0.00  0.00    +0.000 N 
ATOM     34  C   UNL     1       7.296   4.989  14.777  0.00  0.00    +0.000 C 
ENDBRANCH  27  31
ENDBRANCH   1  27
TORSDOF 5
ENDMDL
