MODEL 1
REMARK VINA RESULT:      -6.9      0.000      0.000
REMARK  Name = 
REMARK  6 active torsions:
REMARK  status: ('A' for Active; 'I' for Inactive)
REMARK    1  A    between atoms: C_1  and  O_2
REMARK    2  A    between atoms: O_2  and  C_3
REMARK    3  A    between atoms: C_4  and  C_5
REMARK    4  A    between atoms: C_14  and  C_15
REMARK    5  A    between atoms: C_15  and  C_16
REMARK    6  A    between atoms: C_16  and  O_18
REMARK                            x       y       z     vdW  Elec       q    Type
REMARK                         _______ _______ _______ _____ _____    ______ ____
ROOT
ATOM      1  C   UNL     1       4.997   3.744  17.488  0.00  0.00    +0.000 A 
ATOM      2  C   UNL     1       5.020   4.875  18.217  0.00  0.00    +0.000 A 
ATOM      3  O   UNL     1       4.065   5.272  19.132  0.00  0.00    +0.000 OA
ATOM      4  C   UNL     1       2.957   4.490  19.323  0.00  0.00    +0.000 A 
ATOM      5  C   UNL     1       2.007   4.923  20.269  0.00  0.00    +0.000 A 
ATOM      6  C   UNL     1       0.822   4.181  20.400  0.00  0.00    +0.000 A 
ATOM      7  C   UNL     1       0.615   3.015  19.659  0.00  0.00    +0.000 A 
ATOM      8  C   UNL     1       1.586   2.576  18.763  0.00  0.00    +0.000 A 
ATOM      9  C   UNL     1       2.757   3.318  18.597  0.00  0.00    +0.000 A 
ATOM     10  C   UNL     1       3.795   2.863  17.656  0.00  0.00    +0.000 A 
ATOM     11  O   UNL     1       3.642   1.803  17.057  0.00  0.00    +0.000 OA
ENDROOT
BRANCH   2  12
ATOM     12  C   UNL     1       6.098   5.875  18.099  0.00  0.00    +0.000 A 
ATOM     13  C   UNL     1       7.194   5.806  18.970  0.00  0.00    +0.000 A 
ATOM     14  C   UNL     1       8.195   6.783  18.934  0.00  0.00    +0.000 A 
ATOM     15  C   UNL     1       8.116   7.829  18.019  0.00  0.00    +0.000 A 
ATOM     16  C   UNL     1       7.035   7.911  17.145  0.00  0.00    +0.000 A 
ATOM     17  C   UNL     1       6.024   6.944  17.187  0.00  0.00    +0.000 A 
ATOM     18 CL   UNL     1       4.678   7.141  16.117  0.00  0.00    +0.000 Cl
ENDBRANCH   2  12
BRANCH   1  20
ATOM     19  C   UNL     1       5.903   3.749  15.271  0.00  0.00    +0.000 C 
ATOM     20  O   UNL     1       6.056   3.425  16.648  0.00  0.00    +0.000 OA
ENDBRANCH   1  20
BRANCH   5  21
ATOM     21  C   UNL     1       2.235   6.215  21.034  0.00  0.00    +0.000 C 
BRANCH  21  22
ATOM     22  C   UNL     1       1.736   7.508  20.416  0.00  0.00    +0.000 C 
ATOM     23  O   UNL     1       0.984   8.323  20.924  0.00  0.00    +0.000 OA
BRANCH  22  24
ATOM     24  O   UNL     1       2.243   7.702  19.170  0.00  0.00    +0.000 OA
ATOM     25  H   UNL     1       3.215   7.644  19.116  0.00  0.00    +0.000 HD
ENDBRANCH  22  24
ENDBRANCH  21  22
ENDBRANCH   5  21
TORSDOF 5
ENDMDL
MODEL 2
REMARK VINA RESULT:      -6.6      2.203      3.604
REMARK  Name = 
REMARK  6 active torsions:
REMARK  status: ('A' for Active; 'I' for Inactive)
REMARK    1  A    between atoms: C_1  and  O_2
REMARK    2  A    between atoms: O_2  and  C_3
REMARK    3  A    between atoms: C_4  and  C_5
REMARK    4  A    between atoms: C_14  and  C_15
REMARK    5  A    between atoms: C_15  and  C_16
REMARK    6  A    between atoms: C_16  and  O_18
REMARK                            x       y       z     vdW  Elec       q    Type
REMARK                         _______ _______ _______ _____ _____    ______ ____
ROOT
ATOM      1  C   UNL     1       3.943   4.072  19.007  0.00  0.00    +0.000 A 
ATOM      2  C   UNL     1       4.183   5.048  18.110  0.00  0.00    +0.000 A 
ATOM      3  O   UNL     1       3.647   6.320  18.131  0.00  0.00    +0.000 OA
ATOM      4  C   UNL     1       2.758   6.655  19.117  0.00  0.00    +0.000 A 
ATOM      5  C   UNL     1       2.238   7.964  19.110  0.00  0.00    +0.000 A 
ATOM      6  C   UNL     1       1.251   8.286  20.057  0.00  0.00    +0.000 A 
ATOM      7  C   UNL     1       0.840   7.356  21.016  0.00  0.00    +0.000 A 
ATOM      8  C   UNL     1       1.399   6.082  21.036  0.00  0.00    +0.000 A 
ATOM      9  C   UNL     1       2.359   5.735  20.083  0.00  0.00    +0.000 A 
ATOM     10  C   UNL     1       2.963   4.391  20.097  0.00  0.00    +0.000 A 
ATOM     11  O   UNL     1       2.652   3.599  20.981  0.00  0.00    +0.000 OA
ENDROOT
BRANCH   2  12
ATOM     12  C   UNL     1       5.060   4.854  16.941  0.00  0.00    +0.000 A 
ATOM     13  C   UNL     1       4.515   4.340  15.755  0.00  0.00    +0.000 A 
ATOM     14  C   UNL     1       5.333   4.072  14.653  0.00  0.00    +0.000 A 
ATOM     15  C   UNL     1       6.700   4.328  14.720  0.00  0.00    +0.000 A 
ATOM     16  C   UNL     1       7.257   4.841  15.889  0.00  0.00    +0.000 A 
ATOM     17  C   UNL     1       6.444   5.096  17.000  0.00  0.00    +0.000 A 
ATOM     18 CL   UNL     1       7.210   5.673  18.440  0.00  0.00    +0.000 Cl
ENDBRANCH   2  12
BRANCH   1  20
ATOM     19  C   UNL     1       3.821   1.737  18.489  0.00  0.00    +0.000 C 
ATOM     20  O   UNL     1       4.598   2.852  18.912  0.00  0.00    +0.000 OA
ENDBRANCH   1  20
BRANCH   5  21
ATOM     21  C   UNL     1       2.669   8.945  18.035  0.00  0.00    +0.000 C 
BRANCH  21  22
ATOM     22  C   UNL     1       1.929  10.266  17.935  0.00  0.00    +0.000 C 
ATOM     23  O   UNL     1       2.387  11.381  18.123  0.00  0.00    +0.000 OA
BRANCH  22  24
ATOM     24  O   UNL     1       0.629  10.092  17.581  0.00  0.00    +0.000 OA
ATOM     25  H   UNL     1      -0.014  10.355  18.267  0.00  0.00    +0.000 HD
ENDBRANCH  22  24
ENDBRANCH  21  22
ENDBRANCH   5  21
TORSDOF 5
ENDMDL
MODEL 3
REMARK VINA RESULT:      -6.4      2.127      5.376
REMARK  Name = 
REMARK  6 active torsions:
REMARK  status: ('A' for Active; 'I' for Inactive)
REMARK    1  A    between atoms: C_1  and  O_2
REMARK    2  A    between atoms: O_2  and  C_3
REMARK    3  A    between atoms: C_4  and  C_5
REMARK    4  A    between atoms: C_14  and  C_15
REMARK    5  A    between atoms: C_15  and  C_16
REMARK    6  A    between atoms: C_16  and  O_18
REMARK                            x       y       z     vdW  Elec       q    Type
REMARK                         _______ _______ _______ _____ _____    ______ ____
ROOT
ATOM      1  C   UNL     1       2.387   4.834  18.202  0.00  0.00    +0.000 A 
ATOM      2  C   UNL     1       2.923   6.038  18.480  0.00  0.00    +0.000 A 
ATOM      3  O   UNL     1       4.133   6.514  18.019  0.00  0.00    +0.000 OA
ATOM      4  C   UNL     1       4.912   5.709  17.230  0.00  0.00    +0.000 A 
ATOM      5  C   UNL     1       6.137   6.233  16.772  0.00  0.00    +0.000 A 
ATOM      6  C   UNL     1       6.987   5.382  16.046  0.00  0.00    +0.000 A 
ATOM      7  C   UNL     1       6.604   4.074  15.735  0.00  0.00    +0.000 A 
ATOM      8  C   UNL     1       5.369   3.590  16.155  0.00  0.00    +0.000 A 
ATOM      9  C   UNL     1       4.524   4.412  16.904  0.00  0.00    +0.000 A 
ATOM     10  C   UNL     1       3.212   3.914  17.352  0.00  0.00    +0.000 A 
ATOM     11  O   UNL     1       2.849   2.791  17.019  0.00  0.00    +0.000 OA
ENDROOT
BRANCH   2  12
ATOM     12  C   UNL     1       2.264   7.015  19.367  0.00  0.00    +0.000 A 
ATOM     13  C   UNL     1       1.900   6.624  20.664  0.00  0.00    +0.000 A 
ATOM     14  C   UNL     1       1.206   7.502  21.503  0.00  0.00    +0.000 A 
ATOM     15  C   UNL     1       0.882   8.781  21.060  0.00  0.00    +0.000 A 
ATOM     16  C   UNL     1       1.239   9.186  19.776  0.00  0.00    +0.000 A 
ATOM     17  C   UNL     1       1.920   8.306  18.927  0.00  0.00    +0.000 A 
ATOM     18 CL   UNL     1       2.277   8.850  17.324  0.00  0.00    +0.000 Cl
ENDBRANCH   2  12
BRANCH   1  20
ATOM     19  C   UNL     1       1.054   3.423  19.605  0.00  0.00    +0.000 C 
ATOM     20  O   UNL     1       1.126   4.498  18.675  0.00  0.00    +0.000 OA
ENDBRANCH   1  20
BRANCH   5  21
ATOM     21  C   UNL     1       6.551   7.642  17.157  0.00  0.00    +0.000 C 
BRANCH  21  22
ATOM     22  C   UNL     1       7.792   7.814  18.012  0.00  0.00    +0.000 C 
ATOM     23  O   UNL     1       8.299   6.982  18.746  0.00  0.00    +0.000 OA
BRANCH  22  24
ATOM     24  O   UNL     1       8.335   9.052  17.873  0.00  0.00    +0.000 OA
ATOM     25  H   UNL     1       8.118   9.671  18.596  0.00  0.00    +0.000 HD
ENDBRANCH  22  24
ENDBRANCH  21  22
ENDBRANCH   5  21
TORSDOF 5
ENDMDL
MODEL 4
REMARK VINA RESULT:      -6.4      2.375      5.492
REMARK  Name = 
REMARK  6 active torsions:
REMARK  status: ('A' for Active; 'I' for Inactive)
REMARK    1  A    between atoms: C_1  and  O_2
REMARK    2  A    between atoms: O_2  and  C_3
REMARK    3  A    between atoms: C_4  and  C_5
REMARK    4  A    between atoms: C_14  and  C_15
REMARK    5  A    between atoms: C_15  and  C_16
REMARK    6  A    between atoms: C_16  and  O_18
REMARK                            x       y       z     vdW  Elec       q    Type
REMARK                         _______ _______ _______ _____ _____    ______ ____
ROOT
ATOM      1  C   UNL     1       2.385   4.800  17.783  0.00  0.00    +0.000 A 
ATOM      2  C   UNL     1       2.939   5.987  18.098  0.00  0.00    +0.000 A 
ATOM      3  O   UNL     1       4.191   6.426  17.718  0.00  0.00    +0.000 OA
ATOM      4  C   UNL     1       4.994   5.597  16.981  0.00  0.00    +0.000 A 
ATOM      5  C   UNL     1       6.263   6.082  16.605  0.00  0.00    +0.000 A 
ATOM      6  C   UNL     1       7.132   5.205  15.935  0.00  0.00    +0.000 A 
ATOM      7  C   UNL     1       6.730   3.910  15.597  0.00  0.00    +0.000 A 
ATOM      8  C   UNL     1       5.456   3.464  15.935  0.00  0.00    +0.000 A 
ATOM      9  C   UNL     1       4.590   4.312  16.628  0.00  0.00    +0.000 A 
ATOM     10  C   UNL     1       3.236   3.855  16.987  0.00  0.00    +0.000 A 
ATOM     11  O   UNL     1       2.861   2.743  16.629  0.00  0.00    +0.000 OA
ENDROOT
BRANCH   2  12
ATOM     12  C   UNL     1       2.253   6.984  18.942  0.00  0.00    +0.000 A 
ATOM     13  C   UNL     1       1.916   8.229  18.392  0.00  0.00    +0.000 A 
ATOM     14  C   UNL     1       1.335   9.223  19.186  0.00  0.00    +0.000 A 
ATOM     15  C   UNL     1       1.073   8.978  20.531  0.00  0.00    +0.000 A 
ATOM     16  C   UNL     1       1.400   7.746  21.092  0.00  0.00    +0.000 A 
ATOM     17  C   UNL     1       1.996   6.753  20.305  0.00  0.00    +0.000 A 
ATOM     18 CL   UNL     1       2.433   5.269  21.079  0.00  0.00    +0.000 Cl
ENDBRANCH   2  12
BRANCH   1  20
ATOM     19  C   UNL     1       0.890   3.285  18.881  0.00  0.00    +0.000 C 
ATOM     20  O   UNL     1       1.086   4.503  18.172  0.00  0.00    +0.000 OA
ENDBRANCH   1  20
BRANCH   5  21
ATOM     21  C   UNL     1       6.693   7.478  17.018  0.00  0.00    +0.000 C 
BRANCH  21  22
ATOM     22  C   UNL     1       7.789   7.609  18.060  0.00  0.00    +0.000 C 
ATOM     23  O   UNL     1       8.187   6.742  18.820  0.00  0.00    +0.000 OA
BRANCH  22  24
ATOM     24  O   UNL     1       8.336   8.853  18.066  0.00  0.00    +0.000 OA
ATOM     25  H   UNL     1       7.856   9.507  17.523  0.00  0.00    +0.000 HD
ENDBRANCH  22  24
ENDBRANCH  21  22
ENDBRANCH   5  21
TORSDOF 5
ENDMDL
MODEL 5
REMARK VINA RESULT:      -6.3      5.716      8.999
REMARK  Name = 
REMARK  6 active torsions:
REMARK  status: ('A' for Active; 'I' for Inactive)
REMARK    1  A    between atoms: C_1  and  O_2
REMARK    2  A    between atoms: O_2  and  C_3
REMARK    3  A    between atoms: C_4  and  C_5
REMARK    4  A    between atoms: C_14  and  C_15
REMARK    5  A    between atoms: C_15  and  C_16
REMARK    6  A    between atoms: C_16  and  O_18
REMARK                            x       y       z     vdW  Elec       q    Type
REMARK                         _______ _______ _______ _____ _____    ______ ____
ROOT
ATOM      1  C   UNL     1      -0.167  11.768  20.542  0.00  0.00    +0.000 A 
ATOM      2  C   UNL     1      -0.345  10.810  19.612  0.00  0.00    +0.000 A 
ATOM      3  O   UNL     1      -1.485  10.611  18.858  0.00  0.00    +0.000 OA
ATOM      4  C   UNL     1      -2.572  11.418  19.065  0.00  0.00    +0.000 A 
ATOM      5  C   UNL     1      -3.714  11.190  18.271  0.00  0.00    +0.000 A 
ATOM      6  C   UNL     1      -4.866  11.945  18.544  0.00  0.00    +0.000 A 
ATOM      7  C   UNL     1      -4.865  12.935  19.530  0.00  0.00    +0.000 A 
ATOM      8  C   UNL     1      -3.712  13.178  20.273  0.00  0.00    +0.000 A 
ATOM      9  C   UNL     1      -2.566  12.416  20.036  0.00  0.00    +0.000 A 
ATOM     10  C   UNL     1      -1.338  12.666  20.811  0.00  0.00    +0.000 A 
ATOM     11  O   UNL     1      -1.317  13.581  21.628  0.00  0.00    +0.000 OA
ENDROOT
BRANCH   2  12
ATOM     12  C   UNL     1       0.688   9.805  19.299  0.00  0.00    +0.000 A 
ATOM     13  C   UNL     1       1.328   9.848  18.053  0.00  0.00    +0.000 A 
ATOM     14  C   UNL     1       2.257   8.865  17.695  0.00  0.00    +0.000 A 
ATOM     15  C   UNL     1       2.564   7.839  18.584  0.00  0.00    +0.000 A 
ATOM     16  C   UNL     1       1.938   7.783  19.827  0.00  0.00    +0.000 A 
ATOM     17  C   UNL     1       0.997   8.756  20.183  0.00  0.00    +0.000 A 
ATOM     18 CL   UNL     1       0.211   8.591  21.716  0.00  0.00    +0.000 Cl
ENDBRANCH   2  12
BRANCH   1  20
ATOM     19  C   UNL     1       1.943  12.893  20.679  0.00  0.00    +0.000 C 
ATOM     20  O   UNL     1       1.054  11.904  21.187  0.00  0.00    +0.000 OA
ENDBRANCH   1  20
BRANCH   5  21
ATOM     21  C   UNL     1      -3.706  10.083  17.233  0.00  0.00    +0.000 C 
BRANCH  21  22
ATOM     22  C   UNL     1      -3.144  10.396  15.859  0.00  0.00    +0.000 C 
ATOM     23  O   UNL     1      -2.663   9.605  15.065  0.00  0.00    +0.000 OA
BRANCH  22  24
ATOM     24  O   UNL     1      -3.238  11.719  15.563  0.00  0.00    +0.000 OA
ATOM     25  H   UNL     1      -4.015  11.956  15.021  0.00  0.00    +0.000 HD
ENDBRANCH  22  24
ENDBRANCH  21  22
ENDBRANCH   5  21
TORSDOF 5
ENDMDL
MODEL 6
REMARK VINA RESULT:      -6.3      2.354      4.555
REMARK  Name = 
REMARK  6 active torsions:
REMARK  status: ('A' for Active; 'I' for Inactive)
REMARK    1  A    between atoms: C_1  and  O_2
REMARK    2  A    between atoms: O_2  and  C_3
REMARK    3  A    between atoms: C_4  and  C_5
REMARK    4  A    between atoms: C_14  and  C_15
REMARK    5  A    between atoms: C_15  and  C_16
REMARK    6  A    between atoms: C_16  and  O_18
REMARK                            x       y       z     vdW  Elec       q    Type
REMARK                         _______ _______ _______ _____ _____    ______ ____
ROOT
ATOM      1  C   UNL     1       3.594   6.242  18.095  0.00  0.00    +0.000 A 
ATOM      2  C   UNL     1       4.269   5.124  17.769  0.00  0.00    +0.000 A 
ATOM      3  O   UNL     1       4.186   3.907  18.416  0.00  0.00    +0.000 OA
ATOM      4  C   UNL     1       3.382   3.790  19.518  0.00  0.00    +0.000 A 
ATOM      5  C   UNL     1       3.317   2.530  20.147  0.00  0.00    +0.000 A 
ATOM      6  C   UNL     1       2.574   2.425  21.335  0.00  0.00    +0.000 A 
ATOM      7  C   UNL     1       1.871   3.520  21.846  0.00  0.00    +0.000 A 
ATOM      8  C   UNL     1       1.908   4.744  21.184  0.00  0.00    +0.000 A 
ATOM      9  C   UNL     1       2.667   4.874  20.019  0.00  0.00    +0.000 A 
ATOM     10  C   UNL     1       2.711   6.163  19.305  0.00  0.00    +0.000 A 
ATOM     11  O   UNL     1       2.039   7.103  19.717  0.00  0.00    +0.000 OA
ENDROOT
BRANCH   2  12
ATOM     12  C   UNL     1       5.233   5.075  16.654  0.00  0.00    +0.000 A 
ATOM     13  C   UNL     1       4.824   4.555  15.418  0.00  0.00    +0.000 A 
ATOM     14  C   UNL     1       5.734   4.424  14.364  0.00  0.00    +0.000 A 
ATOM     15  C   UNL     1       7.057   4.823  14.531  0.00  0.00    +0.000 A 
ATOM     16  C   UNL     1       7.480   5.343  15.753  0.00  0.00    +0.000 A 
ATOM     17  C   UNL     1       6.576   5.462  16.814  0.00  0.00    +0.000 A 
ATOM     18 CL   UNL     1       7.181   6.057  18.322  0.00  0.00    +0.000 Cl
ENDBRANCH   2  12
BRANCH   1  20
ATOM     19  C   UNL     1       2.708   8.382  17.483  0.00  0.00    +0.000 C 
ATOM     20  O   UNL     1       3.715   7.389  17.322  0.00  0.00    +0.000 OA
ENDBRANCH   1  20
BRANCH   5  21
ATOM     21  C   UNL     1       4.121   1.366  19.598  0.00  0.00    +0.000 C 
BRANCH  21  22
ATOM     22  C   UNL     1       5.220   0.784  20.467  0.00  0.00    +0.000 C 
ATOM     23  O   UNL     1       5.663   1.252  21.503  0.00  0.00    +0.000 OA
BRANCH  22  24
ATOM     24  O   UNL     1       5.693  -0.389  19.968  0.00  0.00    +0.000 OA
ATOM     25  H   UNL     1       5.004  -1.055  19.785  0.00  0.00    +0.000 HD
ENDBRANCH  22  24
ENDBRANCH  21  22
ENDBRANCH   5  21
TORSDOF 5
ENDMDL
MODEL 7
REMARK VINA RESULT:      -6.2      2.729      7.028
REMARK  Name = 
REMARK  6 active torsions:
REMARK  status: ('A' for Active; 'I' for Inactive)
REMARK    1  A    between atoms: C_1  and  O_2
REMARK    2  A    between atoms: O_2  and  C_3
REMARK    3  A    between atoms: C_4  and  C_5
REMARK    4  A    between atoms: C_14  and  C_15
REMARK    5  A    between atoms: C_15  and  C_16
REMARK    6  A    between atoms: C_16  and  O_18
REMARK                            x       y       z     vdW  Elec       q    Type
REMARK                         _______ _______ _______ _____ _____    ______ ____
ROOT
ATOM      1  C   UNL     1       5.904   4.303  17.558  0.00  0.00    +0.000 A 
ATOM      2  C   UNL     1       4.835   3.877  16.859  0.00  0.00    +0.000 A 
ATOM      3  O   UNL     1       4.751   3.775  15.485  0.00  0.00    +0.000 OA
ATOM      4  C   UNL     1       5.817   4.165  14.720  0.00  0.00    +0.000 A 
ATOM      5  C   UNL     1       5.697   4.039  13.321  0.00  0.00    +0.000 A 
ATOM      6  C   UNL     1       6.745   4.528  12.524  0.00  0.00    +0.000 A 
ATOM      7  C   UNL     1       7.899   5.068  13.099  0.00  0.00    +0.000 A 
ATOM      8  C   UNL     1       8.019   5.140  14.484  0.00  0.00    +0.000 A 
ATOM      9  C   UNL     1       6.974   4.687  15.292  0.00  0.00    +0.000 A 
ATOM     10  C   UNL     1       7.091   4.753  16.759  0.00  0.00    +0.000 A 
ATOM     11  O   UNL     1       8.131   5.163  17.263  0.00  0.00    +0.000 OA
ENDROOT
BRANCH   2  12
ATOM     12  C   UNL     1       3.570   3.479  17.506  0.00  0.00    +0.000 A 
ATOM     13  C   UNL     1       3.295   2.117  17.690  0.00  0.00    +0.000 A 
ATOM     14  C   UNL     1       2.072   1.704  18.230  0.00  0.00    +0.000 A 
ATOM     15  C   UNL     1       1.120   2.649  18.603  0.00  0.00    +0.000 A 
ATOM     16  C   UNL     1       1.378   4.006  18.428  0.00  0.00    +0.000 A 
ATOM     17  C   UNL     1       2.595   4.423  17.875  0.00  0.00    +0.000 A 
ATOM     18 CL   UNL     1       2.825   6.120  17.627  0.00  0.00    +0.000 Cl
ENDBRANCH   2  12
BRANCH   1  20
ATOM     19  C   UNL     1       5.709   5.551  19.593  0.00  0.00    +0.000 C 
ATOM     20  O   UNL     1       5.886   4.296  18.946  0.00  0.00    +0.000 OA
ENDBRANCH   1  20
BRANCH   5  21
ATOM     21  C   UNL     1       4.419   3.487  12.717  0.00  0.00    +0.000 C 
BRANCH  21  22
ATOM     22  C   UNL     1       4.511   2.769  11.383  0.00  0.00    +0.000 C 
ATOM     23  O   UNL     1       5.249   1.841  11.099  0.00  0.00    +0.000 OA
BRANCH  22  24
ATOM     24  O   UNL     1       3.634   3.273  10.475  0.00  0.00    +0.000 OA
ATOM     25  H   UNL     1       2.871   3.739  10.867  0.00  0.00    +0.000 HD
ENDBRANCH  22  24
ENDBRANCH  21  22
ENDBRANCH   5  21
TORSDOF 5
ENDMDL
MODEL 8
REMARK VINA RESULT:      -6.1      2.598      5.581
REMARK  Name = 
REMARK  6 active torsions:
REMARK  status: ('A' for Active; 'I' for Inactive)
REMARK    1  A    between atoms: C_1  and  O_2
REMARK    2  A    between atoms: O_2  and  C_3
REMARK    3  A    between atoms: C_4  and  C_5
REMARK    4  A    between atoms: C_14  and  C_15
REMARK    5  A    between atoms: C_15  and  C_16
REMARK    6  A    between atoms: C_16  and  O_18
REMARK                            x       y       z     vdW  Elec       q    Type
REMARK                         _______ _______ _______ _____ _____    ______ ____
ROOT
ATOM      1  C   UNL     1       2.843   6.421  18.254  0.00  0.00    +0.000 A 
ATOM      2  C   UNL     1       2.070   6.198  19.334  0.00  0.00    +0.000 A 
ATOM      3  O   UNL     1       1.315   7.141  20.002  0.00  0.00    +0.000 OA
ATOM      4  C   UNL     1       1.353   8.444  19.585  0.00  0.00    +0.000 A 
ATOM      5  C   UNL     1       0.564   9.377  20.287  0.00  0.00    +0.000 A 
ATOM      6  C   UNL     1       0.671  10.732  19.931  0.00  0.00    +0.000 A 
ATOM      7  C   UNL     1       1.490  11.137  18.873  0.00  0.00    +0.000 A 
ATOM      8  C   UNL     1       2.226  10.195  18.160  0.00  0.00    +0.000 A 
ATOM      9  C   UNL     1       2.154   8.847  18.520  0.00  0.00    +0.000 A 
ATOM     10  C   UNL     1       2.924   7.839  17.771  0.00  0.00    +0.000 A 
ATOM     11  O   UNL     1       3.588   8.187  16.800  0.00  0.00    +0.000 OA
ENDROOT
BRANCH   2  12
ATOM     12  C   UNL     1       1.957   4.871  19.968  0.00  0.00    +0.000 A 
ATOM     13  C   UNL     1       2.410   4.702  21.284  0.00  0.00    +0.000 A 
ATOM     14  C   UNL     1       2.387   3.440  21.888  0.00  0.00    +0.000 A 
ATOM     15  C   UNL     1       1.899   2.340  21.188  0.00  0.00    +0.000 A 
ATOM     16  C   UNL     1       1.443   2.492  19.881  0.00  0.00    +0.000 A 
ATOM     17  C   UNL     1       1.478   3.749  19.267  0.00  0.00    +0.000 A 
ATOM     18 CL   UNL     1       0.955   3.856  17.622  0.00  0.00    +0.000 Cl
ENDBRANCH   2  12
BRANCH   1  20
ATOM     19  C   UNL     1       4.885   5.211  17.932  0.00  0.00    +0.000 C 
ATOM     20  O   UNL     1       3.503   5.372  17.631  0.00  0.00    +0.000 OA
ENDBRANCH   1  20
BRANCH   5  21
ATOM     21  C   UNL     1      -0.287   8.921  21.459  0.00  0.00    +0.000 C 
BRANCH  21  22
ATOM     22  C   UNL     1      -0.024   9.543  22.818  0.00  0.00    +0.000 C 
ATOM     23  O   UNL     1       1.050   9.630  23.390  0.00  0.00    +0.000 OA
BRANCH  22  24
ATOM     24  O   UNL     1      -1.159  10.040  23.375  0.00  0.00    +0.000 OA
ATOM     25  H   UNL     1      -1.019  10.812  23.955  0.00  0.00    +0.000 HD
ENDBRANCH  22  24
ENDBRANCH  21  22
ENDBRANCH   5  21
TORSDOF 5
ENDMDL
MODEL 9
REMARK VINA RESULT:      -6.0      1.117      1.487
REMARK  Name = 
REMARK  6 active torsions:
REMARK  status: ('A' for Active; 'I' for Inactive)
REMARK    1  A    between atoms: C_1  and  O_2
REMARK    2  A    between atoms: O_2  and  C_3
REMARK    3  A    between atoms: C_4  and  C_5
REMARK    4  A    between atoms: C_14  and  C_15
REMARK    5  A    between atoms: C_15  and  C_16
REMARK    6  A    between atoms: C_16  and  O_18
REMARK                            x       y       z     vdW  Elec       q    Type
REMARK                         _______ _______ _______ _____ _____    ______ ____
ROOT
ATOM      1  C   UNL     1       5.066   4.004  17.512  0.00  0.00    +0.000 A 
ATOM      2  C   UNL     1       5.023   5.146  18.224  0.00  0.00    +0.000 A 
ATOM      3  O   UNL     1       4.049   5.497  19.138  0.00  0.00    +0.000 OA
ATOM      4  C   UNL     1       2.992   4.652  19.346  0.00  0.00    +0.000 A 
ATOM      5  C   UNL     1       2.022   5.041  20.291  0.00  0.00    +0.000 A 
ATOM      6  C   UNL     1       0.885   4.230  20.440  0.00  0.00    +0.000 A 
ATOM      7  C   UNL     1       0.747   3.041  19.718  0.00  0.00    +0.000 A 
ATOM      8  C   UNL     1       1.738   2.650  18.822  0.00  0.00    +0.000 A 
ATOM      9  C   UNL     1       2.861   3.460  18.640  0.00  0.00    +0.000 A 
ATOM     10  C   UNL     1       3.921   3.054  17.699  0.00  0.00    +0.000 A 
ATOM     11  O   UNL     1       3.830   1.978  17.118  0.00  0.00    +0.000 OA
ENDROOT
BRANCH   2  12
ATOM     12  C   UNL     1       6.036   6.208  18.084  0.00  0.00    +0.000 A 
ATOM     13  C   UNL     1       5.832   7.229  17.145  0.00  0.00    +0.000 A 
ATOM     14  C   UNL     1       6.809   8.208  16.934  0.00  0.00    +0.000 A 
ATOM     15  C   UNL     1       7.991   8.184  17.669  0.00  0.00    +0.000 A 
ATOM     16  C   UNL     1       8.209   7.178  18.607  0.00  0.00    +0.000 A 
ATOM     17  C   UNL     1       7.241   6.187  18.811  0.00  0.00    +0.000 A 
ATOM     18 CL   UNL     1       7.602   4.932  19.945  0.00  0.00    +0.000 Cl
ENDBRANCH   2  12
BRANCH   1  20
ATOM     19  C   UNL     1       5.935   3.961  15.280  0.00  0.00    +0.000 C 
ATOM     20  O   UNL     1       6.138   3.739  16.671  0.00  0.00    +0.000 OA
ENDBRANCH   1  20
BRANCH   5  21
ATOM     21  C   UNL     1       2.173   6.355  21.035  0.00  0.00    +0.000 C 
BRANCH  21  22
ATOM     22  C   UNL     1       1.639   7.614  20.378  0.00  0.00    +0.000 C 
ATOM     23  O   UNL     1       0.786   8.367  20.818  0.00  0.00    +0.000 OA
BRANCH  22  24
ATOM     24  O   UNL     1       2.238   7.855  19.182  0.00  0.00    +0.000 OA
ATOM     25  H   UNL     1       2.848   7.152  18.888  0.00  0.00    +0.000 HD
ENDBRANCH  22  24
ENDBRANCH  21  22
ENDBRANCH   5  21
TORSDOF 5
ENDMDL
