MODEL 1
REMARK VINA RESULT:      -5.5      0.000      0.000
REMARK  Name = 
REMARK  1 active torsions:
REMARK  status: ('A' for Active; 'I' for Inactive)
REMARK    1  A    between atoms: N_2  and  C_4
REMARK                            x       y       z     vdW  Elec       q    Type
REMARK                         _______ _______ _______ _____ _____    ______ ____
ROOT
ATOM      1  C   UNL     1       5.960   4.765  17.518  0.00  0.00    +0.000 A 
ATOM      2  C   UNL     1       4.950   4.175  16.756  0.00  0.00    +0.000 A 
ATOM      3  C   UNL     1       3.708   3.991  17.350  0.00  0.00    +0.000 A 
ATOM      4  F   UNL     1       2.722   3.421  16.648  0.00  0.00    +0.000 F 
ATOM      5  C   UNL     1       3.470   4.389  18.667  0.00  0.00    +0.000 A 
ATOM      6  C   UNL     1       4.491   4.986  19.410  0.00  0.00    +0.000 A 
ATOM      7  C   UNL     1       5.743   5.174  18.829  0.00  0.00    +0.000 A 
ATOM      8  F   UNL     1       6.708   5.769  19.543  0.00  0.00    +0.000 F 
ENDROOT
BRANCH   1  10
ATOM      9  O   UNL     1       7.363   5.881  16.104  0.00  0.00    +0.000 OA
ATOM     10  N   UNL     1       7.258   4.965  16.931  0.00  0.00    +0.000 N 
ATOM     11  O   UNL     1       8.157   4.180  17.259  0.00  0.00    +0.000 OA
ENDBRANCH   1  10
TORSDOF 1
ENDMDL
MODEL 2
REMARK VINA RESULT:      -5.5      3.678      4.532
REMARK  Name = 
REMARK  1 active torsions:
REMARK  status: ('A' for Active; 'I' for Inactive)
REMARK    1  A    between atoms: N_2  and  C_4
REMARK                            x       y       z     vdW  Elec       q    Type
REMARK                         _______ _______ _______ _____ _____    ______ ____
ROOT
ATOM      1  C   UNL     1       3.373   2.903  19.686  0.00  0.00    +0.000 A 
ATOM      2  C   UNL     1       2.677   3.913  20.351  0.00  0.00    +0.000 A 
ATOM      3  C   UNL     1       1.306   4.007  20.142  0.00  0.00    +0.000 A 
ATOM      4  F   UNL     1       0.612   4.969  20.760  0.00  0.00    +0.000 F 
ATOM      5  C   UNL     1       0.640   3.115  19.300  0.00  0.00    +0.000 A 
ATOM      6  C   UNL     1       1.354   2.105  18.651  0.00  0.00    +0.000 A 
ATOM      7  C   UNL     1       2.729   2.000  18.847  0.00  0.00    +0.000 A 
ATOM      8  F   UNL     1       3.399   1.013  18.237  0.00  0.00    +0.000 F 
ENDROOT
BRANCH   1  10
ATOM      9  O   UNL     1       5.186   1.841  20.580  0.00  0.00    +0.000 OA
ATOM     10  N   UNL     1       4.794   2.784  19.879  0.00  0.00    +0.000 N 
ATOM     11  O   UNL     1       5.511   3.656  19.372  0.00  0.00    +0.000 OA
ENDBRANCH   1  10
TORSDOF 1
ENDMDL
MODEL 3
REMARK VINA RESULT:      -5.5      1.352      1.623
REMARK  Name = 
REMARK  1 active torsions:
REMARK  status: ('A' for Active; 'I' for Inactive)
REMARK    1  A    between atoms: N_2  and  C_4
REMARK                            x       y       z     vdW  Elec       q    Type
REMARK                         _______ _______ _______ _____ _____    ______ ____
ROOT
ATOM      1  C   UNL     1       5.828   5.033  16.752  0.00  0.00    +0.000 A 
ATOM      2  C   UNL     1       4.966   3.939  16.656  0.00  0.00    +0.000 A 
ATOM      3  C   UNL     1       3.672   4.085  17.141  0.00  0.00    +0.000 A 
ATOM      4  F   UNL     1       2.825   3.052  17.070  0.00  0.00    +0.000 F 
ATOM      5  C   UNL     1       3.240   5.288  17.701  0.00  0.00    +0.000 A 
ATOM      6  C   UNL     1       4.116   6.374  17.779  0.00  0.00    +0.000 A 
ATOM      7  C   UNL     1       5.417   6.243  17.301  0.00  0.00    +0.000 A 
ATOM      8  F   UNL     1       6.241   7.298  17.360  0.00  0.00    +0.000 F 
ENDROOT
BRANCH   1  10
ATOM      9  O   UNL     1       7.995   4.362  17.011  0.00  0.00    +0.000 OA
ATOM     10  N   UNL     1       7.176   4.911  16.263  0.00  0.00    +0.000 N 
ATOM     11  O   UNL     1       7.425   5.405  15.156  0.00  0.00    +0.000 OA
ENDBRANCH   1  10
TORSDOF 1
ENDMDL
MODEL 4
REMARK VINA RESULT:      -5.4      3.392      4.058
REMARK  Name = 
REMARK  1 active torsions:
REMARK  status: ('A' for Active; 'I' for Inactive)
REMARK    1  A    between atoms: N_2  and  C_4
REMARK                            x       y       z     vdW  Elec       q    Type
REMARK                         _______ _______ _______ _____ _____    ______ ____
ROOT
ATOM      1  C   UNL     1       3.354   3.085  19.720  0.00  0.00    +0.000 A 
ATOM      2  C   UNL     1       2.846   3.626  18.538  0.00  0.00    +0.000 A 
ATOM      3  C   UNL     1       1.482   3.884  18.473  0.00  0.00    +0.000 A 
ATOM      4  F   UNL     1       0.965   4.396  17.350  0.00  0.00    +0.000 F 
ATOM      5  C   UNL     1       0.643   3.620  19.556  0.00  0.00    +0.000 A 
ATOM      6  C   UNL     1       1.172   3.087  20.733  0.00  0.00    +0.000 A 
ATOM      7  C   UNL     1       2.537   2.819  20.814  0.00  0.00    +0.000 A 
ATOM      8  F   UNL     1       3.037   2.330  21.956  0.00  0.00    +0.000 F 
ENDROOT
BRANCH   1  10
ATOM      9  O   UNL     1       5.080   1.706  20.296  0.00  0.00    +0.000 OA
ATOM     10  N   UNL     1       4.761   2.802  19.817  0.00  0.00    +0.000 N 
ATOM     11  O   UNL     1       5.545   3.691  19.460  0.00  0.00    +0.000 OA
ENDBRANCH   1  10
TORSDOF 1
ENDMDL
MODEL 5
REMARK VINA RESULT:      -5.4      3.159      4.089
REMARK  Name = 
REMARK  1 active torsions:
REMARK  status: ('A' for Active; 'I' for Inactive)
REMARK    1  A    between atoms: N_2  and  C_4
REMARK                            x       y       z     vdW  Elec       q    Type
REMARK                         _______ _______ _______ _____ _____    ______ ____
ROOT
ATOM      1  C   UNL     1       3.278   3.870  19.451  0.00  0.00    +0.000 A 
ATOM      2  C   UNL     1       2.747   3.491  20.685  0.00  0.00    +0.000 A 
ATOM      3  C   UNL     1       1.465   2.956  20.705  0.00  0.00    +0.000 A 
ATOM      4  F   UNL     1       0.925   2.590  21.874  0.00  0.00    +0.000 F 
ATOM      5  C   UNL     1       0.729   2.794  19.530  0.00  0.00    +0.000 A 
ATOM      6  C   UNL     1       1.283   3.171  18.304  0.00  0.00    +0.000 A 
ATOM      7  C   UNL     1       2.565   3.712  18.267  0.00  0.00    +0.000 A 
ATOM      8  F   UNL     1       3.095   4.048  17.083  0.00  0.00    +0.000 F 
ENDROOT
BRANCH   1  10
ATOM      9  O   UNL     1       4.685   5.665  19.348  0.00  0.00    +0.000 OA
ATOM     10  N   UNL     1       4.602   4.431  19.398  0.00  0.00    +0.000 N 
ATOM     11  O   UNL     1       5.553   3.640  19.357  0.00  0.00    +0.000 OA
ENDBRANCH   1  10
TORSDOF 1
ENDMDL
MODEL 6
REMARK VINA RESULT:      -5.4      4.706      5.605
REMARK  Name = 
REMARK  1 active torsions:
REMARK  status: ('A' for Active; 'I' for Inactive)
REMARK    1  A    between atoms: N_2  and  C_4
REMARK                            x       y       z     vdW  Elec       q    Type
REMARK                         _______ _______ _______ _____ _____    ______ ____
ROOT
ATOM      1  C   UNL     1       2.119   3.583  20.384  0.00  0.00    +0.000 A 
ATOM      2  C   UNL     1       2.453   4.936  20.463  0.00  0.00    +0.000 A 
ATOM      3  C   UNL     1       2.415   5.685  19.294  0.00  0.00    +0.000 A 
ATOM      4  F   UNL     1       2.737   6.983  19.336  0.00  0.00    +0.000 F 
ATOM      5  C   UNL     1       2.046   5.110  18.077  0.00  0.00    +0.000 A 
ATOM      6  C   UNL     1       1.706   3.756  18.021  0.00  0.00    +0.000 A 
ATOM      7  C   UNL     1       1.744   2.990  19.183  0.00  0.00    +0.000 A 
ATOM      8  F   UNL     1       1.393   1.698  19.122  0.00  0.00    +0.000 F 
ENDROOT
BRANCH   1  10
ATOM      9  O   UNL     1       3.241   2.266  21.874  0.00  0.00    +0.000 OA
ATOM     10  N   UNL     1       2.154   2.779  21.577  0.00  0.00    +0.000 N 
ATOM     11  O   UNL     1       1.089   2.622  22.188  0.00  0.00    +0.000 OA
ENDBRANCH   1  10
TORSDOF 1
ENDMDL
MODEL 7
REMARK VINA RESULT:      -5.3      1.374      2.426
REMARK  Name = 
REMARK  1 active torsions:
REMARK  status: ('A' for Active; 'I' for Inactive)
REMARK    1  A    between atoms: N_2  and  C_4
REMARK                            x       y       z     vdW  Elec       q    Type
REMARK                         _______ _______ _______ _____ _____    ______ ____
ROOT
ATOM      1  C   UNL     1       5.952   4.838  17.390  0.00  0.00    +0.000 A 
ATOM      2  C   UNL     1       5.469   5.417  18.564  0.00  0.00    +0.000 A 
ATOM      3  C   UNL     1       4.152   5.161  18.923  0.00  0.00    +0.000 A 
ATOM      4  F   UNL     1       3.658   5.708  20.040  0.00  0.00    +0.000 F 
ATOM      5  C   UNL     1       3.335   4.343  18.141  0.00  0.00    +0.000 A 
ATOM      6  C   UNL     1       3.840   3.766  16.974  0.00  0.00    +0.000 A 
ATOM      7  C   UNL     1       5.157   4.016  16.598  0.00  0.00    +0.000 A 
ATOM      8  F   UNL     1       5.638   3.438  15.489  0.00  0.00    +0.000 F 
ENDROOT
BRANCH   1  10
ATOM      9  O   UNL     1       7.520   6.119  16.335  0.00  0.00    +0.000 OA
ATOM     10  N   UNL     1       7.311   5.089  16.989  0.00  0.00    +0.000 N 
ATOM     11  O   UNL     1       8.158   4.236  17.285  0.00  0.00    +0.000 OA
ENDBRANCH   1  10
TORSDOF 1
ENDMDL
MODEL 8
REMARK VINA RESULT:      -5.3      1.959      2.154
REMARK  Name = 
REMARK  1 active torsions:
REMARK  status: ('A' for Active; 'I' for Inactive)
REMARK    1  A    between atoms: N_2  and  C_4
REMARK                            x       y       z     vdW  Elec       q    Type
REMARK                         _______ _______ _______ _____ _____    ______ ____
ROOT
ATOM      1  C   UNL     1       6.213   4.976  16.399  0.00  0.00    +0.000 A 
ATOM      2  C   UNL     1       4.924   5.511  16.400  0.00  0.00    +0.000 A 
ATOM      3  C   UNL     1       4.325   5.766  17.628  0.00  0.00    +0.000 A 
ATOM      4  F   UNL     1       3.088   6.273  17.661  0.00  0.00    +0.000 F 
ATOM      5  C   UNL     1       4.991   5.503  18.826  0.00  0.00    +0.000 A 
ATOM      6  C   UNL     1       6.284   4.975  18.804  0.00  0.00    +0.000 A 
ATOM      7  C   UNL     1       6.897   4.711  17.582  0.00  0.00    +0.000 A 
ATOM      8  F   UNL     1       8.146   4.226  17.572  0.00  0.00    +0.000 F 
ENDROOT
BRANCH   1  10
ATOM      9  O   UNL     1       7.751   5.478  14.788  0.00  0.00    +0.000 OA
ATOM     10  N   UNL     1       6.858   4.697  15.144  0.00  0.00    +0.000 N 
ATOM     11  O   UNL     1       6.442   3.730  14.494  0.00  0.00    +0.000 OA
ENDBRANCH   1  10
TORSDOF 1
ENDMDL
MODEL 9
REMARK VINA RESULT:      -5.3      2.073      2.446
REMARK  Name = 
REMARK  1 active torsions:
REMARK  status: ('A' for Active; 'I' for Inactive)
REMARK    1  A    between atoms: N_2  and  C_4
REMARK                            x       y       z     vdW  Elec       q    Type
REMARK                         _______ _______ _______ _____ _____    ______ ____
ROOT
ATOM      1  C   UNL     1       6.787   5.185  18.018  0.00  0.00    +0.000 A 
ATOM      2  C   UNL     1       7.168   4.719  16.758  0.00  0.00    +0.000 A 
ATOM      3  C   UNL     1       6.199   4.115  15.967  0.00  0.00    +0.000 A 
ATOM      4  F   UNL     1       6.535   3.652  14.757  0.00  0.00    +0.000 F 
ATOM      5  C   UNL     1       4.882   3.982  16.409  0.00  0.00    +0.000 A 
ATOM      6  C   UNL     1       4.519   4.463  17.670  0.00  0.00    +0.000 A 
ATOM      7  C   UNL     1       5.479   5.068  18.477  0.00  0.00    +0.000 A 
ATOM      8  F   UNL     1       5.114   5.546  19.674  0.00  0.00    +0.000 F 
ENDROOT
BRANCH   1  10
ATOM      9  O   UNL     1       8.100   6.968  18.572  0.00  0.00    +0.000 OA
ATOM     10  N   UNL     1       7.769   5.811  18.863  0.00  0.00    +0.000 N 
ATOM     11  O   UNL     1       8.242   5.132  19.783  0.00  0.00    +0.000 OA
ENDBRANCH   1  10
TORSDOF 1
ENDMDL
