MODEL 1
REMARK VINA RESULT:      -8.7      0.000      0.000
REMARK  Name = 
REMARK  9 active torsions:
REMARK  status: ('A' for Active; 'I' for Inactive)
REMARK    1  A    between atoms: C_1  and  O_2
REMARK    2  A    between atoms: O_2  and  C_3
REMARK    3  A    between atoms: C_5  and  C_6
REMARK    4  A    between atoms: C_9  and  C_10
REMARK    5  A    between atoms: N_11  and  C_12
REMARK    6  A    between atoms: C_15  and  N_16
REMARK    7  A    between atoms: C_21  and  C_22
REMARK    8  A    between atoms: N_25  and  C_26
REMARK    9  A    between atoms: C_26  and  C_27
REMARK                            x       y       z     vdW  Elec       q    Type
REMARK                         _______ _______ _______ _____ _____    ______ ____
ROOT
ATOM      1  N   UNL     1       0.920  10.485  18.062  0.00  0.00    +0.000 N 
ATOM      2  C   UNL     1       1.320   9.233  18.629  0.00  0.00    +0.000 A 
ATOM      3  C   UNL     1       1.915   8.360  17.735  0.00  0.00    +0.000 A 
ATOM      4  C   UNL     1       2.683   7.308  18.211  0.00  0.00    +0.000 A 
ATOM      5  C   UNL     1       3.652   6.752  17.384  0.00  0.00    +0.000 A 
ATOM      6  C   UNL     1       4.486   5.715  17.821  0.00  0.00    +0.000 A 
ATOM      7  C   UNL     1       4.250   5.159  19.082  0.00  0.00    +0.000 A 
ATOM      8  C   UNL     1       3.298   5.738  19.942  0.00  0.00    +0.000 A 
ATOM      9  C   UNL     1       2.574   6.894  19.540  0.00  0.00    +0.000 A 
ATOM     10  C   UNL     1       1.771   7.720  20.342  0.00  0.00    +0.000 A 
ATOM     11  N   UNL     1       1.209   8.897  19.934  0.00  0.00    +0.000 NA
ATOM     12  H   UNL     1       1.537  10.712  17.281  0.00  0.00    +0.000 HD
ENDROOT
BRANCH   1  18
ATOM     13  C   UNL     1      -0.694  11.990  19.157  0.00  0.00    +0.000 A 
ATOM     14  C   UNL     1      -0.967  13.213  19.800  0.00  0.00    +0.000 A 
ATOM     15  C   UNL     1       0.027  14.169  19.994  0.00  0.00    +0.000 A 
ATOM     16  C   UNL     1       1.342  13.826  19.649  0.00  0.00    +0.000 A 
ATOM     17  C   UNL     1       1.627  12.624  19.019  0.00  0.00    +0.000 A 
ATOM     18  C   UNL     1       0.629  11.706  18.721  0.00  0.00    +0.000 A 
BRANCH  15  19
ATOM     19  C   UNL     1      -0.333  15.509  20.469  0.00  0.00    +0.000 A 
ATOM     20  C   UNL     1      -0.422  16.708  19.778  0.00  0.00    +0.000 A 
ATOM     21  N   UNL     1      -0.660  17.767  20.617  0.00  0.00    +0.000 NA
ATOM     22  C   UNL     1      -0.711  17.256  21.826  0.00  0.00    +0.000 A 
ATOM     23  C   UNL     1      -0.912  18.029  23.079  0.00  0.00    +0.000 C 
ATOM     24  N   UNL     1      -0.530  15.890  21.784  0.00  0.00    +0.000 N 
ATOM     25  C   UNL     1      -0.470  15.032  22.950  0.00  0.00    +0.000 C 
ENDBRANCH  15  19
BRANCH  13  27
ATOM     26  C   UNL     1      -2.871  11.576  18.295  0.00  0.00    +0.000 C 
ATOM     27  O   UNL     1      -1.670  11.060  18.871  0.00  0.00    +0.000 OA
ENDBRANCH  13  27
ENDBRANCH   1  18
BRANCH   6  28
ATOM     28  C   UNL     1       5.574   5.287  16.963  0.00  0.00    +0.000 A 
ATOM     29  C   UNL     1       6.848   4.736  17.232  0.00  0.00    +0.000 A 
ATOM     30  N   UNL     1       7.568   4.537  16.119  0.00  0.00    +0.000 NA
ATOM     31  N   UNL     1       6.748   4.951  15.139  0.00  0.00    +0.000 N 
ATOM     32  C   UNL     1       5.571   5.458  15.595  0.00  0.00    +0.000 A 
BRANCH  31  33
ATOM     33  C   UNL     1       7.127   4.820  13.755  0.00  0.00    +0.000 C 
BRANCH  33  34
ATOM     34  C   UNL     1       6.442   3.632  13.122  0.00  0.00    +0.000 C 
ATOM     35  F   UNL     1       5.116   3.891  12.967  0.00  0.00    +0.000 F 
ATOM     36  F   UNL     1       6.935   3.450  11.868  0.00  0.00    +0.000 F 
ENDBRANCH  33  34
ENDBRANCH  31  33
ENDBRANCH   6  28
TORSDOF 6
ENDMDL
MODEL 2
REMARK VINA RESULT:      -8.5      1.103      1.925
REMARK  Name = 
REMARK  9 active torsions:
REMARK  status: ('A' for Active; 'I' for Inactive)
REMARK    1  A    between atoms: C_1  and  O_2
REMARK    2  A    between atoms: O_2  and  C_3
REMARK    3  A    between atoms: C_5  and  C_6
REMARK    4  A    between atoms: C_9  and  C_10
REMARK    5  A    between atoms: N_11  and  C_12
REMARK    6  A    between atoms: C_15  and  N_16
REMARK    7  A    between atoms: C_21  and  C_22
REMARK    8  A    between atoms: N_25  and  C_26
REMARK    9  A    between atoms: C_26  and  C_27
REMARK                            x       y       z     vdW  Elec       q    Type
REMARK                         _______ _______ _______ _____ _____    ______ ____
ROOT
ATOM      1  N   UNL     1       0.910  10.762  18.272  0.00  0.00    +0.000 N 
ATOM      2  C   UNL     1       1.251   9.467  18.776  0.00  0.00    +0.000 A 
ATOM      3  C   UNL     1       1.849   8.628  17.852  0.00  0.00    +0.000 A 
ATOM      4  C   UNL     1       2.568   7.527  18.290  0.00  0.00    +0.000 A 
ATOM      5  C   UNL     1       3.547   6.988  17.463  0.00  0.00    +0.000 A 
ATOM      6  C   UNL     1       4.334   5.901  17.865  0.00  0.00    +0.000 A 
ATOM      7  C   UNL     1       4.037   5.280  19.083  0.00  0.00    +0.000 A 
ATOM      8  C   UNL     1       3.074   5.839  19.944  0.00  0.00    +0.000 A 
ATOM      9  C   UNL     1       2.400   7.039  19.587  0.00  0.00    +0.000 A 
ATOM     10  C   UNL     1       1.596   7.843  20.410  0.00  0.00    +0.000 A 
ATOM     11  N   UNL     1       1.085   9.059  20.055  0.00  0.00    +0.000 NA
ATOM     12  H   UNL     1       1.560  11.014  17.526  0.00  0.00    +0.000 HD
ENDROOT
BRANCH   1  18
ATOM     13  C   UNL     1       1.527  13.056  18.923  0.00  0.00    +0.000 A 
ATOM     14  C   UNL     1       1.243  14.227  19.654  0.00  0.00    +0.000 A 
ATOM     15  C   UNL     1       0.119  14.318  20.470  0.00  0.00    +0.000 A 
ATOM     16  C   UNL     1      -0.798  13.258  20.444  0.00  0.00    +0.000 A 
ATOM     17  C   UNL     1      -0.535  12.101  19.726  0.00  0.00    +0.000 A 
ATOM     18  C   UNL     1       0.634  11.952  18.992  0.00  0.00    +0.000 A 
BRANCH  15  19
ATOM     19  C   UNL     1      -0.033  15.460  21.378  0.00  0.00    +0.000 A 
ATOM     20  C   UNL     1       0.545  15.700  22.616  0.00  0.00    +0.000 A 
ATOM     21  N   UNL     1       0.038  16.830  23.207  0.00  0.00    +0.000 NA
ATOM     22  C   UNL     1      -0.858  17.297  22.367  0.00  0.00    +0.000 A 
ATOM     23  C   UNL     1      -1.704  18.497  22.593  0.00  0.00    +0.000 C 
ATOM     24  N   UNL     1      -0.926  16.507  21.240  0.00  0.00    +0.000 N 
ATOM     25  C   UNL     1      -1.855  16.711  20.148  0.00  0.00    +0.000 C 
ENDBRANCH  15  19
BRANCH  13  27
ATOM     26  C   UNL     1       3.657  13.924  18.324  0.00  0.00    +0.000 C 
ATOM     27  O   UNL     1       2.674  12.901  18.176  0.00  0.00    +0.000 OA
ENDBRANCH  13  27
ENDBRANCH   1  18
BRANCH   6  28
ATOM     28  C   UNL     1       5.437   5.488  17.019  0.00  0.00    +0.000 A 
ATOM     29  C   UNL     1       6.769   5.105  17.299  0.00  0.00    +0.000 A 
ATOM     30  N   UNL     1       7.474   4.851  16.188  0.00  0.00    +0.000 NA
ATOM     31  N   UNL     1       6.589   5.062  15.201  0.00  0.00    +0.000 N 
ATOM     32  C   UNL     1       5.379   5.496  15.641  0.00  0.00    +0.000 A 
BRANCH  31  33
ATOM     33  C   UNL     1       6.942   4.808  13.826  0.00  0.00    +0.000 C 
BRANCH  33  34
ATOM     34  C   UNL     1       6.193   3.609  13.293  0.00  0.00    +0.000 C 
ATOM     35  F   UNL     1       4.929   3.972  12.943  0.00  0.00    +0.000 F 
ATOM     36  F   UNL     1       6.789   3.186  12.147  0.00  0.00    +0.000 F 
ENDBRANCH  33  34
ENDBRANCH  31  33
ENDBRANCH   6  28
TORSDOF 6
ENDMDL
MODEL 3
REMARK VINA RESULT:      -8.5      1.026      1.169
REMARK  Name = 
REMARK  9 active torsions:
REMARK  status: ('A' for Active; 'I' for Inactive)
REMARK    1  A    between atoms: C_1  and  O_2
REMARK    2  A    between atoms: O_2  and  C_3
REMARK    3  A    between atoms: C_5  and  C_6
REMARK    4  A    between atoms: C_9  and  C_10
REMARK    5  A    between atoms: N_11  and  C_12
REMARK    6  A    between atoms: C_15  and  N_16
REMARK    7  A    between atoms: C_21  and  C_22
REMARK    8  A    between atoms: N_25  and  C_26
REMARK    9  A    between atoms: C_26  and  C_27
REMARK                            x       y       z     vdW  Elec       q    Type
REMARK                         _______ _______ _______ _____ _____    ______ ____
ROOT
ATOM      1  N   UNL     1       0.944  11.067  18.420  0.00  0.00    +0.000 N 
ATOM      2  C   UNL     1       1.260   9.726  18.809  0.00  0.00    +0.000 A 
ATOM      3  C   UNL     1       1.889   8.977  17.830  0.00  0.00    +0.000 A 
ATOM      4  C   UNL     1       2.586   7.832  18.186  0.00  0.00    +0.000 A 
ATOM      5  C   UNL     1       3.594   7.368  17.348  0.00  0.00    +0.000 A 
ATOM      6  C   UNL     1       4.359   6.241  17.671  0.00  0.00    +0.000 A 
ATOM      7  C   UNL     1       4.013   5.507  18.810  0.00  0.00    +0.000 A 
ATOM      8  C   UNL     1       3.021   5.987  19.685  0.00  0.00    +0.000 A 
ATOM      9  C   UNL     1       2.366   7.221  19.422  0.00  0.00    +0.000 A 
ATOM     10  C   UNL     1       1.534   7.948  20.288  0.00  0.00    +0.000 A 
ATOM     11  N   UNL     1       1.043   9.197  20.035  0.00  0.00    +0.000 NA
ATOM     12  H   UNL     1       1.624  11.385  17.728  0.00  0.00    +0.000 HD
ENDROOT
BRANCH   1  18
ATOM     13  C   UNL     1      -0.622  12.821  19.156  0.00  0.00    +0.000 A 
ATOM     14  C   UNL     1      -0.897  13.936  19.972  0.00  0.00    +0.000 A 
ATOM     15  C   UNL     1       0.058  14.449  20.846  0.00  0.00    +0.000 A 
ATOM     16  C   UNL     1       1.262  13.744  20.989  0.00  0.00    +0.000 A 
ATOM     17  C   UNL     1       1.546  12.642  20.195  0.00  0.00    +0.000 A 
ATOM     18  C   UNL     1       0.646  12.183  19.243  0.00  0.00    +0.000 A 
BRANCH  15  19
ATOM     19  C   UNL     1      -0.181  15.730  21.519  0.00  0.00    +0.000 A 
ATOM     20  C   UNL     1       0.137  17.021  21.123  0.00  0.00    +0.000 A 
ATOM     21  N   UNL     1      -0.140  17.940  22.103  0.00  0.00    +0.000 NA
ATOM     22  C   UNL     1      -0.616  17.248  23.114  0.00  0.00    +0.000 A 
ATOM     23  C   UNL     1      -1.023  17.812  24.426  0.00  0.00    +0.000 C 
ATOM     24  N   UNL     1      -0.671  15.906  22.801  0.00  0.00    +0.000 N 
ATOM     25  C   UNL     1      -1.090  14.865  23.715  0.00  0.00    +0.000 C 
ENDBRANCH  15  19
BRANCH  13  27
ATOM     26  C   UNL     1      -2.680  11.709  18.737  0.00  0.00    +0.000 C 
ATOM     27  O   UNL     1      -1.512  12.343  18.219  0.00  0.00    +0.000 OA
ENDBRANCH  13  27
ENDBRANCH   1  18
BRANCH   6  28
ATOM     28  C   UNL     1       5.492   5.903  16.831  0.00  0.00    +0.000 A 
ATOM     29  C   UNL     1       6.859   6.261  16.876  0.00  0.00    +0.000 A 
ATOM     30  N   UNL     1       7.556   5.756  15.848  0.00  0.00    +0.000 NA
ATOM     31  N   UNL     1       6.635   5.068  15.154  0.00  0.00    +0.000 N 
ATOM     32  C   UNL     1       5.381   5.170  15.668  0.00  0.00    +0.000 A 
BRANCH  31  33
ATOM     33  C   UNL     1       7.009   4.293  13.997  0.00  0.00    +0.000 C 
BRANCH  33  34
ATOM     34  C   UNL     1       7.389   5.197  12.847  0.00  0.00    +0.000 C 
ATOM     35  F   UNL     1       8.675   5.616  12.994  0.00  0.00    +0.000 F 
ATOM     36  F   UNL     1       7.359   4.482  11.692  0.00  0.00    +0.000 F 
ENDBRANCH  33  34
ENDBRANCH  31  33
ENDBRANCH   6  28
TORSDOF 6
ENDMDL
MODEL 4
REMARK VINA RESULT:      -8.3      1.274      2.130
REMARK  Name = 
REMARK  9 active torsions:
REMARK  status: ('A' for Active; 'I' for Inactive)
REMARK    1  A    between atoms: C_1  and  O_2
REMARK    2  A    between atoms: O_2  and  C_3
REMARK    3  A    between atoms: C_5  and  C_6
REMARK    4  A    between atoms: C_9  and  C_10
REMARK    5  A    between atoms: N_11  and  C_12
REMARK    6  A    between atoms: C_15  and  N_16
REMARK    7  A    between atoms: C_21  and  C_22
REMARK    8  A    between atoms: N_25  and  C_26
REMARK    9  A    between atoms: C_26  and  C_27
REMARK                            x       y       z     vdW  Elec       q    Type
REMARK                         _______ _______ _______ _____ _____    ______ ____
ROOT
ATOM      1  N   UNL     1       0.631  10.824  18.348  0.00  0.00    +0.000 N 
ATOM      2  C   UNL     1       1.069   9.539  18.801  0.00  0.00    +0.000 A 
ATOM      3  C   UNL     1       1.716   8.780  17.841  0.00  0.00    +0.000 A 
ATOM      4  C   UNL     1       2.516   7.717  18.232  0.00  0.00    +0.000 A 
ATOM      5  C   UNL     1       3.524   7.282  17.379  0.00  0.00    +0.000 A 
ATOM      6  C   UNL     1       4.390   6.240  17.734  0.00  0.00    +0.000 A 
ATOM      7  C   UNL     1       4.150   5.554  18.929  0.00  0.00    +0.000 A 
ATOM      8  C   UNL     1       3.158   6.010  19.817  0.00  0.00    +0.000 A 
ATOM      9  C   UNL     1       2.397   7.171  19.511  0.00  0.00    +0.000 A 
ATOM     10  C   UNL     1       1.544   7.883  20.369  0.00  0.00    +0.000 A 
ATOM     11  N   UNL     1       0.944   9.072  20.064  0.00  0.00    +0.000 NA
ATOM     12  H   UNL     1       1.254  11.149  17.608  0.00  0.00    +0.000 HD
ENDROOT
BRANCH   1  18
ATOM     13  C   UNL     1       1.253  12.949  19.427  0.00  0.00    +0.000 A 
ATOM     14  C   UNL     1       0.887  14.069  20.199  0.00  0.00    +0.000 A 
ATOM     15  C   UNL     1      -0.406  14.220  20.692  0.00  0.00    +0.000 A 
ATOM     16  C   UNL     1      -1.374  13.290  20.288  0.00  0.00    +0.000 A 
ATOM     17  C   UNL     1      -1.031  12.184  19.524  0.00  0.00    +0.000 A 
ATOM     18  C   UNL     1       0.278  11.963  19.115  0.00  0.00    +0.000 A 
BRANCH  15  19
ATOM     19  C   UNL     1      -0.697  15.278  21.665  0.00  0.00    +0.000 A 
ATOM     20  C   UNL     1      -0.821  15.214  23.045  0.00  0.00    +0.000 A 
ATOM     21  N   UNL     1      -1.234  16.408  23.579  0.00  0.00    +0.000 NA
ATOM     22  C   UNL     1      -1.385  17.220  22.556  0.00  0.00    +0.000 A 
ATOM     23  C   UNL     1      -1.859  18.625  22.636  0.00  0.00    +0.000 C 
ATOM     24  N   UNL     1      -1.059  16.582  21.378  0.00  0.00    +0.000 N 
ATOM     25  C   UNL     1      -1.175  17.176  20.062  0.00  0.00    +0.000 C 
ENDBRANCH  15  19
BRANCH  13  27
ATOM     26  C   UNL     1       3.166  13.808  18.307  0.00  0.00    +0.000 C 
ATOM     27  O   UNL     1       2.543  12.725  18.997  0.00  0.00    +0.000 OA
ENDBRANCH  13  27
ENDBRANCH   1  18
BRANCH   6  28
ATOM     28  C   UNL     1       5.512   5.939  16.865  0.00  0.00    +0.000 A 
ATOM     29  C   UNL     1       6.857   6.373  16.851  0.00  0.00    +0.000 A 
ATOM     30  N   UNL     1       7.547   5.876  15.815  0.00  0.00    +0.000 NA
ATOM     31  N   UNL     1       6.643   5.116  15.175  0.00  0.00    +0.000 N 
ATOM     32  C   UNL     1       5.403   5.165  15.729  0.00  0.00    +0.000 A 
BRANCH  31  33
ATOM     33  C   UNL     1       7.022   4.326  14.029  0.00  0.00    +0.000 C 
BRANCH  33  34
ATOM     34  C   UNL     1       7.449   5.215  12.884  0.00  0.00    +0.000 C 
ATOM     35  F   UNL     1       8.751   5.577  13.040  0.00  0.00    +0.000 F 
ATOM     36  F   UNL     1       7.396   4.504  11.727  0.00  0.00    +0.000 F 
ENDBRANCH  33  34
ENDBRANCH  31  33
ENDBRANCH   6  28
TORSDOF 6
ENDMDL
MODEL 5
REMARK VINA RESULT:      -8.3      0.768      1.126
REMARK  Name = 
REMARK  9 active torsions:
REMARK  status: ('A' for Active; 'I' for Inactive)
REMARK    1  A    between atoms: C_1  and  O_2
REMARK    2  A    between atoms: O_2  and  C_3
REMARK    3  A    between atoms: C_5  and  C_6
REMARK    4  A    between atoms: C_9  and  C_10
REMARK    5  A    between atoms: N_11  and  C_12
REMARK    6  A    between atoms: C_15  and  N_16
REMARK    7  A    between atoms: C_21  and  C_22
REMARK    8  A    between atoms: N_25  and  C_26
REMARK    9  A    between atoms: C_26  and  C_27
REMARK                            x       y       z     vdW  Elec       q    Type
REMARK                         _______ _______ _______ _____ _____    ______ ____
ROOT
ATOM      1  N   UNL     1       0.863  10.096  18.303  0.00  0.00    +0.000 N 
ATOM      2  C   UNL     1       1.347   8.837  18.782  0.00  0.00    +0.000 A 
ATOM      3  C   UNL     1       1.937   8.042  17.815  0.00  0.00    +0.000 A 
ATOM      4  C   UNL     1       2.775   7.005  18.197  0.00  0.00    +0.000 A 
ATOM      5  C   UNL     1       3.728   6.541  17.297  0.00  0.00    +0.000 A 
ATOM      6  C   UNL     1       4.628   5.524  17.638  0.00  0.00    +0.000 A 
ATOM      7  C   UNL     1       4.480   4.892  18.876  0.00  0.00    +0.000 A 
ATOM      8  C   UNL     1       3.545   5.378  19.810  0.00  0.00    +0.000 A 
ATOM      9  C   UNL     1       2.750   6.516  19.505  0.00  0.00    +0.000 A 
ATOM     10  C   UNL     1       1.949   7.259  20.387  0.00  0.00    +0.000 A 
ATOM     11  N   UNL     1       1.315   8.428  20.071  0.00  0.00    +0.000 NA
ATOM     12  H   UNL     1       1.430  10.393  17.508  0.00  0.00    +0.000 HD
ENDROOT
BRANCH   1  18
ATOM     13  C   UNL     1      -0.754  11.832  18.968  0.00  0.00    +0.000 A 
ATOM     14  C   UNL     1      -1.045  13.001  19.699  0.00  0.00    +0.000 A 
ATOM     15  C   UNL     1      -0.076  13.635  20.472  0.00  0.00    +0.000 A 
ATOM     16  C   UNL     1       1.168  13.003  20.609  0.00  0.00    +0.000 A 
ATOM     17  C   UNL     1       1.469  11.850  19.900  0.00  0.00    +0.000 A 
ATOM     18  C   UNL     1       0.548  11.265  19.041  0.00  0.00    +0.000 A 
BRANCH  15  19
ATOM     19  C   UNL     1      -0.348  14.958  21.043  0.00  0.00    +0.000 A 
ATOM     20  C   UNL     1      -1.169  15.322  22.100  0.00  0.00    +0.000 A 
ATOM     21  N   UNL     1      -1.253  16.685  22.237  0.00  0.00    +0.000 NA
ATOM     22  C   UNL     1      -0.509  17.184  21.275  0.00  0.00    +0.000 A 
ATOM     23  C   UNL     1      -0.322  18.630  20.996  0.00  0.00    +0.000 C 
ATOM     24  N   UNL     1       0.069  16.174  20.535  0.00  0.00    +0.000 N 
ATOM     25  C   UNL     1       0.897  16.383  19.366  0.00  0.00    +0.000 C 
ENDBRANCH  15  19
BRANCH  13  27
ATOM     26  C   UNL     1      -3.033  11.562  18.349  0.00  0.00    +0.000 C 
ATOM     27  O   UNL     1      -1.663  11.230  18.125  0.00  0.00    +0.000 OA
ENDBRANCH  13  27
ENDBRANCH   1  18
BRANCH   6  28
ATOM     28  C   UNL     1       5.692   5.195  16.709  0.00  0.00    +0.000 A 
ATOM     29  C   UNL     1       7.048   4.839  16.890  0.00  0.00    +0.000 A 
ATOM     30  N   UNL     1       7.695   4.671  15.729  0.00  0.00    +0.000 NA
ATOM     31  N   UNL     1       6.748   4.909  14.807  0.00  0.00    +0.000 N 
ATOM     32  C   UNL     1       5.554   5.279  15.339  0.00  0.00    +0.000 A 
BRANCH  31  33
ATOM     33  C   UNL     1       7.029   4.745  13.402  0.00  0.00    +0.000 C 
BRANCH  33  34
ATOM     34  C   UNL     1       6.344   3.512  12.859  0.00  0.00    +0.000 C 
ATOM     35  F   UNL     1       5.109   3.837  12.391  0.00  0.00    +0.000 F 
ATOM     36  F   UNL     1       7.040   3.054  11.786  0.00  0.00    +0.000 F 
ENDBRANCH  33  34
ENDBRANCH  31  33
ENDBRANCH   6  28
TORSDOF 6
ENDMDL
MODEL 6
REMARK VINA RESULT:      -8.2      1.264      1.875
REMARK  Name = 
REMARK  9 active torsions:
REMARK  status: ('A' for Active; 'I' for Inactive)
REMARK    1  A    between atoms: C_1  and  O_2
REMARK    2  A    between atoms: O_2  and  C_3
REMARK    3  A    between atoms: C_5  and  C_6
REMARK    4  A    between atoms: C_9  and  C_10
REMARK    5  A    between atoms: N_11  and  C_12
REMARK    6  A    between atoms: C_15  and  N_16
REMARK    7  A    between atoms: C_21  and  C_22
REMARK    8  A    between atoms: N_25  and  C_26
REMARK    9  A    between atoms: C_26  and  C_27
REMARK                            x       y       z     vdW  Elec       q    Type
REMARK                         _______ _______ _______ _____ _____    ______ ____
ROOT
ATOM      1  N   UNL     1       0.484  10.970  18.241  0.00  0.00    +0.000 N 
ATOM      2  C   UNL     1       0.922   9.693  18.717  0.00  0.00    +0.000 A 
ATOM      3  C   UNL     1       1.606   8.935  17.782  0.00  0.00    +0.000 A 
ATOM      4  C   UNL     1       2.406   7.884  18.204  0.00  0.00    +0.000 A 
ATOM      5  C   UNL     1       3.443   7.453  17.384  0.00  0.00    +0.000 A 
ATOM      6  C   UNL     1       4.310   6.424  17.772  0.00  0.00    +0.000 A 
ATOM      7  C   UNL     1       4.043   5.744  18.965  0.00  0.00    +0.000 A 
ATOM      8  C   UNL     1       3.021   6.196  19.820  0.00  0.00    +0.000 A 
ATOM      9  C   UNL     1       2.255   7.346  19.483  0.00  0.00    +0.000 A 
ATOM     10  C   UNL     1       1.371   8.055  20.311  0.00  0.00    +0.000 A 
ATOM     11  N   UNL     1       0.767   9.235  19.979  0.00  0.00    +0.000 NA
ATOM     12  H   UNL     1       1.125  11.297  17.517  0.00  0.00    +0.000 HD
ENDROOT
BRANCH   1  18
ATOM     13  C   UNL     1       1.033  13.146  19.256  0.00  0.00    +0.000 A 
ATOM     14  C   UNL     1       0.633  14.267  20.010  0.00  0.00    +0.000 A 
ATOM     15  C   UNL     1      -0.656  14.373  20.527  0.00  0.00    +0.000 A 
ATOM     16  C   UNL     1      -1.589  13.392  20.165  0.00  0.00    +0.000 A 
ATOM     17  C   UNL     1      -1.212  12.284  19.420  0.00  0.00    +0.000 A 
ATOM     18  C   UNL     1       0.096  12.110  18.988  0.00  0.00    +0.000 A 
BRANCH  15  19
ATOM     19  C   UNL     1      -0.974  15.441  21.481  0.00  0.00    +0.000 A 
ATOM     20  C   UNL     1      -0.994  16.817  21.308  0.00  0.00    +0.000 A 
ATOM     21  N   UNL     1      -1.213  17.478  22.489  0.00  0.00    +0.000 NA
ATOM     22  C   UNL     1      -1.319  16.542  23.405  0.00  0.00    +0.000 A 
ATOM     23  C   UNL     1      -1.525  16.779  24.857  0.00  0.00    +0.000 C 
ATOM     24  N   UNL     1      -1.194  15.292  22.838  0.00  0.00    +0.000 N 
ATOM     25  C   UNL     1      -1.201  14.048  23.580  0.00  0.00    +0.000 C 
ENDBRANCH  15  19
BRANCH  13  27
ATOM     26  C   UNL     1       3.280  13.919  19.270  0.00  0.00    +0.000 C 
ATOM     27  O   UNL     1       2.322  12.969  18.805  0.00  0.00    +0.000 OA
ENDBRANCH  13  27
ENDBRANCH   1  18
BRANCH   6  28
ATOM     28  C   UNL     1       5.459   6.129  16.938  0.00  0.00    +0.000 A 
ATOM     29  C   UNL     1       6.836   6.427  17.063  0.00  0.00    +0.000 A 
ATOM     30  N   UNL     1       7.551   6.003  16.012  0.00  0.00    +0.000 NA
ATOM     31  N   UNL     1       6.631   5.425  15.222  0.00  0.00    +0.000 N 
ATOM     32  C   UNL     1       5.364   5.524  15.703  0.00  0.00    +0.000 A 
BRANCH  31  33
ATOM     33  C   UNL     1       7.019   4.758  14.004  0.00  0.00    +0.000 C 
BRANCH  33  34
ATOM     34  C   UNL     1       6.017   3.688  13.637  0.00  0.00    +0.000 C 
ATOM     35  F   UNL     1       4.889   4.263  13.140  0.00  0.00    +0.000 F 
ATOM     36  F   UNL     1       6.524   2.932  12.628  0.00  0.00    +0.000 F 
ENDBRANCH  33  34
ENDBRANCH  31  33
ENDBRANCH   6  28
TORSDOF 6
ENDMDL
MODEL 7
REMARK VINA RESULT:      -8.2      1.422      1.987
REMARK  Name = 
REMARK  9 active torsions:
REMARK  status: ('A' for Active; 'I' for Inactive)
REMARK    1  A    between atoms: C_1  and  O_2
REMARK    2  A    between atoms: O_2  and  C_3
REMARK    3  A    between atoms: C_5  and  C_6
REMARK    4  A    between atoms: C_9  and  C_10
REMARK    5  A    between atoms: N_11  and  C_12
REMARK    6  A    between atoms: C_15  and  N_16
REMARK    7  A    between atoms: C_21  and  C_22
REMARK    8  A    between atoms: N_25  and  C_26
REMARK    9  A    between atoms: C_26  and  C_27
REMARK                            x       y       z     vdW  Elec       q    Type
REMARK                         _______ _______ _______ _____ _____    ______ ____
ROOT
ATOM      1  N   UNL     1       1.106  10.885  18.397  0.00  0.00    +0.000 N 
ATOM      2  C   UNL     1       1.374   9.556  18.853  0.00  0.00    +0.000 A 
ATOM      3  C   UNL     1       1.956   8.729  17.908  0.00  0.00    +0.000 A 
ATOM      4  C   UNL     1       2.611   7.577  18.314  0.00  0.00    +0.000 A 
ATOM      5  C   UNL     1       3.585   7.027  17.488  0.00  0.00    +0.000 A 
ATOM      6  C   UNL     1       4.310   5.888  17.861  0.00  0.00    +0.000 A 
ATOM      7  C   UNL     1       3.954   5.231  19.043  0.00  0.00    +0.000 A 
ATOM      8  C   UNL     1       2.998   5.800  19.906  0.00  0.00    +0.000 A 
ATOM      9  C   UNL     1       2.389   7.044  19.585  0.00  0.00    +0.000 A 
ATOM     10  C   UNL     1       1.603   7.850  20.423  0.00  0.00    +0.000 A 
ATOM     11  N   UNL     1       1.158   9.103  20.109  0.00  0.00    +0.000 NA
ATOM     12  H   UNL     1       1.786  11.137  17.677  0.00  0.00    +0.000 HD
ENDROOT
BRANCH   1  18
ATOM     13  C   UNL     1       1.621  13.238  18.917  0.00  0.00    +0.000 A 
ATOM     14  C   UNL     1       1.379  14.388  19.693  0.00  0.00    +0.000 A 
ATOM     15  C   UNL     1       0.437  14.388  20.719  0.00  0.00    +0.000 A 
ATOM     16  C   UNL     1      -0.362  13.246  20.873  0.00  0.00    +0.000 A 
ATOM     17  C   UNL     1      -0.139  12.107  20.114  0.00  0.00    +0.000 A 
ATOM     18  C   UNL     1       0.869  12.056  19.161  0.00  0.00    +0.000 A 
BRANCH  15  19
ATOM     19  C   UNL     1       0.362  15.525  21.642  0.00  0.00    +0.000 A 
ATOM     20  C   UNL     1      -0.687  16.392  21.908  0.00  0.00    +0.000 A 
ATOM     21  N   UNL     1      -0.309  17.412  22.743  0.00  0.00    +0.000 NA
ATOM     22  C   UNL     1       0.964  17.209  22.997  0.00  0.00    +0.000 A 
ATOM     23  C   UNL     1       1.825  18.085  23.833  0.00  0.00    +0.000 C 
ATOM     24  N   UNL     1       1.410  16.071  22.361  0.00  0.00    +0.000 N 
ATOM     25  C   UNL     1       2.779  15.598  22.384  0.00  0.00    +0.000 C 
ENDBRANCH  15  19
BRANCH  13  27
ATOM     26  C   UNL     1       3.695  14.084  18.121  0.00  0.00    +0.000 C 
ATOM     27  O   UNL     1       2.605  13.178  17.954  0.00  0.00    +0.000 OA
ENDBRANCH  13  27
ENDBRANCH   1  18
BRANCH   6  28
ATOM     28  C   UNL     1       5.413   5.458  17.023  0.00  0.00    +0.000 A 
ATOM     29  C   UNL     1       6.728   5.030  17.315  0.00  0.00    +0.000 A 
ATOM     30  N   UNL     1       7.443   4.777  16.210  0.00  0.00    +0.000 NA
ATOM     31  N   UNL     1       6.580   5.034  15.214  0.00  0.00    +0.000 N 
ATOM     32  C   UNL     1       5.376   5.496  15.645  0.00  0.00    +0.000 A 
BRANCH  31  33
ATOM     33  C   UNL     1       6.947   4.797  13.840  0.00  0.00    +0.000 C 
BRANCH  33  34
ATOM     34  C   UNL     1       6.197   3.610  13.282  0.00  0.00    +0.000 C 
ATOM     35  F   UNL     1       4.962   3.998  12.863  0.00  0.00    +0.000 F 
ATOM     36  F   UNL     1       6.841   3.158  12.174  0.00  0.00    +0.000 F 
ENDBRANCH  33  34
ENDBRANCH  31  33
ENDBRANCH   6  28
TORSDOF 6
ENDMDL
MODEL 8
REMARK VINA RESULT:      -8.1      1.191      1.866
REMARK  Name = 
REMARK  9 active torsions:
REMARK  status: ('A' for Active; 'I' for Inactive)
REMARK    1  A    between atoms: C_1  and  O_2
REMARK    2  A    between atoms: O_2  and  C_3
REMARK    3  A    between atoms: C_5  and  C_6
REMARK    4  A    between atoms: C_9  and  C_10
REMARK    5  A    between atoms: N_11  and  C_12
REMARK    6  A    between atoms: C_15  and  N_16
REMARK    7  A    between atoms: C_21  and  C_22
REMARK    8  A    between atoms: N_25  and  C_26
REMARK    9  A    between atoms: C_26  and  C_27
REMARK                            x       y       z     vdW  Elec       q    Type
REMARK                         _______ _______ _______ _____ _____    ______ ____
ROOT
ATOM      1  N   UNL     1       0.765  10.726  17.999  0.00  0.00    +0.000 N 
ATOM      2  C   UNL     1       1.166   9.480  18.577  0.00  0.00    +0.000 A 
ATOM      3  C   UNL     1       1.781   8.608  17.694  0.00  0.00    +0.000 A 
ATOM      4  C   UNL     1       2.550   7.564  18.185  0.00  0.00    +0.000 A 
ATOM      5  C   UNL     1       3.535   7.012  17.374  0.00  0.00    +0.000 A 
ATOM      6  C   UNL     1       4.371   5.984  17.827  0.00  0.00    +0.000 A 
ATOM      7  C   UNL     1       4.121   5.430  19.087  0.00  0.00    +0.000 A 
ATOM      8  C   UNL     1       3.153   6.005  19.931  0.00  0.00    +0.000 A 
ATOM      9  C   UNL     1       2.426   7.153  19.514  0.00  0.00    +0.000 A 
ATOM     10  C   UNL     1       1.605   7.976  20.301  0.00  0.00    +0.000 A 
ATOM     11  N   UNL     1       1.040   9.147  19.881  0.00  0.00    +0.000 NA
ATOM     12  H   UNL     1       1.392  10.955  17.226  0.00  0.00    +0.000 HD
ENDROOT
BRANCH   1  18
ATOM     13  C   UNL     1       1.440  12.968  18.767  0.00  0.00    +0.000 A 
ATOM     14  C   UNL     1       1.118  14.171  19.426  0.00  0.00    +0.000 A 
ATOM     15  C   UNL     1      -0.137  14.375  19.993  0.00  0.00    +0.000 A 
ATOM     16  C   UNL     1      -1.121  13.400  19.776  0.00  0.00    +0.000 A 
ATOM     17  C   UNL     1      -0.821  12.212  19.126  0.00  0.00    +0.000 A 
ATOM     18  C   UNL     1       0.456  11.948  18.649  0.00  0.00    +0.000 A 
BRANCH  15  19
ATOM     19  C   UNL     1      -0.369  15.541  20.852  0.00  0.00    +0.000 A 
ATOM     20  C   UNL     1      -0.262  16.895  20.569  0.00  0.00    +0.000 A 
ATOM     21  N   UNL     1      -0.434  17.667  21.689  0.00  0.00    +0.000 NA
ATOM     22  C   UNL     1      -0.635  16.822  22.675  0.00  0.00    +0.000 A 
ATOM     23  C   UNL     1      -0.836  17.194  24.099  0.00  0.00    +0.000 C 
ATOM     24  N   UNL     1      -0.616  15.523  22.213  0.00  0.00    +0.000 N 
ATOM     25  C   UNL     1      -0.745  14.350  23.052  0.00  0.00    +0.000 C 
ENDBRANCH  15  19
BRANCH  13  27
ATOM     26  C   UNL     1       3.587  13.812  18.194  0.00  0.00    +0.000 C 
ATOM     27  O   UNL     1       2.697  12.698  18.272  0.00  0.00    +0.000 OA
ENDBRANCH  13  27
ENDBRANCH   1  18
BRANCH   6  28
ATOM     28  C   UNL     1       5.474   5.561  16.986  0.00  0.00    +0.000 A 
ATOM     29  C   UNL     1       6.878   5.600  17.153  0.00  0.00    +0.000 A 
ATOM     30  N   UNL     1       7.536   5.144  16.079  0.00  0.00    +0.000 NA
ATOM     31  N   UNL     1       6.552   4.804  15.231  0.00  0.00    +0.000 N 
ATOM     32  C   UNL     1       5.309   5.085  15.702  0.00  0.00    +0.000 A 
BRANCH  31  33
ATOM     33  C   UNL     1       6.851   4.181  13.965  0.00  0.00    +0.000 C 
BRANCH  33  34
ATOM     34  C   UNL     1       7.431   5.186  12.997  0.00  0.00    +0.000 C 
ATOM     35  F   UNL     1       8.681   5.543  13.394  0.00  0.00    +0.000 F 
ATOM     36  F   UNL     1       7.580   4.596  11.781  0.00  0.00    +0.000 F 
ENDBRANCH  33  34
ENDBRANCH  31  33
ENDBRANCH   6  28
TORSDOF 6
ENDMDL
MODEL 9
REMARK VINA RESULT:      -8.1      1.032      1.178
REMARK  Name = 
REMARK  9 active torsions:
REMARK  status: ('A' for Active; 'I' for Inactive)
REMARK    1  A    between atoms: C_1  and  O_2
REMARK    2  A    between atoms: O_2  and  C_3
REMARK    3  A    between atoms: C_5  and  C_6
REMARK    4  A    between atoms: C_9  and  C_10
REMARK    5  A    between atoms: N_11  and  C_12
REMARK    6  A    between atoms: C_15  and  N_16
REMARK    7  A    between atoms: C_21  and  C_22
REMARK    8  A    between atoms: N_25  and  C_26
REMARK    9  A    between atoms: C_26  and  C_27
REMARK                            x       y       z     vdW  Elec       q    Type
REMARK                         _______ _______ _______ _____ _____    ______ ____
ROOT
ATOM      1  N   UNL     1       0.586  11.359  18.340  0.00  0.00    +0.000 N 
ATOM      2  C   UNL     1       0.912  10.035  18.775  0.00  0.00    +0.000 A 
ATOM      3  C   UNL     1       1.615   9.283  17.850  0.00  0.00    +0.000 A 
ATOM      4  C   UNL     1       2.319   8.164  18.268  0.00  0.00    +0.000 A 
ATOM      5  C   UNL     1       3.385   7.710  17.499  0.00  0.00    +0.000 A 
ATOM      6  C   UNL     1       4.158   6.610  17.890  0.00  0.00    +0.000 A 
ATOM      7  C   UNL     1       3.767   5.890  19.023  0.00  0.00    +0.000 A 
ATOM      8  C   UNL     1       2.714   6.362  19.829  0.00  0.00    +0.000 A 
ATOM      9  C   UNL     1       2.045   7.573  19.503  0.00  0.00    +0.000 A 
ATOM     10  C   UNL     1       1.147   8.294  20.305  0.00  0.00    +0.000 A 
ATOM     11  N   UNL     1       0.639   9.525  19.997  0.00  0.00    +0.000 NA
ATOM     12  H   UNL     1       1.296  11.680  17.680  0.00  0.00    +0.000 HD
ENDROOT
BRANCH   1  18
ATOM     13  C   UNL     1      -1.156  12.737  19.406  0.00  0.00    +0.000 A 
ATOM     14  C   UNL     1      -1.508  13.865  20.174  0.00  0.00    +0.000 A 
ATOM     15  C   UNL     1      -0.546  14.759  20.635  0.00  0.00    +0.000 A 
ATOM     16  C   UNL     1       0.802  14.434  20.428  0.00  0.00    +0.000 A 
ATOM     17  C   UNL     1       1.166  13.325  19.678  0.00  0.00    +0.000 A 
ATOM     18  C   UNL     1       0.214  12.483  19.119  0.00  0.00    +0.000 A 
BRANCH  15  19
ATOM     19  C   UNL     1      -0.960  16.028  21.242  0.00  0.00    +0.000 A 
ATOM     20  C   UNL     1      -1.016  17.303  20.697  0.00  0.00    +0.000 A 
ATOM     21  N   UNL     1      -1.332  18.248  21.639  0.00  0.00    +0.000 NA
ATOM     22  C   UNL     1      -1.463  17.592  22.770  0.00  0.00    +0.000 A 
ATOM     23  C   UNL     1      -1.768  18.204  24.089  0.00  0.00    +0.000 C 
ATOM     24  N   UNL     1      -1.259  16.243  22.575  0.00  0.00    +0.000 N 
ATOM     25  C   UNL     1      -1.271  15.249  23.628  0.00  0.00    +0.000 C 
ENDBRANCH  15  19
BRANCH  13  27
ATOM     26  C   UNL     1      -3.445  12.116  19.240  0.00  0.00    +0.000 C 
ATOM     27  O   UNL     1      -2.088  11.882  18.861  0.00  0.00    +0.000 OA
ENDBRANCH  13  27
ENDBRANCH   1  18
BRANCH   6  28
ATOM     28  C   UNL     1       5.346   6.285  17.123  0.00  0.00    +0.000 A 
ATOM     29  C   UNL     1       6.725   6.491  17.357  0.00  0.00    +0.000 A 
ATOM     30  N   UNL     1       7.487   6.074  16.336  0.00  0.00    +0.000 NA
ATOM     31  N   UNL     1       6.594   5.593  15.455  0.00  0.00    +0.000 N 
ATOM     32  C   UNL     1       5.303   5.747  15.854  0.00  0.00    +0.000 A 
BRANCH  31  33
ATOM     33  C   UNL     1       7.028   4.962  14.234  0.00  0.00    +0.000 C 
BRANCH  33  34
ATOM     34  C   UNL     1       6.049   3.895  13.804  0.00  0.00    +0.000 C 
ATOM     35  F   UNL     1       6.528   3.238  12.715  0.00  0.00    +0.000 F 
ATOM     36  F   UNL     1       5.949   2.963  14.788  0.00  0.00    +0.000 F 
ENDBRANCH  33  34
ENDBRANCH  31  33
ENDBRANCH   6  28
TORSDOF 6
ENDMDL
