MODEL 1
REMARK VINA RESULT:      -8.0      0.000      0.000
REMARK  Name = 
REMARK  10 active torsions:
REMARK  status: ('A' for Active; 'I' for Inactive)
REMARK    1  A    between atoms: C_1  and  C_2
REMARK    2  A    between atoms: C_5  and  O_6
REMARK    3  A    between atoms: C_15  and  C_16
REMARK    4  A    between atoms: C_17  and  C_18
REMARK    5  A    between atoms: C_18  and  O_19
REMARK    6  A    between atoms: C_18  and  C_20
REMARK    7  A    between atoms: C_20  and  C_21
REMARK    8  A    between atoms: C_21  and  O_22
REMARK    9  A    between atoms: C_21  and  C_23
REMARK   10  A    between atoms: C_21  and  C_27
REMARK                            x       y       z     vdW  Elec       q    Type
REMARK                         _______ _______ _______ _____ _____    ______ ____
ROOT
ATOM      1  C   UNL     1       1.677  11.597  20.005  0.00  0.00    +0.000 C 
ATOM      2  C   UNL     1       0.393  10.776  19.744  0.00  0.00    +0.000 C 
ATOM      3  C   UNL     1      -0.454  11.492  18.656  0.00  0.00    +0.000 C 
ATOM      4  C   UNL     1      -1.095  12.804  19.148  0.00  0.00    +0.000 C 
ATOM      5  C   UNL     1      -1.891  12.623  20.424  0.00  0.00    +0.000 C 
ATOM      6  C   UNL     1      -1.061  11.967  21.524  0.00  0.00    +0.000 C 
ATOM      7  C   UNL     1      -0.489  10.635  21.032  0.00  0.00    +0.000 C 
ATOM      8  C   UNL     1       0.230   9.895  22.158  0.00  0.00    +0.000 C 
ATOM      9  C   UNL     1       0.574   8.492  21.702  0.00  0.00    +0.000 C 
ATOM     10  C   UNL     1       1.370   8.457  20.392  0.00  0.00    +0.000 C 
ATOM     11  C   UNL     1       0.752   9.323  19.262  0.00  0.00    +0.000 C 
ATOM     12  C   UNL     1       1.635   9.218  17.983  0.00  0.00    +0.000 C 
ATOM     13  C   UNL     1       1.867   7.749  17.516  0.00  0.00    +0.000 C 
ATOM     14  C   UNL     1       2.393   6.839  18.644  0.00  0.00    +0.000 C 
ATOM     15  C   UNL     1       3.861   7.210  18.961  0.00  0.00    +0.000 C 
ATOM     16  C   UNL     1       2.236   5.276  18.432  0.00  0.00    +0.000 C 
ATOM     17  C   UNL     1       1.936   4.758  19.864  0.00  0.00    +0.000 C 
ATOM     18  C   UNL     1       1.799   5.944  20.802  0.00  0.00    +0.000 C 
ATOM     19  C   UNL     1       1.428   7.037  19.840  0.00  0.00    +0.000 C 
ENDROOT
BRANCH   5  20
ATOM     20  O   UNL     1      -2.363  13.892  20.880  0.00  0.00    +0.000 OA
ATOM     21  H   UNL     1      -2.175  14.547  20.188  0.00  0.00    +0.000 HD
ENDBRANCH   5  20
BRANCH  16  22
ATOM     22  C   UNL     1       3.390   4.495  17.753  0.00  0.00    +0.000 C 
BRANCH  22  23
ATOM     23  O   UNL     1       4.098   3.758  18.761  0.00  0.00    +0.000 OA
ATOM     24  H   UNL     1       4.261   2.855  18.422  0.00  0.00    +0.000 HD
ENDBRANCH  22  23
BRANCH  22  25
ATOM     25  C   UNL     1       4.487   5.280  16.955  0.00  0.00    +0.000 C 
BRANCH  25  26
ATOM     26  C   UNL     1       5.809   4.593  16.488  0.00  0.00    +0.000 C 
BRANCH  26  27
ATOM     27  C   UNL     1       6.101   4.902  15.010  0.00  0.00    +0.000 C 
ATOM     28  F   UNL     1       5.625   6.100  14.619  0.00  0.00    +0.000 F 
ATOM     29  F   UNL     1       7.398   4.820  14.660  0.00  0.00    +0.000 F 
ATOM     30  F   UNL     1       5.453   3.970  14.245  0.00  0.00    +0.000 F 
ENDBRANCH  26  27
BRANCH  26  31
ATOM     31  C   UNL     1       7.043   5.041  17.291  0.00  0.00    +0.000 C 
ATOM     32  F   UNL     1       7.529   6.234  16.878  0.00  0.00    +0.000 F 
ATOM     33  F   UNL     1       6.738   5.199  18.604  0.00  0.00    +0.000 F 
ATOM     34  F   UNL     1       8.084   4.187  17.230  0.00  0.00    +0.000 F 
ENDBRANCH  26  31
BRANCH  26  35
ATOM     35  O   UNL     1       5.577   3.152  16.555  0.00  0.00    +0.000 OA
ATOM     36  H   UNL     1       5.323   2.925  17.474  0.00  0.00    +0.000 HD
ENDBRANCH  26  35
ENDBRANCH  25  26
ENDBRANCH  22  25
ENDBRANCH  16  22
TORSDOF 8
ENDMDL
MODEL 2
REMARK VINA RESULT:      -7.8      2.679      4.283
REMARK  Name = 
REMARK  10 active torsions:
REMARK  status: ('A' for Active; 'I' for Inactive)
REMARK    1  A    between atoms: C_1  and  C_2
REMARK    2  A    between atoms: C_5  and  O_6
REMARK    3  A    between atoms: C_15  and  C_16
REMARK    4  A    between atoms: C_17  and  C_18
REMARK    5  A    between atoms: C_18  and  O_19
REMARK    6  A    between atoms: C_18  and  C_20
REMARK    7  A    between atoms: C_20  and  C_21
REMARK    8  A    between atoms: C_21  and  O_22
REMARK    9  A    between atoms: C_21  and  C_23
REMARK   10  A    between atoms: C_21  and  C_27
REMARK                            x       y       z     vdW  Elec       q    Type
REMARK                         _______ _______ _______ _____ _____    ______ ____
ROOT
ATOM      1  C   UNL     1      -1.988  14.108  20.618  0.00  0.00    +0.000 C 
ATOM      2  C   UNL     1      -2.748  12.781  20.838  0.00  0.00    +0.000 C 
ATOM      3  C   UNL     1      -4.070  12.812  20.022  0.00  0.00    +0.000 C 
ATOM      4  C   UNL     1      -5.114  13.793  20.589  0.00  0.00    +0.000 C 
ATOM      5  C   UNL     1      -5.391  13.565  22.060  0.00  0.00    +0.000 C 
ATOM      6  C   UNL     1      -4.109  13.580  22.890  0.00  0.00    +0.000 C 
ATOM      7  C   UNL     1      -3.113  12.553  22.345  0.00  0.00    +0.000 C 
ATOM      8  C   UNL     1      -1.881  12.453  23.239  0.00  0.00    +0.000 C 
ATOM      9  C   UNL     1      -1.036  11.273  22.806  0.00  0.00    +0.000 C 
ATOM     10  C   UNL     1      -0.665  11.304  21.319  0.00  0.00    +0.000 C 
ATOM     11  C   UNL     1      -1.873  11.557  20.379  0.00  0.00    +0.000 C 
ATOM     12  C   UNL     1      -1.388  11.571  18.899  0.00  0.00    +0.000 C 
ATOM     13  C   UNL     1      -0.609  10.283  18.495  0.00  0.00    +0.000 C 
ATOM     14  C   UNL     1       0.542   9.952  19.466  0.00  0.00    +0.000 C 
ATOM     15  C   UNL     1       1.685  10.976  19.275  0.00  0.00    +0.000 C 
ATOM     16  C   UNL     1       1.099   8.468  19.434  0.00  0.00    +0.000 C 
ATOM     17  C   UNL     1       1.438   8.190  20.922  0.00  0.00    +0.000 C 
ATOM     18  C   UNL     1       0.990   9.372  21.762  0.00  0.00    +0.000 C 
ATOM     19  C   UNL     1      -0.077   9.966  20.886  0.00  0.00    +0.000 C 
ENDROOT
BRANCH   5  20
ATOM     20  O   UNL     1      -6.281  14.572  22.544  0.00  0.00    +0.000 OA
ATOM     21  H   UNL     1      -6.017  15.418  22.148  0.00  0.00    +0.000 HD
ENDBRANCH   5  20
BRANCH  16  22
ATOM     22  C   UNL     1       2.279   8.133  18.486  0.00  0.00    +0.000 C 
BRANCH  22  23
ATOM     23  O   UNL     1       2.264   9.064  17.393  0.00  0.00    +0.000 OA
ATOM     24  H   UNL     1       2.576   9.930  17.725  0.00  0.00    +0.000 HD
ENDBRANCH  22  23
BRANCH  22  25
ATOM     25  C   UNL     1       2.361   6.713  17.830  0.00  0.00    +0.000 C 
BRANCH  25  26
ATOM     26  C   UNL     1       3.062   5.518  18.550  0.00  0.00    +0.000 C 
BRANCH  26  27
ATOM     27  C   UNL     1       2.034   4.474  19.018  0.00  0.00    +0.000 C 
ATOM     28  F   UNL     1       1.085   4.220  18.096  0.00  0.00    +0.000 F 
ATOM     29  F   UNL     1       2.560   3.304  19.426  0.00  0.00    +0.000 F 
ATOM     30  F   UNL     1       1.377   4.982  20.106  0.00  0.00    +0.000 F 
ENDBRANCH  26  27
BRANCH  26  31
ATOM     31  C   UNL     1       4.074   4.779  17.656  0.00  0.00    +0.000 C 
ATOM     32  F   UNL     1       4.963   4.048  18.368  0.00  0.00    +0.000 F 
ATOM     33  F   UNL     1       3.446   3.902  16.833  0.00  0.00    +0.000 F 
ATOM     34  F   UNL     1       4.817   5.587  16.874  0.00  0.00    +0.000 F 
ENDBRANCH  26  31
BRANCH  26  35
ATOM     35  O   UNL     1       3.663   6.057  19.767  0.00  0.00    +0.000 OA
ATOM     36  H   UNL     1       4.633   5.925  19.715  0.00  0.00    +0.000 HD
ENDBRANCH  26  35
ENDBRANCH  25  26
ENDBRANCH  22  25
ENDBRANCH  16  22
TORSDOF 8
ENDMDL
MODEL 3
REMARK VINA RESULT:      -7.7      5.566      9.280
REMARK  Name = 
REMARK  10 active torsions:
REMARK  status: ('A' for Active; 'I' for Inactive)
REMARK    1  A    between atoms: C_1  and  C_2
REMARK    2  A    between atoms: C_5  and  O_6
REMARK    3  A    between atoms: C_15  and  C_16
REMARK    4  A    between atoms: C_17  and  C_18
REMARK    5  A    between atoms: C_18  and  O_19
REMARK    6  A    between atoms: C_18  and  C_20
REMARK    7  A    between atoms: C_20  and  C_21
REMARK    8  A    between atoms: C_21  and  O_22
REMARK    9  A    between atoms: C_21  and  C_23
REMARK   10  A    between atoms: C_21  and  C_27
REMARK                            x       y       z     vdW  Elec       q    Type
REMARK                         _______ _______ _______ _____ _____    ______ ____
ROOT
ATOM      1  C   UNL     1       1.746   5.057  17.787  0.00  0.00    +0.000 C 
ATOM      2  C   UNL     1       2.826   5.691  18.693  0.00  0.00    +0.000 C 
ATOM      3  C   UNL     1       4.222   5.474  18.048  0.00  0.00    +0.000 C 
ATOM      4  C   UNL     1       4.692   4.007  18.092  0.00  0.00    +0.000 C 
ATOM      5  C   UNL     1       4.642   3.420  19.488  0.00  0.00    +0.000 C 
ATOM      6  C   UNL     1       3.262   3.578  20.123  0.00  0.00    +0.000 C 
ATOM      7  C   UNL     1       2.846   5.052  20.123  0.00  0.00    +0.000 C 
ATOM      8  C   UNL     1       1.533   5.252  20.875  0.00  0.00    +0.000 C 
ATOM      9  C   UNL     1       1.276   6.734  21.058  0.00  0.00    +0.000 C 
ATOM     10  C   UNL     1       1.311   7.523  19.744  0.00  0.00    +0.000 C 
ATOM     11  C   UNL     1       2.563   7.232  18.874  0.00  0.00    +0.000 C 
ATOM     12  C   UNL     1       2.499   8.080  17.569  0.00  0.00    +0.000 C 
ATOM     13  C   UNL     1       2.330   9.606  17.836  0.00  0.00    +0.000 C 
ATOM     14  C   UNL     1       1.149   9.922  18.775  0.00  0.00    +0.000 C 
ATOM     15  C   UNL     1      -0.182   9.675  18.028  0.00  0.00    +0.000 C 
ATOM     16  C   UNL     1       1.153  11.345  19.473  0.00  0.00    +0.000 C 
ATOM     17  C   UNL     1       0.556  11.049  20.874  0.00  0.00    +0.000 C 
ATOM     18  C   UNL     1       0.349   9.552  21.019  0.00  0.00    +0.000 C 
ATOM     19  C   UNL     1       1.340   9.021  20.022  0.00  0.00    +0.000 C 
ENDROOT
BRANCH   5  20
ATOM     20  O   UNL     1       4.984   2.034  19.439  0.00  0.00    +0.000 OA
ATOM     21  H   UNL     1       4.388   1.601  18.807  0.00  0.00    +0.000 HD
ENDBRANCH   5  20
BRANCH  16  22
ATOM     22  C   UNL     1       0.439  12.525  18.765  0.00  0.00    +0.000 C 
BRANCH  22  23
ATOM     23  O   UNL     1       1.316  13.048  17.755  0.00  0.00    +0.000 OA
ATOM     24  H   UNL     1       1.847  13.766  18.153  0.00  0.00    +0.000 HD
ENDBRANCH  22  23
BRANCH  22  25
ATOM     25  C   UNL     1      -0.020  13.764  19.608  0.00  0.00    +0.000 C 
BRANCH  25  26
ATOM     26  C   UNL     1       1.011  14.751  20.242  0.00  0.00    +0.000 C 
BRANCH  26  27
ATOM     27  C   UNL     1       0.978  16.116  19.535  0.00  0.00    +0.000 C 
ATOM     28  F   UNL     1      -0.265  16.492  19.173  0.00  0.00    +0.000 F 
ATOM     29  F   UNL     1       1.548  17.124  20.220  0.00  0.00    +0.000 F 
ATOM     30  F   UNL     1       1.693  16.011  18.372  0.00  0.00    +0.000 F 
ENDBRANCH  26  27
BRANCH  26  31
ATOM     31  C   UNL     1       0.759  15.016  21.737  0.00  0.00    +0.000 C 
ATOM     32  F   UNL     1       0.312  13.920  22.393  0.00  0.00    +0.000 F 
ATOM     33  F   UNL     1       1.904  15.383  22.365  0.00  0.00    +0.000 F 
ATOM     34  F   UNL     1      -0.150  15.980  21.983  0.00  0.00    +0.000 F 
ENDBRANCH  26  31
BRANCH  26  35
ATOM     35  O   UNL     1       2.337  14.198  19.976  0.00  0.00    +0.000 OA
ATOM     36  H   UNL     1       2.978  14.637  20.573  0.00  0.00    +0.000 HD
ENDBRANCH  26  35
ENDBRANCH  25  26
ENDBRANCH  22  25
ENDBRANCH  16  22
TORSDOF 8
ENDMDL
MODEL 4
REMARK VINA RESULT:      -7.7      5.764      9.676
REMARK  Name = 
REMARK  10 active torsions:
REMARK  status: ('A' for Active; 'I' for Inactive)
REMARK    1  A    between atoms: C_1  and  C_2
REMARK    2  A    between atoms: C_5  and  O_6
REMARK    3  A    between atoms: C_15  and  C_16
REMARK    4  A    between atoms: C_17  and  C_18
REMARK    5  A    between atoms: C_18  and  O_19
REMARK    6  A    between atoms: C_18  and  C_20
REMARK    7  A    between atoms: C_20  and  C_21
REMARK    8  A    between atoms: C_21  and  O_22
REMARK    9  A    between atoms: C_21  and  C_23
REMARK   10  A    between atoms: C_21  and  C_27
REMARK                            x       y       z     vdW  Elec       q    Type
REMARK                         _______ _______ _______ _____ _____    ______ ____
ROOT
ATOM      1  C   UNL     1       1.640   5.029  17.829  0.00  0.00    +0.000 C 
ATOM      2  C   UNL     1       2.763   5.635  18.701  0.00  0.00    +0.000 C 
ATOM      3  C   UNL     1       4.130   5.400  18.003  0.00  0.00    +0.000 C 
ATOM      4  C   UNL     1       4.575   3.925  18.015  0.00  0.00    +0.000 C 
ATOM      5  C   UNL     1       4.566   3.324  19.405  0.00  0.00    +0.000 C 
ATOM      6  C   UNL     1       3.214   3.498  20.092  0.00  0.00    +0.000 C 
ATOM      7  C   UNL     1       2.824   4.979  20.123  0.00  0.00    +0.000 C 
ATOM      8  C   UNL     1       1.543   5.193  20.925  0.00  0.00    +0.000 C 
ATOM      9  C   UNL     1       1.319   6.677  21.133  0.00  0.00    +0.000 C 
ATOM     10  C   UNL     1       1.320   7.480  19.827  0.00  0.00    +0.000 C 
ATOM     11  C   UNL     1       2.534   7.177  18.908  0.00  0.00    +0.000 C 
ATOM     12  C   UNL     1       2.437   8.041  17.616  0.00  0.00    +0.000 C 
ATOM     13  C   UNL     1       2.305   9.567  17.905  0.00  0.00    +0.000 C 
ATOM     14  C   UNL     1       1.165   9.893  18.890  0.00  0.00    +0.000 C 
ATOM     15  C   UNL     1      -0.197   9.677  18.189  0.00  0.00    +0.000 C 
ATOM     16  C   UNL     1       1.219  11.308  19.602  0.00  0.00    +0.000 C 
ATOM     17  C   UNL     1       0.669  11.006  21.021  0.00  0.00    +0.000 C 
ATOM     18  C   UNL     1       0.441   9.511  21.157  0.00  0.00    +0.000 C 
ATOM     19  C   UNL     1       1.385   8.975  20.119  0.00  0.00    +0.000 C 
ENDROOT
BRANCH   5  20
ATOM     20  O   UNL     1       4.882   1.932  19.329  0.00  0.00    +0.000 OA
ATOM     21  H   UNL     1       4.121   1.434  19.669  0.00  0.00    +0.000 HD
ENDBRANCH   5  20
BRANCH  16  22
ATOM     22  C   UNL     1       0.501  12.508  18.934  0.00  0.00    +0.000 C 
BRANCH  22  23
ATOM     23  O   UNL     1       1.231  12.875  17.753  0.00  0.00    +0.000 OA
ATOM     24  H   UNL     1       0.652  12.732  16.978  0.00  0.00    +0.000 HD
ENDBRANCH  22  23
BRANCH  22  25
ATOM     25  C   UNL     1       0.308  13.837  19.741  0.00  0.00    +0.000 C 
BRANCH  25  26
ATOM     26  C   UNL     1      -1.107  14.327  20.184  0.00  0.00    +0.000 C 
BRANCH  26  27
ATOM     27  C   UNL     1      -1.386  13.958  21.651  0.00  0.00    +0.000 C 
ATOM     28  F   UNL     1      -0.270  13.917  22.405  0.00  0.00    +0.000 F 
ATOM     29  F   UNL     1      -2.293  14.736  22.268  0.00  0.00    +0.000 F 
ATOM     30  F   UNL     1      -1.908  12.692  21.679  0.00  0.00    +0.000 F 
ENDBRANCH  26  27
BRANCH  26  31
ATOM     31  C   UNL     1      -1.287  15.851  20.065  0.00  0.00    +0.000 C 
ATOM     32  F   UNL     1      -2.577  16.236  20.203  0.00  0.00    +0.000 F 
ATOM     33  F   UNL     1      -0.600  16.499  21.039  0.00  0.00    +0.000 F 
ATOM     34  F   UNL     1      -0.881  16.367  18.888  0.00  0.00    +0.000 F 
ENDBRANCH  26  31
BRANCH  26  35
ATOM     35  O   UNL     1      -2.077  13.574  19.393  0.00  0.00    +0.000 OA
ATOM     36  H   UNL     1      -2.694  13.126  20.009  0.00  0.00    +0.000 HD
ENDBRANCH  26  35
ENDBRANCH  25  26
ENDBRANCH  22  25
ENDBRANCH  16  22
TORSDOF 8
ENDMDL
MODEL 5
REMARK VINA RESULT:      -7.7      2.434      3.987
REMARK  Name = 
REMARK  10 active torsions:
REMARK  status: ('A' for Active; 'I' for Inactive)
REMARK    1  A    between atoms: C_1  and  C_2
REMARK    2  A    between atoms: C_5  and  O_6
REMARK    3  A    between atoms: C_15  and  C_16
REMARK    4  A    between atoms: C_17  and  C_18
REMARK    5  A    between atoms: C_18  and  O_19
REMARK    6  A    between atoms: C_18  and  C_20
REMARK    7  A    between atoms: C_20  and  C_21
REMARK    8  A    between atoms: C_21  and  O_22
REMARK    9  A    between atoms: C_21  and  C_23
REMARK   10  A    between atoms: C_21  and  C_27
REMARK                            x       y       z     vdW  Elec       q    Type
REMARK                         _______ _______ _______ _____ _____    ______ ____
ROOT
ATOM      1  C   UNL     1      -2.072  14.149  20.651  0.00  0.00    +0.000 C 
ATOM      2  C   UNL     1      -2.813  12.812  20.880  0.00  0.00    +0.000 C 
ATOM      3  C   UNL     1      -4.144  12.825  20.080  0.00  0.00    +0.000 C 
ATOM      4  C   UNL     1      -5.194  13.793  20.659  0.00  0.00    +0.000 C 
ATOM      5  C   UNL     1      -5.450  13.562  22.134  0.00  0.00    +0.000 C 
ATOM      6  C   UNL     1      -4.159  13.596  22.948  0.00  0.00    +0.000 C 
ATOM      7  C   UNL     1      -3.157  12.581  22.392  0.00  0.00    +0.000 C 
ATOM      8  C   UNL     1      -1.912  12.498  23.272  0.00  0.00    +0.000 C 
ATOM      9  C   UNL     1      -1.057  11.329  22.829  0.00  0.00    +0.000 C 
ATOM     10  C   UNL     1      -0.704  11.364  21.338  0.00  0.00    +0.000 C 
ATOM     11  C   UNL     1      -1.928  11.599  20.412  0.00  0.00    +0.000 C 
ATOM     12  C   UNL     1      -1.460  11.618  18.926  0.00  0.00    +0.000 C 
ATOM     13  C   UNL     1      -0.670  10.340  18.515  0.00  0.00    +0.000 C 
ATOM     14  C   UNL     1       0.498  10.025  19.471  0.00  0.00    +0.000 C 
ATOM     15  C   UNL     1       1.625  11.064  19.266  0.00  0.00    +0.000 C 
ATOM     16  C   UNL     1       1.073   8.548  19.434  0.00  0.00    +0.000 C 
ATOM     17  C   UNL     1       1.434   8.277  20.918  0.00  0.00    +0.000 C 
ATOM     18  C   UNL     1       0.980   9.454  21.763  0.00  0.00    +0.000 C 
ATOM     19  C   UNL     1      -0.104  10.033  20.899  0.00  0.00    +0.000 C 
ENDROOT
BRANCH   5  20
ATOM     20  O   UNL     1      -6.348  14.559  22.628  0.00  0.00    +0.000 OA
ATOM     21  H   UNL     1      -7.254  14.261  22.446  0.00  0.00    +0.000 HD
ENDBRANCH   5  20
BRANCH  16  22
ATOM     22  C   UNL     1       2.246   8.228  18.473  0.00  0.00    +0.000 C 
BRANCH  22  23
ATOM     23  O   UNL     1       2.158   9.104  17.338  0.00  0.00    +0.000 OA
ATOM     24  H   UNL     1       1.311   9.591  17.394  0.00  0.00    +0.000 HD
ENDBRANCH  22  23
BRANCH  22  25
ATOM     25  C   UNL     1       2.386   6.784  17.881  0.00  0.00    +0.000 C 
BRANCH  25  26
ATOM     26  C   UNL     1       3.549   5.834  18.307  0.00  0.00    +0.000 C 
BRANCH  26  27
ATOM     27  C   UNL     1       3.133   4.358  18.182  0.00  0.00    +0.000 C 
ATOM     28  F   UNL     1       3.268   3.878  16.930  0.00  0.00    +0.000 F 
ATOM     29  F   UNL     1       3.752   3.520  19.033  0.00  0.00    +0.000 F 
ATOM     30  F   UNL     1       1.799   4.266  18.479  0.00  0.00    +0.000 F 
ENDBRANCH  26  27
BRANCH  26  31
ATOM     31  C   UNL     1       4.821   6.012  17.460  0.00  0.00    +0.000 C 
ATOM     32  F   UNL     1       4.556   6.128  16.139  0.00  0.00    +0.000 F 
ATOM     33  F   UNL     1       5.481   7.146  17.807  0.00  0.00    +0.000 F 
ATOM     34  F   UNL     1       5.703   4.999  17.564  0.00  0.00    +0.000 F 
ENDBRANCH  26  31
BRANCH  26  35
ATOM     35  O   UNL     1       3.775   6.063  19.732  0.00  0.00    +0.000 OA
ATOM     36  H   UNL     1       3.760   7.029  19.893  0.00  0.00    +0.000 HD
ENDBRANCH  26  35
ENDBRANCH  25  26
ENDBRANCH  22  25
ENDBRANCH  16  22
TORSDOF 8
ENDMDL
MODEL 6
REMARK VINA RESULT:      -7.6      0.753      1.028
REMARK  Name = 
REMARK  10 active torsions:
REMARK  status: ('A' for Active; 'I' for Inactive)
REMARK    1  A    between atoms: C_1  and  C_2
REMARK    2  A    between atoms: C_5  and  O_6
REMARK    3  A    between atoms: C_15  and  C_16
REMARK    4  A    between atoms: C_17  and  C_18
REMARK    5  A    between atoms: C_18  and  O_19
REMARK    6  A    between atoms: C_18  and  C_20
REMARK    7  A    between atoms: C_20  and  C_21
REMARK    8  A    between atoms: C_21  and  O_22
REMARK    9  A    between atoms: C_21  and  C_23
REMARK   10  A    between atoms: C_21  and  C_27
REMARK                            x       y       z     vdW  Elec       q    Type
REMARK                         _______ _______ _______ _____ _____    ______ ____
ROOT
ATOM      1  C   UNL     1       1.565  11.698  20.368  0.00  0.00    +0.000 C 
ATOM      2  C   UNL     1       0.289  10.864  20.111  0.00  0.00    +0.000 C 
ATOM      3  C   UNL     1      -0.640  11.644  19.140  0.00  0.00    +0.000 C 
ATOM      4  C   UNL     1      -1.282  12.890  19.780  0.00  0.00    +0.000 C 
ATOM      5  C   UNL     1      -1.996  12.577  21.079  0.00  0.00    +0.000 C 
ATOM      6  C   UNL     1      -1.085  11.855  22.069  0.00  0.00    +0.000 C 
ATOM      7  C   UNL     1      -0.510  10.587  21.431  0.00  0.00    +0.000 C 
ATOM      8  C   UNL     1       0.293   9.777  22.445  0.00  0.00    +0.000 C 
ATOM      9  C   UNL     1       0.644   8.428  21.850  0.00  0.00    +0.000 C 
ATOM     10  C   UNL     1       1.361   8.529  20.498  0.00  0.00    +0.000 C 
ATOM     11  C   UNL     1       0.654   9.468  19.485  0.00  0.00    +0.000 C 
ATOM     12  C   UNL     1       1.461   9.499  18.153  0.00  0.00    +0.000 C 
ATOM     13  C   UNL     1       1.702   8.083  17.548  0.00  0.00    +0.000 C 
ATOM     14  C   UNL     1       2.317   7.096  18.561  0.00  0.00    +0.000 C 
ATOM     15  C   UNL     1       3.791   7.484  18.823  0.00  0.00    +0.000 C 
ATOM     16  C   UNL     1       2.187   5.553  18.224  0.00  0.00    +0.000 C 
ATOM     17  C   UNL     1       1.986   4.907  19.620  0.00  0.00    +0.000 C 
ATOM     18  C   UNL     1       1.876   6.004  20.664  0.00  0.00    +0.000 C 
ATOM     19  C   UNL     1       1.421   7.163  19.823  0.00  0.00    +0.000 C 
ENDROOT
BRANCH   5  20
ATOM     20  O   UNL     1      -2.471  13.788  21.670  0.00  0.00    +0.000 OA
ATOM     21  H   UNL     1      -3.176  14.140  21.102  0.00  0.00    +0.000 HD
ENDBRANCH   5  20
BRANCH  16  22
ATOM     22  C   UNL     1       3.317   4.867  17.414  0.00  0.00    +0.000 C 
BRANCH  22  23
ATOM     23  O   UNL     1       2.943   3.501  17.178  0.00  0.00    +0.000 OA
ATOM     24  H   UNL     1       2.414   3.467  16.356  0.00  0.00    +0.000 HD
ENDBRANCH  22  23
BRANCH  22  25
ATOM     25  C   UNL     1       4.766   4.813  18.007  0.00  0.00    +0.000 C 
BRANCH  25  26
ATOM     26  C   UNL     1       6.021   4.671  17.089  0.00  0.00    +0.000 C 
BRANCH  26  27
ATOM     27  C   UNL     1       5.945   5.636  15.894  0.00  0.00    +0.000 C 
ATOM     28  F   UNL     1       7.107   5.730  15.217  0.00  0.00    +0.000 F 
ATOM     29  F   UNL     1       4.958   5.375  15.017  0.00  0.00    +0.000 F 
ATOM     30  F   UNL     1       5.686   6.891  16.376  0.00  0.00    +0.000 F 
ENDBRANCH  26  27
BRANCH  26  31
ATOM     31  C   UNL     1       7.344   4.967  17.818  0.00  0.00    +0.000 C 
ATOM     32  F   UNL     1       7.844   6.187  17.517  0.00  0.00    +0.000 F 
ATOM     33  F   UNL     1       7.169   4.959  19.163  0.00  0.00    +0.000 F 
ATOM     34  F   UNL     1       8.334   4.094  17.546  0.00  0.00    +0.000 F 
ENDBRANCH  26  31
BRANCH  26  35
ATOM     35  O   UNL     1       5.972   3.327  16.519  0.00  0.00    +0.000 OA
ATOM     36  H   UNL     1       6.446   2.720  17.125  0.00  0.00    +0.000 HD
ENDBRANCH  26  35
ENDBRANCH  25  26
ENDBRANCH  22  25
ENDBRANCH  16  22
TORSDOF 8
ENDMDL
MODEL 7
REMARK VINA RESULT:      -7.6      5.479      9.441
REMARK  Name = 
REMARK  10 active torsions:
REMARK  status: ('A' for Active; 'I' for Inactive)
REMARK    1  A    between atoms: C_1  and  C_2
REMARK    2  A    between atoms: C_5  and  O_6
REMARK    3  A    between atoms: C_15  and  C_16
REMARK    4  A    between atoms: C_17  and  C_18
REMARK    5  A    between atoms: C_18  and  O_19
REMARK    6  A    between atoms: C_18  and  C_20
REMARK    7  A    between atoms: C_20  and  C_21
REMARK    8  A    between atoms: C_21  and  O_22
REMARK    9  A    between atoms: C_21  and  C_23
REMARK   10  A    between atoms: C_21  and  C_27
REMARK                            x       y       z     vdW  Elec       q    Type
REMARK                         _______ _______ _______ _____ _____    ______ ____
ROOT
ATOM      1  C   UNL     1       1.634   5.095  17.831  0.00  0.00    +0.000 C 
ATOM      2  C   UNL     1       2.769   5.712  18.679  0.00  0.00    +0.000 C 
ATOM      3  C   UNL     1       4.122   5.504  17.946  0.00  0.00    +0.000 C 
ATOM      4  C   UNL     1       4.590   4.036  17.936  0.00  0.00    +0.000 C 
ATOM      5  C   UNL     1       4.625   3.425  19.322  0.00  0.00    +0.000 C 
ATOM      6  C   UNL     1       3.287   3.574  20.043  0.00  0.00    +0.000 C 
ATOM      7  C   UNL     1       2.875   5.048  20.095  0.00  0.00    +0.000 C 
ATOM      8  C   UNL     1       1.611   5.237  20.929  0.00  0.00    +0.000 C 
ATOM      9  C   UNL     1       1.370   6.716  21.153  0.00  0.00    +0.000 C 
ATOM     10  C   UNL     1       1.326   7.527  19.853  0.00  0.00    +0.000 C 
ATOM     11  C   UNL     1       2.521   7.250  18.902  0.00  0.00    +0.000 C 
ATOM     12  C   UNL     1       2.379   8.120  17.619  0.00  0.00    +0.000 C 
ATOM     13  C   UNL     1       2.230   9.641  17.921  0.00  0.00    +0.000 C 
ATOM     14  C   UNL     1       1.110   9.943  18.937  0.00  0.00    +0.000 C 
ATOM     15  C   UNL     1      -0.265   9.711  18.268  0.00  0.00    +0.000 C 
ATOM     16  C   UNL     1       1.160  11.354  19.658  0.00  0.00    +0.000 C 
ATOM     17  C   UNL     1       0.650  11.034  21.088  0.00  0.00    +0.000 C 
ATOM     18  C   UNL     1       0.449   9.535  21.219  0.00  0.00    +0.000 C 
ATOM     19  C   UNL     1       1.375   9.021  20.154  0.00  0.00    +0.000 C 
ENDROOT
BRANCH   5  20
ATOM     20  O   UNL     1       4.961   2.040  19.228  0.00  0.00    +0.000 OA
ATOM     21  H   UNL     1       5.901   1.945  19.449  0.00  0.00    +0.000 HD
ENDBRANCH   5  20
BRANCH  16  22
ATOM     22  C   UNL     1       0.407  12.547  19.015  0.00  0.00    +0.000 C 
BRANCH  22  23
ATOM     23  O   UNL     1       1.167  13.013  17.890  0.00  0.00    +0.000 OA
ATOM     24  H   UNL     1       2.096  13.128  18.175  0.00  0.00    +0.000 HD
ENDBRANCH  22  23
BRANCH  22  25
ATOM     25  C   UNL     1       0.105  13.821  19.877  0.00  0.00    +0.000 C 
BRANCH  25  26
ATOM     26  C   UNL     1      -1.329  14.124  20.416  0.00  0.00    +0.000 C 
BRANCH  26  27
ATOM     27  C   UNL     1      -2.287  12.956  20.125  0.00  0.00    +0.000 C 
ATOM     28  F   UNL     1      -2.173  12.482  18.869  0.00  0.00    +0.000 F 
ATOM     29  F   UNL     1      -2.200  11.924  20.984  0.00  0.00    +0.000 F 
ATOM     30  F   UNL     1      -3.570  13.421  20.237  0.00  0.00    +0.000 F 
ENDBRANCH  26  27
BRANCH  26  31
ATOM     31  C   UNL     1      -1.369  14.367  21.935  0.00  0.00    +0.000 C 
ATOM     32  F   UNL     1      -0.861  15.571  22.284  0.00  0.00    +0.000 F 
ATOM     33  F   UNL     1      -2.645  14.354  22.396  0.00  0.00    +0.000 F 
ATOM     34  F   UNL     1      -0.681  13.461  22.659  0.00  0.00    +0.000 F 
ENDBRANCH  26  31
BRANCH  26  35
ATOM     35  O   UNL     1      -1.835  15.255  19.643  0.00  0.00    +0.000 OA
ATOM     36  H   UNL     1      -1.123  15.561  19.044  0.00  0.00    +0.000 HD
ENDBRANCH  26  35
ENDBRANCH  25  26
ENDBRANCH  22  25
ENDBRANCH  16  22
TORSDOF 8
ENDMDL
MODEL 8
REMARK VINA RESULT:      -7.6      5.342      9.012
REMARK  Name = 
REMARK  10 active torsions:
REMARK  status: ('A' for Active; 'I' for Inactive)
REMARK    1  A    between atoms: C_1  and  C_2
REMARK    2  A    between atoms: C_5  and  O_6
REMARK    3  A    between atoms: C_15  and  C_16
REMARK    4  A    between atoms: C_17  and  C_18
REMARK    5  A    between atoms: C_18  and  O_19
REMARK    6  A    between atoms: C_18  and  C_20
REMARK    7  A    between atoms: C_20  and  C_21
REMARK    8  A    between atoms: C_21  and  O_22
REMARK    9  A    between atoms: C_21  and  C_23
REMARK   10  A    between atoms: C_21  and  C_27
REMARK                            x       y       z     vdW  Elec       q    Type
REMARK                         _______ _______ _______ _____ _____    ______ ____
ROOT
ATOM      1  C   UNL     1       1.665   5.505  17.757  0.00  0.00    +0.000 C 
ATOM      2  C   UNL     1       2.749   6.147  18.653  0.00  0.00    +0.000 C 
ATOM      3  C   UNL     1       4.129   6.018  17.952  0.00  0.00    +0.000 C 
ATOM      4  C   UNL     1       4.662   4.573  17.914  0.00  0.00    +0.000 C 
ATOM      5  C   UNL     1       4.687   3.924  19.283  0.00  0.00    +0.000 C 
ATOM      6  C   UNL     1       3.326   3.994  19.971  0.00  0.00    +0.000 C 
ATOM      7  C   UNL     1       2.848   5.447  20.052  0.00  0.00    +0.000 C 
ATOM      8  C   UNL     1       1.556   5.556  20.857  0.00  0.00    +0.000 C 
ATOM      9  C   UNL     1       1.243   7.017  21.115  0.00  0.00    +0.000 C 
ATOM     10  C   UNL     1       1.198   7.863  19.837  0.00  0.00    +0.000 C 
ATOM     11  C   UNL     1       2.428   7.665  18.912  0.00  0.00    +0.000 C 
ATOM     12  C   UNL     1       2.281   8.565  17.650  0.00  0.00    +0.000 C 
ATOM     13  C   UNL     1       2.058  10.069  17.991  0.00  0.00    +0.000 C 
ATOM     14  C   UNL     1       0.900  10.293  18.983  0.00  0.00    +0.000 C 
ATOM     15  C   UNL     1      -0.446  10.020  18.271  0.00  0.00    +0.000 C 
ATOM     16  C   UNL     1       0.868  11.683  19.744  0.00  0.00    +0.000 C 
ATOM     17  C   UNL     1       0.336  11.300  21.150  0.00  0.00    +0.000 C 
ATOM     18  C   UNL     1       0.197   9.791  21.234  0.00  0.00    +0.000 C 
ATOM     19  C   UNL     1       1.173   9.348  20.181  0.00  0.00    +0.000 C 
ENDROOT
BRANCH   5  20
ATOM     20  O   UNL     1       5.086   2.558  19.160  0.00  0.00    +0.000 OA
ATOM     21  H   UNL     1       4.608   2.174  18.407  0.00  0.00    +0.000 HD
ENDBRANCH   5  20
BRANCH  16  22
ATOM     22  C   UNL     1       0.081  12.860  19.114  0.00  0.00    +0.000 C 
BRANCH  22  23
ATOM     23  O   UNL     1       0.413  12.937  17.720  0.00  0.00    +0.000 OA
ATOM     24  H   UNL     1      -0.292  13.439  17.265  0.00  0.00    +0.000 HD
ENDBRANCH  22  23
BRANCH  22  25
ATOM     25  C   UNL     1       0.281  14.309  19.677  0.00  0.00    +0.000 C 
BRANCH  25  26
ATOM     26  C   UNL     1       1.699  14.954  19.792  0.00  0.00    +0.000 C 
BRANCH  26  27
ATOM     27  C   UNL     1       1.622  16.485  19.672  0.00  0.00    +0.000 C 
ATOM     28  F   UNL     1       1.107  17.074  20.769  0.00  0.00    +0.000 F 
ATOM     29  F   UNL     1       2.785  17.089  19.366  0.00  0.00    +0.000 F 
ATOM     30  F   UNL     1       0.769  16.788  18.645  0.00  0.00    +0.000 F 
ENDBRANCH  26  27
BRANCH  26  31
ATOM     31  C   UNL     1       2.400  14.645  21.127  0.00  0.00    +0.000 C 
ATOM     32  F   UNL     1       3.259  15.621  21.503  0.00  0.00    +0.000 F 
ATOM     33  F   UNL     1       1.499  14.534  22.135  0.00  0.00    +0.000 F 
ATOM     34  F   UNL     1       3.126  13.509  21.122  0.00  0.00    +0.000 F 
ENDBRANCH  26  31
BRANCH  26  35
ATOM     35  O   UNL     1       2.459  14.501  18.630  0.00  0.00    +0.000 OA
ATOM     36  H   UNL     1       1.847  14.445  17.866  0.00  0.00    +0.000 HD
ENDBRANCH  26  35
ENDBRANCH  25  26
ENDBRANCH  22  25
ENDBRANCH  16  22
TORSDOF 8
ENDMDL
MODEL 9
REMARK VINA RESULT:      -7.5      5.732      9.560
REMARK  Name = 
REMARK  10 active torsions:
REMARK  status: ('A' for Active; 'I' for Inactive)
REMARK    1  A    between atoms: C_1  and  C_2
REMARK    2  A    between atoms: C_5  and  O_6
REMARK    3  A    between atoms: C_15  and  C_16
REMARK    4  A    between atoms: C_17  and  C_18
REMARK    5  A    between atoms: C_18  and  O_19
REMARK    6  A    between atoms: C_18  and  C_20
REMARK    7  A    between atoms: C_20  and  C_21
REMARK    8  A    between atoms: C_21  and  O_22
REMARK    9  A    between atoms: C_21  and  C_23
REMARK   10  A    between atoms: C_21  and  C_27
REMARK                            x       y       z     vdW  Elec       q    Type
REMARK                         _______ _______ _______ _____ _____    ______ ____
ROOT
ATOM      1  C   UNL     1       1.579   5.002  17.703  0.00  0.00    +0.000 C 
ATOM      2  C   UNL     1       2.713   5.536  18.607  0.00  0.00    +0.000 C 
ATOM      3  C   UNL     1       4.079   5.274  17.916  0.00  0.00    +0.000 C 
ATOM      4  C   UNL     1       4.469   3.784  17.881  0.00  0.00    +0.000 C 
ATOM      5  C   UNL     1       4.421   3.136  19.250  0.00  0.00    +0.000 C 
ATOM      6  C   UNL     1       3.068   3.337  19.928  0.00  0.00    +0.000 C 
ATOM      7  C   UNL     1       2.733   4.830  20.006  0.00  0.00    +0.000 C 
ATOM      8  C   UNL     1       1.451   5.064  20.801  0.00  0.00    +0.000 C 
ATOM      9  C   UNL     1       1.280   6.548  21.057  0.00  0.00    +0.000 C 
ATOM     10  C   UNL     1       1.327   7.395  19.780  0.00  0.00    +0.000 C 
ATOM     11  C   UNL     1       2.539   7.078  18.864  0.00  0.00    +0.000 C 
ATOM     12  C   UNL     1       2.490   7.988  17.601  0.00  0.00    +0.000 C 
ATOM     13  C   UNL     1       2.411   9.507  17.941  0.00  0.00    +0.000 C 
ATOM     14  C   UNL     1       1.273   9.842  18.926  0.00  0.00    +0.000 C 
ATOM     15  C   UNL     1      -0.088   9.701  18.203  0.00  0.00    +0.000 C 
ATOM     16  C   UNL     1       1.371  11.228  19.686  0.00  0.00    +0.000 C 
ATOM     17  C   UNL     1       0.793  10.899  21.088  0.00  0.00    +0.000 C 
ATOM     18  C   UNL     1       0.508   9.410  21.170  0.00  0.00    +0.000 C 
ATOM     19  C   UNL     1       1.444   8.875  20.125  0.00  0.00    +0.000 C 
ENDROOT
BRANCH   5  20
ATOM     20  O   UNL     1       4.686   1.737  19.129  0.00  0.00    +0.000 OA
ATOM     21  H   UNL     1       5.555   1.563  19.525  0.00  0.00    +0.000 HD
ENDBRANCH   5  20
BRANCH  16  22
ATOM     22  C   UNL     1       0.706  12.477  19.052  0.00  0.00    +0.000 C 
BRANCH  22  23
ATOM     23  O   UNL     1       1.454  12.847  17.884  0.00  0.00    +0.000 OA
ATOM     24  H   UNL     1       2.276  13.291  18.176  0.00  0.00    +0.000 HD
ENDBRANCH  22  23
BRANCH  22  25
ATOM     25  C   UNL     1       0.566  13.788  19.898  0.00  0.00    +0.000 C 
BRANCH  25  26
ATOM     26  C   UNL     1      -0.031  15.096  19.288  0.00  0.00    +0.000 C 
BRANCH  26  27
ATOM     27  C   UNL     1      -1.143  15.667  20.184  0.00  0.00    +0.000 C 
ATOM     28  F   UNL     1      -0.679  16.164  21.347  0.00  0.00    +0.000 F 
ATOM     29  F   UNL     1      -1.921  16.597  19.599  0.00  0.00    +0.000 F 
ATOM     30  F   UNL     1      -1.986  14.642  20.521  0.00  0.00    +0.000 F 
ENDBRANCH  26  27
BRANCH  26  31
ATOM     31  C   UNL     1       1.012  16.213  19.104  0.00  0.00    +0.000 C 
ATOM     32  F   UNL     1       1.799  16.375  20.193  0.00  0.00    +0.000 F 
ATOM     33  F   UNL     1       1.852  15.929  18.077  0.00  0.00    +0.000 F 
ATOM     34  F   UNL     1       0.485  17.428  18.855  0.00  0.00    +0.000 F 
ENDBRANCH  26  31
BRANCH  26  35
ATOM     35  O   UNL     1      -0.684  14.714  18.038  0.00  0.00    +0.000 OA
ATOM     36  H   UNL     1       0.008  14.604  17.352  0.00  0.00    +0.000 HD
ENDBRANCH  26  35
ENDBRANCH  25  26
ENDBRANCH  22  25
ENDBRANCH  16  22
TORSDOF 8
ENDMDL
