MODEL 1
REMARK VINA RESULT:      -7.0      0.000      0.000
REMARK  Name = 
REMARK  5 active torsions:
REMARK  status: ('A' for Active; 'I' for Inactive)
REMARK    1  A    between atoms: C_2  and  O_3
REMARK    2  A    between atoms: C_2  and  C_13
REMARK    3  A    between atoms: O_3  and  N_4
REMARK    4  A    between atoms: C_5  and  C_6
REMARK    5  A    between atoms: C_9  and  O_10
REMARK                            x       y       z     vdW  Elec       q    Type
REMARK                         _______ _______ _______ _____ _____    ______ ____
ROOT
ATOM      1  N   UNL     1       5.904   4.218  19.266  0.00  0.00    +0.000 NA
ATOM      2  C   UNL     1       4.813   4.916  19.260  0.00  0.00    +0.000 C 
ENDROOT
BRANCH   2   3
ATOM      3  C   UNL     1       3.512   4.224  19.403  0.00  0.00    +0.000 A 
ATOM      4  C   UNL     1       3.142   3.255  18.459  0.00  0.00    +0.000 A 
ATOM      5  C   UNL     1       1.882   2.662  18.513  0.00  0.00    +0.000 A 
ATOM      6  C   UNL     1       1.000   3.041  19.518  0.00  0.00    +0.000 A 
ATOM      7  C   UNL     1       1.360   3.995  20.466  0.00  0.00    +0.000 A 
ATOM      8  C   UNL     1       2.624   4.592  20.414  0.00  0.00    +0.000 A 
BRANCH   6   9
ATOM      9  O   UNL     1      -0.249   2.501  19.599  0.00  0.00    +0.000 OA
ATOM     10  H   UNL     1      -0.707   2.641  18.753  0.00  0.00    +0.000 HD
ENDBRANCH   6   9
ENDBRANCH   2   3
BRANCH   1  11
ATOM     11  O   UNL     1       7.001   5.015  18.989  0.00  0.00    +0.000 OA
BRANCH  11  13
ATOM     12  O   UNL     1       8.725   4.009  17.978  0.00  0.00    +0.000 OA
ATOM     13  C   UNL     1       7.692   4.650  17.857  0.00  0.00    +0.000 C 
BRANCH  13  14
ATOM     14  C   UNL     1       7.081   4.919  16.464  0.00  0.00    +0.000 C 
ATOM     15  C   UNL     1       6.082   3.942  15.840  0.00  0.00    +0.000 C 
ATOM     16  C   UNL     1       5.372   4.757  14.761  0.00  0.00    +0.000 C 
ATOM     17  C   UNL     1       5.309   6.177  15.309  0.00  0.00    +0.000 C 
ATOM     18  C   UNL     1       6.243   6.215  16.515  0.00  0.00    +0.000 C 
ENDBRANCH  13  14
ENDBRANCH  11  13
ENDBRANCH   1  11
TORSDOF 5
ENDMDL
MODEL 2
REMARK VINA RESULT:      -6.9      2.027      2.930
REMARK  Name = 
REMARK  5 active torsions:
REMARK  status: ('A' for Active; 'I' for Inactive)
REMARK    1  A    between atoms: C_2  and  O_3
REMARK    2  A    between atoms: C_2  and  C_13
REMARK    3  A    between atoms: O_3  and  N_4
REMARK    4  A    between atoms: C_5  and  C_6
REMARK    5  A    between atoms: C_9  and  O_10
REMARK                            x       y       z     vdW  Elec       q    Type
REMARK                         _______ _______ _______ _____ _____    ______ ____
ROOT
ATOM      1  N   UNL     1       4.804   4.103  15.865  0.00  0.00    +0.000 NA
ATOM      2  C   UNL     1       4.654   3.177  16.759  0.00  0.00    +0.000 C 
ENDROOT
BRANCH   2   3
ATOM      3  C   UNL     1       3.444   3.185  17.611  0.00  0.00    +0.000 A 
ATOM      4  C   UNL     1       2.873   4.411  17.983  0.00  0.00    +0.000 A 
ATOM      5  C   UNL     1       1.794   4.449  18.864  0.00  0.00    +0.000 A 
ATOM      6  C   UNL     1       1.291   3.255  19.367  0.00  0.00    +0.000 A 
ATOM      7  C   UNL     1       1.844   2.031  18.998  0.00  0.00    +0.000 A 
ATOM      8  C   UNL     1       2.925   1.990  18.112  0.00  0.00    +0.000 A 
BRANCH   6   9
ATOM      9  O   UNL     1       0.249   3.244  20.246  0.00  0.00    +0.000 OA
ATOM     10  H   UNL     1      -0.248   2.416  20.133  0.00  0.00    +0.000 HD
ENDBRANCH   6   9
ENDBRANCH   2   3
BRANCH   1  11
ATOM     11  O   UNL     1       6.047   4.012  15.263  0.00  0.00    +0.000 OA
BRANCH  11  13
ATOM     12  O   UNL     1       7.577   5.556  14.737  0.00  0.00    +0.000 OA
ATOM     13  C   UNL     1       6.918   5.016  15.613  0.00  0.00    +0.000 C 
BRANCH  13  14
ATOM     14  C   UNL     1       6.940   5.544  17.065  0.00  0.00    +0.000 C 
ATOM     15  C   UNL     1       7.718   4.808  18.158  0.00  0.00    +0.000 C 
ATOM     16  C   UNL     1       7.900   5.846  19.263  0.00  0.00    +0.000 C 
ATOM     17  C   UNL     1       8.038   7.180  18.540  0.00  0.00    +0.000 C 
ATOM     18  C   UNL     1       7.619   6.931  17.094  0.00  0.00    +0.000 C 
ENDBRANCH  13  14
ENDBRANCH  11  13
ENDBRANCH   1  11
TORSDOF 5
ENDMDL
MODEL 3
REMARK VINA RESULT:      -6.8      1.939      2.616
REMARK  Name = 
REMARK  5 active torsions:
REMARK  status: ('A' for Active; 'I' for Inactive)
REMARK    1  A    between atoms: C_2  and  O_3
REMARK    2  A    between atoms: C_2  and  C_13
REMARK    3  A    between atoms: O_3  and  N_4
REMARK    4  A    between atoms: C_5  and  C_6
REMARK    5  A    between atoms: C_9  and  O_10
REMARK                            x       y       z     vdW  Elec       q    Type
REMARK                         _______ _______ _______ _____ _____    ______ ____
ROOT
ATOM      1  N   UNL     1       5.640   5.977  17.558  0.00  0.00    +0.000 NA
ATOM      2  C   UNL     1       4.432   5.813  17.118  0.00  0.00    +0.000 C 
ENDROOT
BRANCH   2   3
ATOM      3  C   UNL     1       3.398   5.274  18.029  0.00  0.00    +0.000 A 
ATOM      4  C   UNL     1       3.478   5.552  19.402  0.00  0.00    +0.000 A 
ATOM      5  C   UNL     1       2.575   4.975  20.293  0.00  0.00    +0.000 A 
ATOM      6  C   UNL     1       1.593   4.123  19.802  0.00  0.00    +0.000 A 
ATOM      7  C   UNL     1       1.498   3.847  18.441  0.00  0.00    +0.000 A 
ATOM      8  C   UNL     1       2.402   4.426  17.544  0.00  0.00    +0.000 A 
BRANCH   6   9
ATOM      9  O   UNL     1       0.700   3.522  20.638  0.00  0.00    +0.000 OA
ATOM     10  H   UNL     1       1.190   3.048  21.331  0.00  0.00    +0.000 HD
ENDBRANCH   6   9
ENDBRANCH   2   3
BRANCH   1  11
ATOM     11  O   UNL     1       6.491   6.359  16.536  0.00  0.00    +0.000 OA
BRANCH  11  13
ATOM     12  O   UNL     1       7.698   4.479  16.443  0.00  0.00    +0.000 OA
ATOM     13  C   UNL     1       7.039   5.309  15.837  0.00  0.00    +0.000 C 
BRANCH  13  14
ATOM     14  C   UNL     1       6.691   5.115  14.344  0.00  0.00    +0.000 C 
ATOM     15  C   UNL     1       7.792   5.034  13.284  0.00  0.00    +0.000 C 
ATOM     16  C   UNL     1       7.118   4.376  12.082  0.00  0.00    +0.000 C 
ATOM     17  C   UNL     1       6.103   3.406  12.674  0.00  0.00    +0.000 C 
ATOM     18  C   UNL     1       5.990   3.752  14.156  0.00  0.00    +0.000 C 
ENDBRANCH  13  14
ENDBRANCH  11  13
ENDBRANCH   1  11
TORSDOF 5
ENDMDL
MODEL 4
REMARK VINA RESULT:      -6.7      1.989      2.760
REMARK  Name = 
REMARK  5 active torsions:
REMARK  status: ('A' for Active; 'I' for Inactive)
REMARK    1  A    between atoms: C_2  and  O_3
REMARK    2  A    between atoms: C_2  and  C_13
REMARK    3  A    between atoms: O_3  and  N_4
REMARK    4  A    between atoms: C_5  and  C_6
REMARK    5  A    between atoms: C_9  and  O_10
REMARK                            x       y       z     vdW  Elec       q    Type
REMARK                         _______ _______ _______ _____ _____    ______ ____
ROOT
ATOM      1  N   UNL     1       4.442   3.844  17.176  0.00  0.00    +0.000 NA
ATOM      2  C   UNL     1       3.395   4.436  17.659  0.00  0.00    +0.000 C 
ENDROOT
BRANCH   2   3
ATOM      3  C   UNL     1       2.835   3.975  18.949  0.00  0.00    +0.000 A 
ATOM      4  C   UNL     1       3.623   3.182  19.797  0.00  0.00    +0.000 A 
ATOM      5  C   UNL     1       3.085   2.653  20.969  0.00  0.00    +0.000 A 
ATOM      6  C   UNL     1       1.760   2.924  21.287  0.00  0.00    +0.000 A 
ATOM      7  C   UNL     1       0.972   3.718  20.458  0.00  0.00    +0.000 A 
ATOM      8  C   UNL     1       1.508   4.252  19.282  0.00  0.00    +0.000 A 
BRANCH   6   9
ATOM      9  O   UNL     1       1.187   2.413  22.413  0.00  0.00    +0.000 OA
ATOM     10  H   UNL     1       1.691   1.631  22.694  0.00  0.00    +0.000 HD
ENDBRANCH   6   9
ENDBRANCH   2   3
BRANCH   1  11
ATOM     11  O   UNL     1       4.738   4.318  15.910  0.00  0.00    +0.000 OA
BRANCH  11  13
ATOM     12  O   UNL     1       6.495   3.699  14.674  0.00  0.00    +0.000 OA
ATOM     13  C   UNL     1       6.081   4.351  15.620  0.00  0.00    +0.000 C 
BRANCH  13  14
ATOM     14  C   UNL     1       7.010   5.317  16.389  0.00  0.00    +0.000 C 
ATOM     15  C   UNL     1       6.498   6.668  16.892  0.00  0.00    +0.000 C 
ATOM     16  C   UNL     1       7.499   7.081  17.969  0.00  0.00    +0.000 C 
ATOM     17  C   UNL     1       7.949   5.777  18.617  0.00  0.00    +0.000 C 
ATOM     18  C   UNL     1       7.457   4.653  17.710  0.00  0.00    +0.000 C 
ENDBRANCH  13  14
ENDBRANCH  11  13
ENDBRANCH   1  11
TORSDOF 5
ENDMDL
MODEL 5
REMARK VINA RESULT:      -6.7      1.841      2.428
REMARK  Name = 
REMARK  5 active torsions:
REMARK  status: ('A' for Active; 'I' for Inactive)
REMARK    1  A    between atoms: C_2  and  O_3
REMARK    2  A    between atoms: C_2  and  C_13
REMARK    3  A    between atoms: O_3  and  N_4
REMARK    4  A    between atoms: C_5  and  C_6
REMARK    5  A    between atoms: C_9  and  O_10
REMARK                            x       y       z     vdW  Elec       q    Type
REMARK                         _______ _______ _______ _____ _____    ______ ____
ROOT
ATOM      1  N   UNL     1       5.207   5.492  17.397  0.00  0.00    +0.000 NA
ATOM      2  C   UNL     1       3.986   5.242  17.041  0.00  0.00    +0.000 C 
ENDROOT
BRANCH   2   3
ATOM      3  C   UNL     1       3.036   4.709  18.044  0.00  0.00    +0.000 A 
ATOM      4  C   UNL     1       3.066   5.210  19.353  0.00  0.00    +0.000 A 
ATOM      5  C   UNL     1       2.251   4.656  20.339  0.00  0.00    +0.000 A 
ATOM      6  C   UNL     1       1.409   3.603  20.006  0.00  0.00    +0.000 A 
ATOM      7  C   UNL     1       1.364   3.103  18.707  0.00  0.00    +0.000 A 
ATOM      8  C   UNL     1       2.179   3.659  17.715  0.00  0.00    +0.000 A 
BRANCH   6   9
ATOM      9  O   UNL     1       0.609   3.017  20.941  0.00  0.00    +0.000 OA
ATOM     10  H   UNL     1       1.102   2.947  21.776  0.00  0.00    +0.000 HD
ENDBRANCH   6   9
ENDBRANCH   2   3
BRANCH   1  11
ATOM     11  O   UNL     1       5.976   5.853  16.304  0.00  0.00    +0.000 OA
BRANCH  11  13
ATOM     12  O   UNL     1       7.803   4.644  16.753  0.00  0.00    +0.000 OA
ATOM     13  C   UNL     1       6.925   4.923  15.951  0.00  0.00    +0.000 C 
BRANCH  13  14
ATOM     14  C   UNL     1       6.783   4.145  14.624  0.00  0.00    +0.000 C 
ATOM     15  C   UNL     1       5.412   3.937  13.977  0.00  0.00    +0.000 C 
ATOM     16  C   UNL     1       5.724   3.587  12.524  0.00  0.00    +0.000 C 
ATOM     17  C   UNL     1       6.980   4.380  12.183  0.00  0.00    +0.000 C 
ATOM     18  C   UNL     1       7.533   4.901  13.505  0.00  0.00    +0.000 C 
ENDBRANCH  13  14
ENDBRANCH  11  13
ENDBRANCH   1  11
TORSDOF 5
ENDMDL
MODEL 6
REMARK VINA RESULT:      -6.7      1.992      2.845
REMARK  Name = 
REMARK  5 active torsions:
REMARK  status: ('A' for Active; 'I' for Inactive)
REMARK    1  A    between atoms: C_2  and  O_3
REMARK    2  A    between atoms: C_2  and  C_13
REMARK    3  A    between atoms: O_3  and  N_4
REMARK    4  A    between atoms: C_5  and  C_6
REMARK    5  A    between atoms: C_9  and  O_10
REMARK                            x       y       z     vdW  Elec       q    Type
REMARK                         _______ _______ _______ _____ _____    ______ ____
ROOT
ATOM      1  N   UNL     1       4.484   3.957  17.199  0.00  0.00    +0.000 NA
ATOM      2  C   UNL     1       3.242   4.184  17.491  0.00  0.00    +0.000 C 
ENDROOT
BRANCH   2   3
ATOM      3  C   UNL     1       2.690   3.660  18.760  0.00  0.00    +0.000 A 
ATOM      4  C   UNL     1       1.341   3.888  19.070  0.00  0.00    +0.000 A 
ATOM      5  C   UNL     1       0.824   3.492  20.302  0.00  0.00    +0.000 A 
ATOM      6  C   UNL     1       1.662   2.866  21.217  0.00  0.00    +0.000 A 
ATOM      7  C   UNL     1       3.000   2.626  20.916  0.00  0.00    +0.000 A 
ATOM      8  C   UNL     1       3.522   3.021  19.680  0.00  0.00    +0.000 A 
BRANCH   6   9
ATOM      9  O   UNL     1       1.204   2.478  22.441  0.00  0.00    +0.000 OA
ATOM     10  H   UNL     1       0.328   2.872  22.587  0.00  0.00    +0.000 HD
ENDBRANCH   6   9
ENDBRANCH   2   3
BRANCH   1  11
ATOM     11  O   UNL     1       4.781   4.403  15.923  0.00  0.00    +0.000 OA
BRANCH  11  13
ATOM     12  O   UNL     1       6.532   3.805  14.667  0.00  0.00    +0.000 OA
ATOM     13  C   UNL     1       6.125   4.431  15.634  0.00  0.00    +0.000 C 
BRANCH  13  14
ATOM     14  C   UNL     1       7.064   5.360  16.434  0.00  0.00    +0.000 C 
ATOM     15  C   UNL     1       6.577   6.714  16.953  0.00  0.00    +0.000 C 
ATOM     16  C   UNL     1       7.571   7.084  18.052  0.00  0.00    +0.000 C 
ATOM     17  C   UNL     1       7.979   5.759  18.684  0.00  0.00    +0.000 C 
ATOM     18  C   UNL     1       7.474   4.663  17.750  0.00  0.00    +0.000 C 
ENDBRANCH  13  14
ENDBRANCH  11  13
ENDBRANCH   1  11
TORSDOF 5
ENDMDL
MODEL 7
REMARK VINA RESULT:      -6.7      2.195      2.793
REMARK  Name = 
REMARK  5 active torsions:
REMARK  status: ('A' for Active; 'I' for Inactive)
REMARK    1  A    between atoms: C_2  and  O_3
REMARK    2  A    between atoms: C_2  and  C_13
REMARK    3  A    between atoms: O_3  and  N_4
REMARK    4  A    between atoms: C_5  and  C_6
REMARK    5  A    between atoms: C_9  and  O_10
REMARK                            x       y       z     vdW  Elec       q    Type
REMARK                         _______ _______ _______ _____ _____    ______ ____
ROOT
ATOM      1  N   UNL     1       4.507   4.914  16.826  0.00  0.00    +0.000 NA
ATOM      2  C   UNL     1       4.414   5.425  18.014  0.00  0.00    +0.000 C 
ENDROOT
BRANCH   2   3
ATOM      3  C   UNL     1       3.666   4.690  19.059  0.00  0.00    +0.000 A 
ATOM      4  C   UNL     1       2.733   5.378  19.848  0.00  0.00    +0.000 A 
ATOM      5  C   UNL     1       2.089   4.734  20.903  0.00  0.00    +0.000 A 
ATOM      6  C   UNL     1       2.383   3.400  21.160  0.00  0.00    +0.000 A 
ATOM      7  C   UNL     1       3.301   2.704  20.377  0.00  0.00    +0.000 A 
ATOM      8  C   UNL     1       3.948   3.348  19.317  0.00  0.00    +0.000 A 
BRANCH   6   9
ATOM      9  O   UNL     1       1.792   2.735  22.192  0.00  0.00    +0.000 OA
ATOM     10  H   UNL     1       2.483   2.308  22.726  0.00  0.00    +0.000 HD
ENDBRANCH   6   9
ENDBRANCH   2   3
BRANCH   1  11
ATOM     11  O   UNL     1       5.121   5.797  15.956  0.00  0.00    +0.000 OA
BRANCH  11  13
ATOM     12  O   UNL     1       7.347   5.803  16.175  0.00  0.00    +0.000 OA
ATOM     13  C   UNL     1       6.376   5.408  15.549  0.00  0.00    +0.000 C 
BRANCH  13  14
ATOM     14  C   UNL     1       6.528   4.370  14.415  0.00  0.00    +0.000 C 
ATOM     15  C   UNL     1       5.316   3.909  13.602  0.00  0.00    +0.000 C 
ATOM     16  C   UNL     1       5.913   3.306  12.332  0.00  0.00    +0.000 C 
ATOM     17  C   UNL     1       7.164   4.130  12.049  0.00  0.00    +0.000 C 
ATOM     18  C   UNL     1       7.430   4.955  13.305  0.00  0.00    +0.000 C 
ENDBRANCH  13  14
ENDBRANCH  11  13
ENDBRANCH   1  11
TORSDOF 5
ENDMDL
MODEL 8
REMARK VINA RESULT:      -6.6      2.087      2.444
REMARK  Name = 
REMARK  5 active torsions:
REMARK  status: ('A' for Active; 'I' for Inactive)
REMARK    1  A    between atoms: C_2  and  O_3
REMARK    2  A    between atoms: C_2  and  C_13
REMARK    3  A    between atoms: O_3  and  N_4
REMARK    4  A    between atoms: C_5  and  C_6
REMARK    5  A    between atoms: C_9  and  O_10
REMARK                            x       y       z     vdW  Elec       q    Type
REMARK                         _______ _______ _______ _____ _____    ______ ____
ROOT
ATOM      1  N   UNL     1       4.878   5.606  17.422  0.00  0.00    +0.000 NA
ATOM      2  C   UNL     1       3.838   4.833  17.405  0.00  0.00    +0.000 C 
ENDROOT
BRANCH   2   3
ATOM      3  C   UNL     1       3.301   4.316  18.684  0.00  0.00    +0.000 A 
ATOM      4  C   UNL     1       3.903   3.199  19.281  0.00  0.00    +0.000 A 
ATOM      5  C   UNL     1       3.356   2.632  20.431  0.00  0.00    +0.000 A 
ATOM      6  C   UNL     1       2.208   3.192  20.979  0.00  0.00    +0.000 A 
ATOM      7  C   UNL     1       1.607   4.307  20.400  0.00  0.00    +0.000 A 
ATOM      8  C   UNL     1       2.155   4.879  19.247  0.00  0.00    +0.000 A 
BRANCH   6   9
ATOM      9  O   UNL     1       1.628   2.661  22.092  0.00  0.00    +0.000 OA
ATOM     10  H   UNL     1       1.804   3.246  22.847  0.00  0.00    +0.000 HD
ENDBRANCH   6   9
ENDBRANCH   2   3
BRANCH   1  11
ATOM     11  O   UNL     1       5.313   5.878  16.137  0.00  0.00    +0.000 OA
BRANCH  11  13
ATOM     12  O   UNL     1       7.471   5.484  16.571  0.00  0.00    +0.000 OA
ATOM     13  C   UNL     1       6.524   5.310  15.819  0.00  0.00    +0.000 C 
BRANCH  13  14
ATOM     14  C   UNL     1       6.630   4.349  14.614  0.00  0.00    +0.000 C 
ATOM     15  C   UNL     1       5.387   3.941  13.822  0.00  0.00    +0.000 C 
ATOM     16  C   UNL     1       5.932   3.424  12.492  0.00  0.00    +0.000 C 
ATOM     17  C   UNL     1       7.172   4.266  12.215  0.00  0.00    +0.000 C 
ATOM     18  C   UNL     1       7.488   5.006  13.511  0.00  0.00    +0.000 C 
ENDBRANCH  13  14
ENDBRANCH  11  13
ENDBRANCH   1  11
TORSDOF 5
ENDMDL
MODEL 9
REMARK VINA RESULT:      -6.6      2.008      2.913
REMARK  Name = 
REMARK  5 active torsions:
REMARK  status: ('A' for Active; 'I' for Inactive)
REMARK    1  A    between atoms: C_2  and  O_3
REMARK    2  A    between atoms: C_2  and  C_13
REMARK    3  A    between atoms: O_3  and  N_4
REMARK    4  A    between atoms: C_5  and  C_6
REMARK    5  A    between atoms: C_9  and  O_10
REMARK                            x       y       z     vdW  Elec       q    Type
REMARK                         _______ _______ _______ _____ _____    ______ ____
ROOT
ATOM      1  N   UNL     1       4.383   4.004  17.001  0.00  0.00    +0.000 NA
ATOM      2  C   UNL     1       3.401   4.694  17.489  0.00  0.00    +0.000 C 
ENDROOT
BRANCH   2   3
ATOM      3  C   UNL     1       2.686   4.188  18.682  0.00  0.00    +0.000 A 
ATOM      4  C   UNL     1       2.829   4.860  19.905  0.00  0.00    +0.000 A 
ATOM      5  C   UNL     1       2.248   4.348  21.064  0.00  0.00    +0.000 A 
ATOM      6  C   UNL     1       1.523   3.165  20.990  0.00  0.00    +0.000 A 
ATOM      7  C   UNL     1       1.366   2.495  19.779  0.00  0.00    +0.000 A 
ATOM      8  C   UNL     1       1.947   3.007  18.614  0.00  0.00    +0.000 A 
BRANCH   6   9
ATOM      9  O   UNL     1       0.952   2.617  22.100  0.00  0.00    +0.000 OA
ATOM     10  H   UNL     1       1.653   2.398  22.736  0.00  0.00    +0.000 HD
ENDBRANCH   6   9
ENDBRANCH   2   3
BRANCH   1  11
ATOM     11  O   UNL     1       4.837   4.560  15.817  0.00  0.00    +0.000 OA
BRANCH  11  13
ATOM     12  O   UNL     1       6.585   5.635  14.927  0.00  0.00    +0.000 OA
ATOM     13  C   UNL     1       6.009   5.269  15.940  0.00  0.00    +0.000 C 
BRANCH  13  14
ATOM     14  C   UNL     1       6.494   5.716  17.337  0.00  0.00    +0.000 C 
ATOM     15  C   UNL     1       7.518   4.889  18.117  0.00  0.00    +0.000 C 
ATOM     16  C   UNL     1       8.083   5.857  19.154  0.00  0.00    +0.000 C 
ATOM     17  C   UNL     1       8.075   7.221  18.474  0.00  0.00    +0.000 C 
ATOM     18  C   UNL     1       7.231   7.069  17.213  0.00  0.00    +0.000 C 
ENDBRANCH  13  14
ENDBRANCH  11  13
ENDBRANCH   1  11
TORSDOF 5
ENDMDL
