MODEL 1
REMARK VINA RESULT:      -6.8      0.000      0.000
REMARK  Name = 
REMARK  18 active torsions:
REMARK  status: ('A' for Active; 'I' for Inactive)
REMARK    1  A    between atoms: C_1  and  C_2
REMARK    2  A    between atoms: C_2  and  N_3
REMARK    3  A    between atoms: N_3  and  C_4
REMARK    4  A    between atoms: N_3  and  C_6
REMARK    5  A    between atoms: C_4  and  C_5
REMARK    6  A    between atoms: C_6  and  C_7
REMARK    7  A    between atoms: C_7  and  C_8
REMARK    8  A    between atoms: C_8  and  O_9
REMARK    9  A    between atoms: O_9  and  C_10
REMARK   10  A    between atoms: C_18  and  O_19
REMARK   11  A    between atoms: O_19  and  C_20
REMARK   12  A    between atoms: C_20  and  C_21
REMARK   13  A    between atoms: C_21  and  C_22
REMARK   14  A    between atoms: C_22  and  N_23
REMARK   15  A    between atoms: N_23  and  C_24
REMARK   16  A    between atoms: N_23  and  C_26
REMARK   17  A    between atoms: C_24  and  C_25
REMARK   18  A    between atoms: C_26  and  C_27
REMARK                            x       y       z     vdW  Elec       q    Type
REMARK                         _______ _______ _______ _____ _____    ______ ____
ROOT
ATOM      1  C   UNL     1       0.182  11.225  20.052  0.00  0.00    +0.000 A 
ATOM      2  C   UNL     1      -0.219  10.731  21.311  0.00  0.00    +0.000 A 
ATOM      3  C   UNL     1       0.131   9.443  21.708  0.00  0.00    +0.000 A 
ATOM      4  C   UNL     1       0.877   8.625  20.856  0.00  0.00    +0.000 A 
ATOM      5  C   UNL     1       1.219   7.332  21.242  0.00  0.00    +0.000 A 
ATOM      6  C   UNL     1       1.944   6.521  20.372  0.00  0.00    +0.000 A 
ATOM      7  C   UNL     1       2.276   5.214  20.730  0.00  0.00    +0.000 A 
ATOM      8  C   UNL     1       2.973   4.405  19.844  0.00  0.00    +0.000 A 
ATOM      9  C   UNL     1       3.362   4.896  18.582  0.00  0.00    +0.000 A 
ATOM     10  C   UNL     1       3.049   6.216  18.226  0.00  0.00    +0.000 A 
ATOM     11  C   UNL     1       2.332   7.030  19.110  0.00  0.00    +0.000 A 
ATOM     12  N   UNL     1       2.003   8.303  18.758  0.00  0.00    +0.000 NA
ATOM     13  C   UNL     1       1.285   9.107  19.592  0.00  0.00    +0.000 A 
ATOM     14  C   UNL     1       0.936  10.406  19.197  0.00  0.00    +0.000 A 
ENDROOT
BRANCH   1  15
ATOM     15  O   UNL     1      -0.147  12.468  19.635  0.00  0.00    +0.000 OA
BRANCH  15  16
ATOM     16  C   UNL     1      -0.814  12.765  18.464  0.00  0.00    +0.000 C 
BRANCH  16  17
ATOM     17  C   UNL     1      -2.245  12.255  18.545  0.00  0.00    +0.000 C 
BRANCH  17  18
ATOM     18  C   UNL     1      -2.370  10.795  18.063  0.00  0.00    +0.000 C 
BRANCH  18  19
ATOM     19  N   UNL     1      -3.517  10.527  17.143  0.00  0.00    +0.000 NA
BRANCH  19  21
ATOM     20  C   UNL     1      -5.504  12.165  17.060  0.00  0.00    +0.000 C 
ATOM     21  C   UNL     1      -4.774  11.026  17.771  0.00  0.00    +0.000 C 
ENDBRANCH  19  21
BRANCH  19  22
ATOM     22  C   UNL     1      -3.110  11.057  15.809  0.00  0.00    +0.000 C 
ATOM     23  C   UNL     1      -3.376  10.174  14.590  0.00  0.00    +0.000 C 
ENDBRANCH  19  22
ENDBRANCH  18  19
ENDBRANCH  17  18
ENDBRANCH  16  17
ENDBRANCH  15  16
ENDBRANCH   1  15
BRANCH   9  24
ATOM     24  O   UNL     1       4.024   4.123  17.686  0.00  0.00    +0.000 OA
BRANCH  24  25
ATOM     25  C   UNL     1       5.225   3.489  17.931  0.00  0.00    +0.000 C 
BRANCH  25  26
ATOM     26  C   UNL     1       6.283   4.530  18.258  0.00  0.00    +0.000 C 
BRANCH  26  27
ATOM     27  C   UNL     1       7.302   4.649  17.111  0.00  0.00    +0.000 C 
BRANCH  27  28
ATOM     28  N   UNL     1       7.064   5.816  16.223  0.00  0.00    +0.000 NA
BRANCH  28  29
ATOM     29  C   UNL     1       6.184   5.523  15.058  0.00  0.00    +0.000 C 
ATOM     30  C   UNL     1       6.504   4.205  14.340  0.00  0.00    +0.000 C 
ENDBRANCH  28  29
BRANCH  28  31
ATOM     31  C   UNL     1       6.615   6.963  17.052  0.00  0.00    +0.000 C 
ATOM     32  C   UNL     1       7.765   7.800  17.615  0.00  0.00    +0.000 C 
ENDBRANCH  28  31
ENDBRANCH  27  28
ENDBRANCH  26  27
ENDBRANCH  25  26
ENDBRANCH  24  25
ENDBRANCH   9  24
TORSDOF 14
ENDMDL
MODEL 2
REMARK VINA RESULT:      -6.5      1.389      2.061
REMARK  Name = 
REMARK  18 active torsions:
REMARK  status: ('A' for Active; 'I' for Inactive)
REMARK    1  A    between atoms: C_1  and  C_2
REMARK    2  A    between atoms: C_2  and  N_3
REMARK    3  A    between atoms: N_3  and  C_4
REMARK    4  A    between atoms: N_3  and  C_6
REMARK    5  A    between atoms: C_4  and  C_5
REMARK    6  A    between atoms: C_6  and  C_7
REMARK    7  A    between atoms: C_7  and  C_8
REMARK    8  A    between atoms: C_8  and  O_9
REMARK    9  A    between atoms: O_9  and  C_10
REMARK   10  A    between atoms: C_18  and  O_19
REMARK   11  A    between atoms: O_19  and  C_20
REMARK   12  A    between atoms: C_20  and  C_21
REMARK   13  A    between atoms: C_21  and  C_22
REMARK   14  A    between atoms: C_22  and  N_23
REMARK   15  A    between atoms: N_23  and  C_24
REMARK   16  A    between atoms: N_23  and  C_26
REMARK   17  A    between atoms: C_24  and  C_25
REMARK   18  A    between atoms: C_26  and  C_27
REMARK                            x       y       z     vdW  Elec       q    Type
REMARK                         _______ _______ _______ _____ _____    ______ ____
ROOT
ATOM      1  C   UNL     1       0.088  11.354  20.570  0.00  0.00    +0.000 A 
ATOM      2  C   UNL     1      -0.305  10.740  21.777  0.00  0.00    +0.000 A 
ATOM      3  C   UNL     1       0.036   9.417  22.041  0.00  0.00    +0.000 A 
ATOM      4  C   UNL     1       0.766   8.682  21.103  0.00  0.00    +0.000 A 
ATOM      5  C   UNL     1       1.099   7.353  21.355  0.00  0.00    +0.000 A 
ATOM      6  C   UNL     1       1.808   6.627  20.400  0.00  0.00    +0.000 A 
ATOM      7  C   UNL     1       2.131   5.288  20.623  0.00  0.00    +0.000 A 
ATOM      8  C   UNL     1       2.811   4.566  19.653  0.00  0.00    +0.000 A 
ATOM      9  C   UNL     1       3.193   5.176  18.443  0.00  0.00    +0.000 A 
ATOM     10  C   UNL     1       2.888   6.528  18.223  0.00  0.00    +0.000 A 
ATOM     11  C   UNL     1       2.189   7.256  19.192  0.00  0.00    +0.000 A 
ATOM     12  N   UNL     1       1.868   8.561  18.971  0.00  0.00    +0.000 NA
ATOM     13  C   UNL     1       1.166   9.283  19.889  0.00  0.00    +0.000 A 
ATOM     14  C   UNL     1       0.826  10.618  19.629  0.00  0.00    +0.000 A 
ENDROOT
BRANCH   1  15
ATOM     15  O   UNL     1      -0.233  12.636  20.283  0.00  0.00    +0.000 OA
BRANCH  15  16
ATOM     16  C   UNL     1      -1.159  13.032  19.339  0.00  0.00    +0.000 C 
BRANCH  16  17
ATOM     17  C   UNL     1      -2.440  12.229  19.507  0.00  0.00    +0.000 C 
BRANCH  17  18
ATOM     18  C   UNL     1      -3.530  13.024  20.255  0.00  0.00    +0.000 C 
BRANCH  18  19
ATOM     19  N   UNL     1      -4.932  12.737  19.823  0.00  0.00    +0.000 NA
BRANCH  19  21
ATOM     20  C   UNL     1      -6.221  11.540  17.941  0.00  0.00    +0.000 C 
ATOM     21  C   UNL     1      -4.905  11.780  18.681  0.00  0.00    +0.000 C 
ENDBRANCH  19  21
BRANCH  19  22
ATOM     22  C   UNL     1      -5.681  12.373  21.061  0.00  0.00    +0.000 C 
ATOM     23  C   UNL     1      -6.991  13.112  21.333  0.00  0.00    +0.000 C 
ENDBRANCH  19  22
ENDBRANCH  18  19
ENDBRANCH  17  18
ENDBRANCH  16  17
ENDBRANCH  15  16
ENDBRANCH   1  15
BRANCH   9  24
ATOM     24  O   UNL     1       3.838   4.491  17.466  0.00  0.00    +0.000 OA
BRANCH  24  25
ATOM     25  C   UNL     1       4.927   3.669  17.672  0.00  0.00    +0.000 C 
BRANCH  25  26
ATOM     26  C   UNL     1       6.095   4.501  18.176  0.00  0.00    +0.000 C 
BRANCH  26  27
ATOM     27  C   UNL     1       7.201   4.589  17.110  0.00  0.00    +0.000 C 
BRANCH  27  28
ATOM     28  N   UNL     1       7.091   5.784  16.235  0.00  0.00    +0.000 NA
BRANCH  28  29
ATOM     29  C   UNL     1       6.309   5.553  14.988  0.00  0.00    +0.000 C 
ATOM     30  C   UNL     1       6.482   4.153  14.385  0.00  0.00    +0.000 C 
ENDBRANCH  28  29
BRANCH  28  31
ATOM     31  C   UNL     1       6.613   6.929  17.049  0.00  0.00    +0.000 C 
ATOM     32  C   UNL     1       7.739   7.828  17.563  0.00  0.00    +0.000 C 
ENDBRANCH  28  31
ENDBRANCH  27  28
ENDBRANCH  26  27
ENDBRANCH  25  26
ENDBRANCH  24  25
ENDBRANCH   9  24
TORSDOF 14
ENDMDL
MODEL 3
REMARK VINA RESULT:      -6.5      2.243     10.054
REMARK  Name = 
REMARK  18 active torsions:
REMARK  status: ('A' for Active; 'I' for Inactive)
REMARK    1  A    between atoms: C_1  and  C_2
REMARK    2  A    between atoms: C_2  and  N_3
REMARK    3  A    between atoms: N_3  and  C_4
REMARK    4  A    between atoms: N_3  and  C_6
REMARK    5  A    between atoms: C_4  and  C_5
REMARK    6  A    between atoms: C_6  and  C_7
REMARK    7  A    between atoms: C_7  and  C_8
REMARK    8  A    between atoms: C_8  and  O_9
REMARK    9  A    between atoms: O_9  and  C_10
REMARK   10  A    between atoms: C_18  and  O_19
REMARK   11  A    between atoms: O_19  and  C_20
REMARK   12  A    between atoms: C_20  and  C_21
REMARK   13  A    between atoms: C_21  and  C_22
REMARK   14  A    between atoms: C_22  and  N_23
REMARK   15  A    between atoms: N_23  and  C_24
REMARK   16  A    between atoms: N_23  and  C_26
REMARK   17  A    between atoms: C_24  and  C_25
REMARK   18  A    between atoms: C_26  and  C_27
REMARK                            x       y       z     vdW  Elec       q    Type
REMARK                         _______ _______ _______ _____ _____    ______ ____
ROOT
ATOM      1  C   UNL     1       3.183   5.471  18.468  0.00  0.00    +0.000 A 
ATOM      2  C   UNL     1       2.790   4.790  19.638  0.00  0.00    +0.000 A 
ATOM      3  C   UNL     1       2.042   5.439  20.616  0.00  0.00    +0.000 A 
ATOM      4  C   UNL     1       1.681   6.779  20.448  0.00  0.00    +0.000 A 
ATOM      5  C   UNL     1       0.945   7.438  21.429  0.00  0.00    +0.000 A 
ATOM      6  C   UNL     1       0.612   8.780  21.257  0.00  0.00    +0.000 A 
ATOM      7  C   UNL     1      -0.105   9.466  22.238  0.00  0.00    +0.000 A 
ATOM      8  C   UNL     1      -0.404  10.810  22.069  0.00  0.00    +0.000 A 
ATOM      9  C   UNL     1      -0.001  11.492  20.906  0.00  0.00    +0.000 A 
ATOM     10  C   UNL     1       0.702  10.802  19.907  0.00  0.00    +0.000 A 
ATOM     11  C   UNL     1       1.020   9.450  20.079  0.00  0.00    +0.000 A 
ATOM     12  N   UNL     1       1.726   8.784  19.125  0.00  0.00    +0.000 NA
ATOM     13  C   UNL     1       2.068   7.474  19.281  0.00  0.00    +0.000 A 
ATOM     14  C   UNL     1       2.817   6.816  18.296  0.00  0.00    +0.000 A 
ENDROOT
BRANCH   1  15
ATOM     15  O   UNL     1       3.914   4.870  17.503  0.00  0.00    +0.000 OA
BRANCH  15  16
ATOM     16  C   UNL     1       4.886   3.914  17.720  0.00  0.00    +0.000 C 
BRANCH  16  17
ATOM     17  C   UNL     1       6.163   4.581  18.207  0.00  0.00    +0.000 C 
BRANCH  17  18
ATOM     18  C   UNL     1       7.233   4.669  17.099  0.00  0.00    +0.000 C 
BRANCH  18  19
ATOM     19  N   UNL     1       7.131   5.869  16.214  0.00  0.00    +0.000 NA
BRANCH  19  21
ATOM     20  C   UNL     1       6.511   4.161  14.388  0.00  0.00    +0.000 C 
ATOM     21  C   UNL     1       6.292   5.531  15.028  0.00  0.00    +0.000 C 
ENDBRANCH  19  21
BRANCH  19  22
ATOM     22  C   UNL     1       6.722   7.001  17.096  0.00  0.00    +0.000 C 
ATOM     23  C   UNL     1       7.826   7.919  17.619  0.00  0.00    +0.000 C 
ENDBRANCH  19  22
ENDBRANCH  18  19
ENDBRANCH  17  18
ENDBRANCH  16  17
ENDBRANCH  15  16
ENDBRANCH   1  15
BRANCH   9  24
ATOM     24  O   UNL     1      -0.259  12.811  20.722  0.00  0.00    +0.000 OA
BRANCH  24  25
ATOM     25  C   UNL     1      -1.151  13.316  19.798  0.00  0.00    +0.000 C 
BRANCH  25  26
ATOM     26  C   UNL     1      -2.568  13.124  20.313  0.00  0.00    +0.000 C 
BRANCH  26  27
ATOM     27  C   UNL     1      -2.957  14.262  21.273  0.00  0.00    +0.000 C 
BRANCH  27  28
ATOM     28  N   UNL     1      -3.674  13.797  22.488  0.00  0.00    +0.000 NA
BRANCH  28  29
ATOM     29  C   UNL     1      -4.778  12.837  22.212  0.00  0.00    +0.000 C 
ATOM     30  C   UNL     1      -6.059  13.486  21.671  0.00  0.00    +0.000 C 
ENDBRANCH  28  29
BRANCH  28  31
ATOM     31  C   UNL     1      -2.676  13.310  23.473  0.00  0.00    +0.000 C 
ATOM     32  C   UNL     1      -1.560  14.315  23.763  0.00  0.00    +0.000 C 
ENDBRANCH  28  31
ENDBRANCH  27  28
ENDBRANCH  26  27
ENDBRANCH  25  26
ENDBRANCH  24  25
ENDBRANCH   9  24
TORSDOF 14
ENDMDL
MODEL 4
REMARK VINA RESULT:      -6.4      2.594      4.068
REMARK  Name = 
REMARK  18 active torsions:
REMARK  status: ('A' for Active; 'I' for Inactive)
REMARK    1  A    between atoms: C_1  and  C_2
REMARK    2  A    between atoms: C_2  and  N_3
REMARK    3  A    between atoms: N_3  and  C_4
REMARK    4  A    between atoms: N_3  and  C_6
REMARK    5  A    between atoms: C_4  and  C_5
REMARK    6  A    between atoms: C_6  and  C_7
REMARK    7  A    between atoms: C_7  and  C_8
REMARK    8  A    between atoms: C_8  and  O_9
REMARK    9  A    between atoms: O_9  and  C_10
REMARK   10  A    between atoms: C_18  and  O_19
REMARK   11  A    between atoms: O_19  and  C_20
REMARK   12  A    between atoms: C_20  and  C_21
REMARK   13  A    between atoms: C_21  and  C_22
REMARK   14  A    between atoms: C_22  and  N_23
REMARK   15  A    between atoms: N_23  and  C_24
REMARK   16  A    between atoms: N_23  and  C_26
REMARK   17  A    between atoms: C_24  and  C_25
REMARK   18  A    between atoms: C_26  and  C_27
REMARK                            x       y       z     vdW  Elec       q    Type
REMARK                         _______ _______ _______ _____ _____    ______ ____
ROOT
ATOM      1  C   UNL     1      -0.030  12.112  19.561  0.00  0.00    +0.000 A 
ATOM      2  C   UNL     1      -0.482  11.694  20.830  0.00  0.00    +0.000 A 
ATOM      3  C   UNL     1      -0.146  10.435  21.320  0.00  0.00    +0.000 A 
ATOM      4  C   UNL     1       0.636   9.569  20.550  0.00  0.00    +0.000 A 
ATOM      5  C   UNL     1       0.963   8.303  21.028  0.00  0.00    +0.000 A 
ATOM      6  C   UNL     1       1.725   7.443  20.240  0.00  0.00    +0.000 A 
ATOM      7  C   UNL     1       2.044   6.162  20.690  0.00  0.00    +0.000 A 
ATOM      8  C   UNL     1       2.778   5.304  19.885  0.00  0.00    +0.000 A 
ATOM      9  C   UNL     1       3.218   5.718  18.613  0.00  0.00    +0.000 A 
ATOM     10  C   UNL     1       2.917   7.013  18.164  0.00  0.00    +0.000 A 
ATOM     11  C   UNL     1       2.164   7.877  18.966  0.00  0.00    +0.000 A 
ATOM     12  N   UNL     1       1.847   9.124  18.523  0.00  0.00    +0.000 NA
ATOM     13  C   UNL     1       1.094   9.975  19.277  0.00  0.00    +0.000 A 
ATOM     14  C   UNL     1       0.759  11.245  18.789  0.00  0.00    +0.000 A 
ENDROOT
BRANCH   1  15
ATOM     15  O   UNL     1      -0.344  13.326  19.056  0.00  0.00    +0.000 OA
BRANCH  15  16
ATOM     16  C   UNL     1      -0.300  14.515  19.756  0.00  0.00    +0.000 C 
BRANCH  16  17
ATOM     17  C   UNL     1       0.562  15.520  19.008  0.00  0.00    +0.000 C 
BRANCH  17  18
ATOM     18  C   UNL     1       1.892  14.903  18.528  0.00  0.00    +0.000 C 
BRANCH  18  19
ATOM     19  N   UNL     1       3.122  15.622  18.978  0.00  0.00    +0.000 NA
BRANCH  19  21
ATOM     20  C   UNL     1       3.167  13.791  20.789  0.00  0.00    +0.000 C 
ATOM     21  C   UNL     1       3.422  15.244  20.388  0.00  0.00    +0.000 C 
ENDBRANCH  19  21
BRANCH  19  22
ATOM     22  C   UNL     1       4.152  15.379  17.925  0.00  0.00    +0.000 C 
ATOM     23  C   UNL     1       5.615  15.348  18.365  0.00  0.00    +0.000 C 
ENDBRANCH  19  22
ENDBRANCH  18  19
ENDBRANCH  17  18
ENDBRANCH  16  17
ENDBRANCH  15  16
ENDBRANCH   1  15
BRANCH   9  24
ATOM     24  O   UNL     1       3.917   4.895  17.792  0.00  0.00    +0.000 OA
BRANCH  24  25
ATOM     25  C   UNL     1       4.861   3.981  18.216  0.00  0.00    +0.000 C 
BRANCH  25  26
ATOM     26  C   UNL     1       6.132   4.718  18.606  0.00  0.00    +0.000 C 
BRANCH  26  27
ATOM     27  C   UNL     1       7.157   4.678  17.460  0.00  0.00    +0.000 C 
BRANCH  27  28
ATOM     28  N   UNL     1       7.072   5.845  16.544  0.00  0.00    +0.000 NA
BRANCH  28  29
ATOM     29  C   UNL     1       6.226   5.612  15.341  0.00  0.00    +0.000 C 
ATOM     30  C   UNL     1       6.666   4.422  14.480  0.00  0.00    +0.000 C 
ENDBRANCH  28  29
BRANCH  28  31
ATOM     31  C   UNL     1       6.692   7.043  17.333  0.00  0.00    +0.000 C 
ATOM     32  C   UNL     1       7.839   8.036  17.532  0.00  0.00    +0.000 C 
ENDBRANCH  28  31
ENDBRANCH  27  28
ENDBRANCH  26  27
ENDBRANCH  25  26
ENDBRANCH  24  25
ENDBRANCH   9  24
TORSDOF 14
ENDMDL
MODEL 5
REMARK VINA RESULT:      -6.3      2.744     10.456
REMARK  Name = 
REMARK  18 active torsions:
REMARK  status: ('A' for Active; 'I' for Inactive)
REMARK    1  A    between atoms: C_1  and  C_2
REMARK    2  A    between atoms: C_2  and  N_3
REMARK    3  A    between atoms: N_3  and  C_4
REMARK    4  A    between atoms: N_3  and  C_6
REMARK    5  A    between atoms: C_4  and  C_5
REMARK    6  A    between atoms: C_6  and  C_7
REMARK    7  A    between atoms: C_7  and  C_8
REMARK    8  A    between atoms: C_8  and  O_9
REMARK    9  A    between atoms: O_9  and  C_10
REMARK   10  A    between atoms: C_18  and  O_19
REMARK   11  A    between atoms: O_19  and  C_20
REMARK   12  A    between atoms: C_20  and  C_21
REMARK   13  A    between atoms: C_21  and  C_22
REMARK   14  A    between atoms: C_22  and  N_23
REMARK   15  A    between atoms: N_23  and  C_24
REMARK   16  A    between atoms: N_23  and  C_26
REMARK   17  A    between atoms: C_24  and  C_25
REMARK   18  A    between atoms: C_26  and  C_27
REMARK                            x       y       z     vdW  Elec       q    Type
REMARK                         _______ _______ _______ _____ _____    ______ ____
ROOT
ATOM      1  C   UNL     1       2.816   5.302  19.200  0.00  0.00    +0.000 A 
ATOM      2  C   UNL     1       2.899   5.913  17.932  0.00  0.00    +0.000 A 
ATOM      3  C   UNL     1       2.471   7.225  17.751  0.00  0.00    +0.000 A 
ATOM      4  C   UNL     1       1.945   7.946  18.827  0.00  0.00    +0.000 A 
ATOM      5  C   UNL     1       1.502   9.254  18.650  0.00  0.00    +0.000 A 
ATOM      6  C   UNL     1       0.960   9.951  19.727  0.00  0.00    +0.000 A 
ATOM      7  C   UNL     1       0.488  11.254  19.565  0.00  0.00    +0.000 A 
ATOM      8  C   UNL     1      -0.077  11.928  20.638  0.00  0.00    +0.000 A 
ATOM      9  C   UNL     1      -0.171  11.312  21.900  0.00  0.00    +0.000 A 
ATOM     10  C   UNL     1       0.320  10.009  22.073  0.00  0.00    +0.000 A 
ATOM     11  C   UNL     1       0.877   9.320  20.991  0.00  0.00    +0.000 A 
ATOM     12  N   UNL     1       1.330   8.046  21.148  0.00  0.00    +0.000 NA
ATOM     13  C   UNL     1       1.855   7.345  20.103  0.00  0.00    +0.000 A 
ATOM     14  C   UNL     1       2.292   6.026  20.283  0.00  0.00    +0.000 A 
ENDROOT
BRANCH   1  15
ATOM     15  O   UNL     1       3.218   4.027  19.406  0.00  0.00    +0.000 OA
BRANCH  15  16
ATOM     16  C   UNL     1       4.531   3.602  19.433  0.00  0.00    +0.000 C 
BRANCH  16  17
ATOM     17  C   UNL     1       5.460   4.791  19.247  0.00  0.00    +0.000 C 
BRANCH  17  18
ATOM     18  C   UNL     1       6.410   4.604  18.045  0.00  0.00    +0.000 C 
BRANCH  18  19
ATOM     19  N   UNL     1       6.166   5.527  16.896  0.00  0.00    +0.000 NA
BRANCH  19  21
ATOM     20  C   UNL     1       7.666   7.537  17.484  0.00  0.00    +0.000 C 
ATOM     21  C   UNL     1       6.265   6.937  17.371  0.00  0.00    +0.000 C 
ENDBRANCH  19  21
BRANCH  19  22
ATOM     22  C   UNL     1       7.062   5.066  15.796  0.00  0.00    +0.000 C 
ATOM     23  C   UNL     1       6.443   4.196  14.702  0.00  0.00    +0.000 C 
ENDBRANCH  19  22
ENDBRANCH  18  19
ENDBRANCH  17  18
ENDBRANCH  16  17
ENDBRANCH  15  16
ENDBRANCH   1  15
BRANCH   9  24
ATOM     24  O   UNL     1      -0.739  11.936  22.962  0.00  0.00    +0.000 OA
BRANCH  24  25
ATOM     25  C   UNL     1      -2.061  11.801  23.337  0.00  0.00    +0.000 C 
BRANCH  25  26
ATOM     26  C   UNL     1      -2.833  13.035  22.901  0.00  0.00    +0.000 C 
BRANCH  26  27
ATOM     27  C   UNL     1      -4.022  12.646  22.006  0.00  0.00    +0.000 C 
BRANCH  27  28
ATOM     28  N   UNL     1      -5.250  13.440  22.268  0.00  0.00    +0.000 NA
BRANCH  28  29
ATOM     29  C   UNL     1      -6.517  12.691  22.043  0.00  0.00    +0.000 C 
ATOM     30  C   UNL     1      -6.561  11.904  20.726  0.00  0.00    +0.000 C 
ENDBRANCH  28  29
BRANCH  28  31
ATOM     31  C   UNL     1      -5.140  14.060  23.612  0.00  0.00    +0.000 C 
ATOM     32  C   UNL     1      -6.135  15.197  23.846  0.00  0.00    +0.000 C 
ENDBRANCH  28  31
ENDBRANCH  27  28
ENDBRANCH  26  27
ENDBRANCH  25  26
ENDBRANCH  24  25
ENDBRANCH   9  24
TORSDOF 14
ENDMDL
MODEL 6
REMARK VINA RESULT:      -6.3      3.411     11.117
REMARK  Name = 
REMARK  18 active torsions:
REMARK  status: ('A' for Active; 'I' for Inactive)
REMARK    1  A    between atoms: C_1  and  C_2
REMARK    2  A    between atoms: C_2  and  N_3
REMARK    3  A    between atoms: N_3  and  C_4
REMARK    4  A    between atoms: N_3  and  C_6
REMARK    5  A    between atoms: C_4  and  C_5
REMARK    6  A    between atoms: C_6  and  C_7
REMARK    7  A    between atoms: C_7  and  C_8
REMARK    8  A    between atoms: C_8  and  O_9
REMARK    9  A    between atoms: O_9  and  C_10
REMARK   10  A    between atoms: C_18  and  O_19
REMARK   11  A    between atoms: O_19  and  C_20
REMARK   12  A    between atoms: C_20  and  C_21
REMARK   13  A    between atoms: C_21  and  C_22
REMARK   14  A    between atoms: C_22  and  N_23
REMARK   15  A    between atoms: N_23  and  C_24
REMARK   16  A    between atoms: N_23  and  C_26
REMARK   17  A    between atoms: C_24  and  C_25
REMARK   18  A    between atoms: C_26  and  C_27
REMARK                            x       y       z     vdW  Elec       q    Type
REMARK                         _______ _______ _______ _____ _____    ______ ____
ROOT
ATOM      1  C   UNL     1       2.851   6.175  19.236  0.00  0.00    +0.000 A 
ATOM      2  C   UNL     1       2.964   6.897  18.030  0.00  0.00    +0.000 A 
ATOM      3  C   UNL     1       2.422   8.174  17.918  0.00  0.00    +0.000 A 
ATOM      4  C   UNL     1       1.750   8.748  19.001  0.00  0.00    +0.000 A 
ATOM      5  C   UNL     1       1.193  10.019  18.890  0.00  0.00    +0.000 A 
ATOM      6  C   UNL     1       0.507  10.568  19.972  0.00  0.00    +0.000 A 
ATOM      7  C   UNL     1      -0.079  11.831  19.873  0.00  0.00    +0.000 A 
ATOM      8  C   UNL     1      -0.785  12.355  20.946  0.00  0.00    +0.000 A 
ATOM      9  C   UNL     1      -0.909  11.628  22.146  0.00  0.00    +0.000 A 
ATOM     10  C   UNL     1      -0.304  10.367  22.256  0.00  0.00    +0.000 A 
ATOM     11  C   UNL     1       0.396   9.827  21.171  0.00  0.00    +0.000 A 
ATOM     12  N   UNL     1       0.961   8.592  21.265  0.00  0.00    +0.000 NA
ATOM     13  C   UNL     1       1.628   8.036  20.214  0.00  0.00    +0.000 A 
ATOM     14  C   UNL     1       2.180   6.752  20.326  0.00  0.00    +0.000 A 
ENDROOT
BRANCH   1  15
ATOM     15  O   UNL     1       3.362   4.931  19.375  0.00  0.00    +0.000 OA
BRANCH  15  16
ATOM     16  C   UNL     1       3.287   3.930  18.427  0.00  0.00    +0.000 C 
BRANCH  16  17
ATOM     17  C   UNL     1       4.688   3.502  18.020  0.00  0.00    +0.000 C 
BRANCH  17  18
ATOM     18  C   UNL     1       5.040   3.952  16.587  0.00  0.00    +0.000 C 
BRANCH  18  19
ATOM     19  N   UNL     1       6.481   4.281  16.362  0.00  0.00    +0.000 NA
BRANCH  19  21
ATOM     20  C   UNL     1       6.230   4.019  13.812  0.00  0.00    +0.000 C 
ATOM     21  C   UNL     1       6.639   4.880  15.006  0.00  0.00    +0.000 C 
ENDBRANCH  19  21
BRANCH  19  22
ATOM     22  C   UNL     1       6.920   5.059  17.558  0.00  0.00    +0.000 C 
ATOM     23  C   UNL     1       7.239   6.540  17.355  0.00  0.00    +0.000 C 
ENDBRANCH  19  22
ENDBRANCH  18  19
ENDBRANCH  17  18
ENDBRANCH  16  17
ENDBRANCH  15  16
ENDBRANCH   1  15
BRANCH   9  24
ATOM     24  O   UNL     1      -1.612  12.104  23.204  0.00  0.00    +0.000 OA
BRANCH  24  25
ATOM     25  C   UNL     1      -2.316  13.291  23.208  0.00  0.00    +0.000 C 
BRANCH  25  26
ATOM     26  C   UNL     1      -3.680  13.061  23.837  0.00  0.00    +0.000 C 
BRANCH  26  27
ATOM     27  C   UNL     1      -4.493  14.367  23.866  0.00  0.00    +0.000 C 
BRANCH  27  28
ATOM     28  N   UNL     1      -5.962  14.155  23.800  0.00  0.00    +0.000 NA
BRANCH  28  29
ATOM     29  C   UNL     1      -6.707  15.270  23.151  0.00  0.00    +0.000 C 
ATOM     30  C   UNL     1      -6.191  16.669  23.511  0.00  0.00    +0.000 C 
ENDBRANCH  28  29
BRANCH  28  31
ATOM     31  C   UNL     1      -6.226  12.821  23.206  0.00  0.00    +0.000 C 
ATOM     32  C   UNL     1      -7.685  12.376  23.320  0.00  0.00    +0.000 C 
ENDBRANCH  28  31
ENDBRANCH  27  28
ENDBRANCH  26  27
ENDBRANCH  25  26
ENDBRANCH  24  25
ENDBRANCH   9  24
TORSDOF 14
ENDMDL
MODEL 7
REMARK VINA RESULT:      -6.3      2.634     10.639
REMARK  Name = 
REMARK  18 active torsions:
REMARK  status: ('A' for Active; 'I' for Inactive)
REMARK    1  A    between atoms: C_1  and  C_2
REMARK    2  A    between atoms: C_2  and  N_3
REMARK    3  A    between atoms: N_3  and  C_4
REMARK    4  A    between atoms: N_3  and  C_6
REMARK    5  A    between atoms: C_4  and  C_5
REMARK    6  A    between atoms: C_6  and  C_7
REMARK    7  A    between atoms: C_7  and  C_8
REMARK    8  A    between atoms: C_8  and  O_9
REMARK    9  A    between atoms: O_9  and  C_10
REMARK   10  A    between atoms: C_18  and  O_19
REMARK   11  A    between atoms: O_19  and  C_20
REMARK   12  A    between atoms: C_20  and  C_21
REMARK   13  A    between atoms: C_21  and  C_22
REMARK   14  A    between atoms: C_22  and  N_23
REMARK   15  A    between atoms: N_23  and  C_24
REMARK   16  A    between atoms: N_23  and  C_26
REMARK   17  A    between atoms: C_24  and  C_25
REMARK   18  A    between atoms: C_26  and  C_27
REMARK                            x       y       z     vdW  Elec       q    Type
REMARK                         _______ _______ _______ _____ _____    ______ ____
ROOT
ATOM      1  C   UNL     1       2.727   6.023  19.060  0.00  0.00    +0.000 A 
ATOM      2  C   UNL     1       3.133   6.607  17.842  0.00  0.00    +0.000 A 
ATOM      3  C   UNL     1       2.813   7.930  17.552  0.00  0.00    +0.000 A 
ATOM      4  C   UNL     1       2.077   8.690  18.466  0.00  0.00    +0.000 A 
ATOM      5  C   UNL     1       1.743  10.010  18.176  0.00  0.00    +0.000 A 
ATOM      6  C   UNL     1       0.990  10.747  19.087  0.00  0.00    +0.000 A 
ATOM      7  C   UNL     1       0.624  12.064  18.805  0.00  0.00    +0.000 A 
ATOM      8  C   UNL     1      -0.151  12.778  19.707  0.00  0.00    +0.000 A 
ATOM      9  C   UNL     1      -0.566  12.190  20.917  0.00  0.00    +0.000 A 
ATOM     10  C   UNL     1      -0.183  10.874  21.214  0.00  0.00    +0.000 A 
ATOM     11  C   UNL     1       0.585  10.144  20.301  0.00  0.00    +0.000 A 
ATOM     12  N   UNL     1       0.936   8.857  20.574  0.00  0.00    +0.000 NA
ATOM     13  C   UNL     1       1.664   8.118  19.689  0.00  0.00    +0.000 A 
ATOM     14  C   UNL     1       1.992   6.787  19.981  0.00  0.00    +0.000 A 
ENDROOT
BRANCH   1  15
ATOM     15  O   UNL     1       3.017   4.739  19.368  0.00  0.00    +0.000 OA
BRANCH  15  16
ATOM     16  C   UNL     1       4.285   4.241  19.592  0.00  0.00    +0.000 C 
BRANCH  16  17
ATOM     17  C   UNL     1       4.941   3.891  18.266  0.00  0.00    +0.000 C 
BRANCH  17  18
ATOM     18  C   UNL     1       6.338   4.531  18.122  0.00  0.00    +0.000 C 
BRANCH  18  19
ATOM     19  N   UNL     1       6.733   4.881  16.723  0.00  0.00    +0.000 NA
BRANCH  19  21
ATOM     20  C   UNL     1       6.169   3.982  14.376  0.00  0.00    +0.000 C 
ATOM     21  C   UNL     1       5.701   4.363  15.780  0.00  0.00    +0.000 C 
ENDBRANCH  19  21
BRANCH  19  22
ATOM     22  C   UNL     1       7.044   6.340  16.733  0.00  0.00    +0.000 C 
ATOM     23  C   UNL     1       7.670   6.917  18.002  0.00  0.00    +0.000 C 
ENDBRANCH  19  22
ENDBRANCH  18  19
ENDBRANCH  17  18
ENDBRANCH  16  17
ENDBRANCH  15  16
ENDBRANCH   1  15
BRANCH   9  24
ATOM     24  O   UNL     1      -1.343  12.855  21.808  0.00  0.00    +0.000 OA
BRANCH  24  25
ATOM     25  C   UNL     1      -2.425  13.644  21.472  0.00  0.00    +0.000 C 
BRANCH  25  26
ATOM     26  C   UNL     1      -3.543  12.761  20.943  0.00  0.00    +0.000 C 
BRANCH  26  27
ATOM     27  C   UNL     1      -4.917  13.324  21.343  0.00  0.00    +0.000 C 
BRANCH  27  28
ATOM     28  N   UNL     1      -5.576  12.565  22.437  0.00  0.00    +0.000 NA
BRANCH  28  29
ATOM     29  C   UNL     1      -5.405  13.172  23.786  0.00  0.00    +0.000 C 
ATOM     30  C   UNL     1      -4.432  12.416  24.700  0.00  0.00    +0.000 C 
ENDBRANCH  28  29
BRANCH  28  31
ATOM     31  C   UNL     1      -6.989  12.313  22.058  0.00  0.00    +0.000 C 
ATOM     32  C   UNL     1      -7.232  12.334  20.548  0.00  0.00    +0.000 C 
ENDBRANCH  28  31
ENDBRANCH  27  28
ENDBRANCH  26  27
ENDBRANCH  25  26
ENDBRANCH  24  25
ENDBRANCH   9  24
TORSDOF 14
ENDMDL
MODEL 8
REMARK VINA RESULT:      -6.2      3.381      4.524
REMARK  Name = 
REMARK  18 active torsions:
REMARK  status: ('A' for Active; 'I' for Inactive)
REMARK    1  A    between atoms: C_1  and  C_2
REMARK    2  A    between atoms: C_2  and  N_3
REMARK    3  A    between atoms: N_3  and  C_4
REMARK    4  A    between atoms: N_3  and  C_6
REMARK    5  A    between atoms: C_4  and  C_5
REMARK    6  A    between atoms: C_6  and  C_7
REMARK    7  A    between atoms: C_7  and  C_8
REMARK    8  A    between atoms: C_8  and  O_9
REMARK    9  A    between atoms: O_9  and  C_10
REMARK   10  A    between atoms: C_18  and  O_19
REMARK   11  A    between atoms: O_19  and  C_20
REMARK   12  A    between atoms: C_20  and  C_21
REMARK   13  A    between atoms: C_21  and  C_22
REMARK   14  A    between atoms: C_22  and  N_23
REMARK   15  A    between atoms: N_23  and  C_24
REMARK   16  A    between atoms: N_23  and  C_26
REMARK   17  A    between atoms: C_24  and  C_25
REMARK   18  A    between atoms: C_26  and  C_27
REMARK                            x       y       z     vdW  Elec       q    Type
REMARK                         _______ _______ _______ _____ _____    ______ ____
ROOT
ATOM      1  C   UNL     1      -1.163  11.656  22.461  0.00  0.00    +0.000 A 
ATOM      2  C   UNL     1      -1.025  12.386  21.263  0.00  0.00    +0.000 A 
ATOM      3  C   UNL     1      -0.347  11.840  20.176  0.00  0.00    +0.000 A 
ATOM      4  C   UNL     1       0.212  10.563  20.270  0.00  0.00    +0.000 A 
ATOM      5  C   UNL     1       0.903  10.016  19.191  0.00  0.00    +0.000 A 
ATOM      6  C   UNL     1       1.473   8.750  19.307  0.00  0.00    +0.000 A 
ATOM      7  C   UNL     1       2.190   8.195  18.247  0.00  0.00    +0.000 A 
ATOM      8  C   UNL     1       2.780   6.947  18.385  0.00  0.00    +0.000 A 
ATOM      9  C   UNL     1       2.652   6.223  19.586  0.00  0.00    +0.000 A 
ATOM     10  C   UNL     1       1.915   6.769  20.648  0.00  0.00    +0.000 A 
ATOM     11  C   UNL     1       1.332   8.035  20.520  0.00  0.00    +0.000 A 
ATOM     12  N   UNL     1       0.639   8.579  21.557  0.00  0.00    +0.000 NA
ATOM     13  C   UNL     1       0.082   9.820  21.464  0.00  0.00    +0.000 A 
ATOM     14  C   UNL     1      -0.605  10.371  22.555  0.00  0.00    +0.000 A 
ENDROOT
BRANCH   1  15
ATOM     15  O   UNL     1      -1.810  12.161  23.535  0.00  0.00    +0.000 OA
BRANCH  15  16
ATOM     16  C   UNL     1      -2.608  13.287  23.526  0.00  0.00    +0.000 C 
BRANCH  16  17
ATOM     17  C   UNL     1      -3.881  13.021  24.314  0.00  0.00    +0.000 C 
BRANCH  17  18
ATOM     18  C   UNL     1      -5.150  13.336  23.495  0.00  0.00    +0.000 C 
BRANCH  18  19
ATOM     19  N   UNL     1      -5.634  14.747  23.595  0.00  0.00    +0.000 NA
BRANCH  19  21
ATOM     20  C   UNL     1      -5.299  14.728  21.040  0.00  0.00    +0.000 C 
ATOM     21  C   UNL     1      -5.236  15.489  22.365  0.00  0.00    +0.000 C 
ENDBRANCH  19  21
BRANCH  19  22
ATOM     22  C   UNL     1      -7.079  14.663  23.958  0.00  0.00    +0.000 C 
ATOM     23  C   UNL     1      -7.693  13.270  24.088  0.00  0.00    +0.000 C 
ENDBRANCH  19  22
ENDBRANCH  18  19
ENDBRANCH  17  18
ENDBRANCH  16  17
ENDBRANCH  15  16
ENDBRANCH   1  15
BRANCH   9  24
ATOM     24  O   UNL     1       3.236   5.011  19.759  0.00  0.00    +0.000 OA
BRANCH  24  25
ATOM     25  C   UNL     1       3.409   4.074  18.761  0.00  0.00    +0.000 C 
BRANCH  25  26
ATOM     26  C   UNL     1       4.877   4.021  18.372  0.00  0.00    +0.000 C 
BRANCH  26  27
ATOM     27  C   UNL     1       5.054   4.309  16.872  0.00  0.00    +0.000 C 
BRANCH  27  28
ATOM     28  N   UNL     1       6.177   5.235  16.572  0.00  0.00    +0.000 NA
BRANCH  28  29
ATOM     29  C   UNL     1       6.827   5.812  17.781  0.00  0.00    +0.000 C 
ATOM     30  C   UNL     1       7.448   7.198  17.563  0.00  0.00    +0.000 C 
ENDBRANCH  28  29
BRANCH  28  31
ATOM     31  C   UNL     1       7.115   4.560  15.640  0.00  0.00    +0.000 C 
ATOM     32  C   UNL     1       6.768   4.767  14.165  0.00  0.00    +0.000 C 
ENDBRANCH  28  31
ENDBRANCH  27  28
ENDBRANCH  26  27
ENDBRANCH  25  26
ENDBRANCH  24  25
ENDBRANCH   9  24
TORSDOF 14
ENDMDL
MODEL 9
REMARK VINA RESULT:      -6.2      2.929      4.552
REMARK  Name = 
REMARK  18 active torsions:
REMARK  status: ('A' for Active; 'I' for Inactive)
REMARK    1  A    between atoms: C_1  and  C_2
REMARK    2  A    between atoms: C_2  and  N_3
REMARK    3  A    between atoms: N_3  and  C_4
REMARK    4  A    between atoms: N_3  and  C_6
REMARK    5  A    between atoms: C_4  and  C_5
REMARK    6  A    between atoms: C_6  and  C_7
REMARK    7  A    between atoms: C_7  and  C_8
REMARK    8  A    between atoms: C_8  and  O_9
REMARK    9  A    between atoms: O_9  and  C_10
REMARK   10  A    between atoms: C_18  and  O_19
REMARK   11  A    between atoms: O_19  and  C_20
REMARK   12  A    between atoms: C_20  and  C_21
REMARK   13  A    between atoms: C_21  and  C_22
REMARK   14  A    between atoms: C_22  and  N_23
REMARK   15  A    between atoms: N_23  and  C_24
REMARK   16  A    between atoms: N_23  and  C_26
REMARK   17  A    between atoms: C_24  and  C_25
REMARK   18  A    between atoms: C_26  and  C_27
REMARK                            x       y       z     vdW  Elec       q    Type
REMARK                         _______ _______ _______ _____ _____    ______ ____
ROOT
ATOM      1  C   UNL     1       0.698  11.719  19.119  0.00  0.00    +0.000 A 
ATOM      2  C   UNL     1       0.258  11.474  20.437  0.00  0.00    +0.000 A 
ATOM      3  C   UNL     1       0.455  10.230  21.028  0.00  0.00    +0.000 A 
ATOM      4  C   UNL     1       1.086   9.207  20.315  0.00  0.00    +0.000 A 
ATOM      5  C   UNL     1       1.275   7.956  20.896  0.00  0.00    +0.000 A 
ATOM      6  C   UNL     1       1.885   6.940  20.164  0.00  0.00    +0.000 A 
ATOM      7  C   UNL     1       2.062   5.672  20.719  0.00  0.00    +0.000 A 
ATOM      8  C   UNL     1       2.644   4.660  19.971  0.00  0.00    +0.000 A 
ATOM      9  C   UNL     1       3.072   4.901  18.651  0.00  0.00    +0.000 A 
ATOM     10  C   UNL     1       2.916   6.180  18.096  0.00  0.00    +0.000 A 
ATOM     11  C   UNL     1       2.315   7.200  18.841  0.00  0.00    +0.000 A 
ATOM     12  N   UNL     1       2.136   8.435  18.296  0.00  0.00    +0.000 NA
ATOM     13  C   UNL     1       1.532   9.437  18.994  0.00  0.00    +0.000 A 
ATOM     14  C   UNL     1       1.336  10.693  18.403  0.00  0.00    +0.000 A 
ENDROOT
BRANCH   1  15
ATOM     15  O   UNL     1       0.516  12.915  18.515  0.00  0.00    +0.000 OA
BRANCH  15  16
ATOM     16  C   UNL     1       0.647  14.144  19.129  0.00  0.00    +0.000 C 
BRANCH  16  17
ATOM     17  C   UNL     1       1.958  14.790  18.710  0.00  0.00    +0.000 C 
BRANCH  17  18
ATOM     18  C   UNL     1       2.907  15.008  19.906  0.00  0.00    +0.000 C 
BRANCH  18  19
ATOM     19  N   UNL     1       4.182  15.717  19.582  0.00  0.00    +0.000 NA
BRANCH  19  21
ATOM     20  C   UNL     1       5.684  14.604  17.810  0.00  0.00    +0.000 C 
ATOM     21  C   UNL     1       4.502  15.514  18.140  0.00  0.00    +0.000 C 
ENDBRANCH  19  21
BRANCH  19  22
ATOM     22  C   UNL     1       4.029  17.107  20.104  0.00  0.00    +0.000 C 
ATOM     23  C   UNL     1       3.065  17.316  21.272  0.00  0.00    +0.000 C 
ENDBRANCH  19  22
ENDBRANCH  18  19
ENDBRANCH  17  18
ENDBRANCH  16  17
ENDBRANCH  15  16
ENDBRANCH   1  15
BRANCH   9  24
ATOM     24  O   UNL     1       3.624   3.926  17.886  0.00  0.00    +0.000 OA
BRANCH  24  25
ATOM     25  C   UNL     1       4.886   3.400  18.075  0.00  0.00    +0.000 C 
BRANCH  25  26
ATOM     26  C   UNL     1       5.862   4.529  18.359  0.00  0.00    +0.000 C 
BRANCH  26  27
ATOM     27  C   UNL     1       6.862   4.689  17.201  0.00  0.00    +0.000 C 
BRANCH  27  28
ATOM     28  N   UNL     1       6.579   5.857  16.327  0.00  0.00    +0.000 NA
BRANCH  28  29
ATOM     29  C   UNL     1       5.480   5.630  15.348  0.00  0.00    +0.000 C 
ATOM     30  C   UNL     1       5.736   4.479  14.366  0.00  0.00    +0.000 C 
ENDBRANCH  28  29
BRANCH  28  31
ATOM     31  C   UNL     1       6.397   7.057  17.179  0.00  0.00    +0.000 C 
ATOM     32  C   UNL     1       7.711   7.723  17.590  0.00  0.00    +0.000 C 
ENDBRANCH  28  31
ENDBRANCH  27  28
ENDBRANCH  26  27
ENDBRANCH  25  26
ENDBRANCH  24  25
ENDBRANCH   9  24
TORSDOF 14
ENDMDL
