MODEL 1
REMARK VINA RESULT:      -6.4      0.000      0.000
REMARK  Name = 
REMARK  2 active torsions:
REMARK  status: ('A' for Active; 'I' for Inactive)
REMARK    1  A    between atoms: C_1  and  C_2
REMARK    2  A    between atoms: C_12  and  C_14
REMARK                            x       y       z     vdW  Elec       q    Type
REMARK                         _______ _______ _______ _____ _____    ______ ____
ROOT
ATOM      1  C   UNL     1      -7.086  10.385  19.779  0.00  0.00    +0.000 C 
ATOM      2  C   UNL     1      -6.694  11.362  20.837  0.00  0.00    +0.000 A 
ATOM      3  N   UNL     1      -7.530  11.638  21.872  0.00  0.00    +0.000 NA
ATOM      4  C   UNL     1      -7.182  12.530  22.836  0.00  0.00    +0.000 A 
ATOM      5  C   UNL     1      -5.936  13.161  22.789  0.00  0.00    +0.000 A 
ATOM      6  C   UNL     1      -5.070  12.830  21.741  0.00  0.00    +0.000 A 
ATOM      7  N   UNL     1      -5.472  11.946  20.788  0.00  0.00    +0.000 NA
ATOM      8  C   UNL     1      -3.637  13.273  21.849  0.00  0.00    +0.000 C 
ATOM      9  C   UNL     1      -3.063  12.348  22.948  0.00  0.00    +0.000 C 
ATOM     10  C   UNL     1      -1.602  12.660  23.074  0.00  0.00    +0.000 C 
ATOM     11  N   UNL     1      -1.048  11.875  21.996  0.00  0.00    +0.000 N 
ATOM     12  C   UNL     1      -0.617  10.585  22.348  0.00  0.00    +0.000 C 
ATOM     13  O   UNL     1      -0.582  10.292  23.531  0.00  0.00    +0.000 OA
ATOM     14  C   UNL     1      -1.268  12.514  20.688  0.00  0.00    +0.000 C 
ATOM     15  C   UNL     1      -2.775  13.004  20.516  0.00  0.00    +0.000 C 
ATOM     16  O   UNL     1      -3.623  14.654  22.264  0.00  0.00    +0.000 OA
ATOM     17  C   UNL     1      -4.131  14.809  23.606  0.00  0.00    +0.000 C 
ATOM     18  C   UNL     1      -5.543  14.190  23.827  0.00  0.00    +0.000 C 
ENDROOT
BRANCH  12  19
ATOM     19  C   UNL     1      -0.228   9.393  21.495  0.00  0.00    +0.000 C 
ATOM     20  C   UNL     1       0.857   9.131  20.454  0.00  0.00    +0.000 C 
ATOM     21  C   UNL     1       1.155   8.936  21.927  0.00  0.00    +0.000 C 
ENDBRANCH  12  19
TORSDOF 1
ENDMDL
MODEL 2
REMARK VINA RESULT:      -6.1      4.231      6.039
REMARK  Name = 
REMARK  2 active torsions:
REMARK  status: ('A' for Active; 'I' for Inactive)
REMARK    1  A    between atoms: C_1  and  C_2
REMARK    2  A    between atoms: C_12  and  C_14
REMARK                            x       y       z     vdW  Elec       q    Type
REMARK                         _______ _______ _______ _____ _____    ______ ____
ROOT
ATOM      1  C   UNL     1      -2.811   9.504  15.683  0.00  0.00    +0.000 C 
ATOM      2  C   UNL     1      -2.309  10.102  16.955  0.00  0.00    +0.000 A 
ATOM      3  N   UNL     1      -3.153  10.752  17.798  0.00  0.00    +0.000 NA
ATOM      4  C   UNL     1      -2.702  11.303  18.955  0.00  0.00    +0.000 A 
ATOM      5  C   UNL     1      -1.356  11.182  19.309  0.00  0.00    +0.000 A 
ATOM      6  C   UNL     1      -0.511  10.470  18.452  0.00  0.00    +0.000 A 
ATOM      7  N   UNL     1      -1.005   9.954  17.293  0.00  0.00    +0.000 NA
ATOM      8  C   UNL     1       0.850  10.088  18.966  0.00  0.00    +0.000 C 
ATOM      9  C   UNL     1       0.539   8.973  19.992  0.00  0.00    +0.000 C 
ATOM     10  C   UNL     1       1.852   8.464  20.508  0.00  0.00    +0.000 C 
ATOM     11  N   UNL     1       2.224   7.531  19.470  0.00  0.00    +0.000 N 
ATOM     12  C   UNL     1       1.830   6.200  19.685  0.00  0.00    +0.000 C 
ATOM     13  O   UNL     1       1.371   5.904  20.776  0.00  0.00    +0.000 OA
ATOM     14  C   UNL     1       2.741   8.221  18.277  0.00  0.00    +0.000 C 
ATOM     15  C   UNL     1       1.804   9.437  17.845  0.00  0.00    +0.000 C 
ATOM     16  O   UNL     1       1.430  11.243  19.604  0.00  0.00    +0.000 OA
ATOM     17  C   UNL     1       0.705  11.611  20.796  0.00  0.00    +0.000 C 
ATOM     18  C   UNL     1      -0.821  11.825  20.572  0.00  0.00    +0.000 C 
ENDROOT
BRANCH  12  19
ATOM     19  C   UNL     1       1.799   5.003  18.755  0.00  0.00    +0.000 C 
ATOM     20  C   UNL     1       2.718   4.479  17.654  0.00  0.00    +0.000 C 
ATOM     21  C   UNL     1       2.976   4.106  19.101  0.00  0.00    +0.000 C 
ENDBRANCH  12  19
TORSDOF 1
ENDMDL
MODEL 3
REMARK VINA RESULT:      -6.0     10.634     12.112
REMARK  Name = 
REMARK  2 active torsions:
REMARK  status: ('A' for Active; 'I' for Inactive)
REMARK    1  A    between atoms: C_1  and  C_2
REMARK    2  A    between atoms: C_12  and  C_14
REMARK                            x       y       z     vdW  Elec       q    Type
REMARK                         _______ _______ _______ _____ _____    ______ ____
ROOT
ATOM      1  C   UNL     1       5.618   1.175  21.593  0.00  0.00    +0.000 C 
ATOM      2  C   UNL     1       4.371   1.791  21.050  0.00  0.00    +0.000 A 
ATOM      3  N   UNL     1       3.277   1.954  21.839  0.00  0.00    +0.000 NA
ATOM      4  C   UNL     1       2.137   2.508  21.351  0.00  0.00    +0.000 A 
ATOM      5  C   UNL     1       2.084   2.947  20.026  0.00  0.00    +0.000 A 
ATOM      6  C   UNL     1       3.235   2.814  19.242  0.00  0.00    +0.000 A 
ATOM      7  N   UNL     1       4.347   2.233  19.769  0.00  0.00    +0.000 NA
ATOM      8  C   UNL     1       3.277   3.545  17.928  0.00  0.00    +0.000 C 
ATOM      9  C   UNL     1       3.435   5.024  18.352  0.00  0.00    +0.000 C 
ATOM     10  C   UNL     1       3.569   5.835  17.098  0.00  0.00    +0.000 C 
ATOM     11  N   UNL     1       4.974   5.675  16.804  0.00  0.00    +0.000 N 
ATOM     12  C   UNL     1       5.818   6.672  17.322  0.00  0.00    +0.000 C 
ATOM     13  O   UNL     1       5.304   7.660  17.819  0.00  0.00    +0.000 OA
ATOM     14  C   UNL     1       5.260   4.357  16.212  0.00  0.00    +0.000 C 
ATOM     15  C   UNL     1       4.560   3.179  17.027  0.00  0.00    +0.000 C 
ATOM     16  O   UNL     1       2.025   3.323  17.249  0.00  0.00    +0.000 OA
ATOM     17  C   UNL     1       0.925   3.942  17.949  0.00  0.00    +0.000 C 
ATOM     18  C   UNL     1       0.811   3.528  19.447  0.00  0.00    +0.000 C 
ENDROOT
BRANCH  12  19
ATOM     19  C   UNL     1       7.326   6.736  17.455  0.00  0.00    +0.000 C 
ATOM     20  C   UNL     1       8.285   7.299  18.500  0.00  0.00    +0.000 C 
ATOM     21  C   UNL     1       7.731   5.897  18.655  0.00  0.00    +0.000 C 
ENDBRANCH  12  19
TORSDOF 1
ENDMDL
MODEL 4
REMARK VINA RESULT:      -6.0      4.482      6.769
REMARK  Name = 
REMARK  2 active torsions:
REMARK  status: ('A' for Active; 'I' for Inactive)
REMARK    1  A    between atoms: C_1  and  C_2
REMARK    2  A    between atoms: C_12  and  C_14
REMARK                            x       y       z     vdW  Elec       q    Type
REMARK                         _______ _______ _______ _____ _____    ______ ____
ROOT
ATOM      1  C   UNL     1       2.398   8.050  17.916  0.00  0.00    +0.000 C 
ATOM      2  C   UNL     1       1.728   8.552  19.152  0.00  0.00    +0.000 A 
ATOM      3  N   UNL     1       1.862   7.891  20.332  0.00  0.00    +0.000 NA
ATOM      4  C   UNL     1       1.251   8.339  21.460  0.00  0.00    +0.000 A 
ATOM      5  C   UNL     1       0.493   9.512  21.426  0.00  0.00    +0.000 A 
ATOM      6  C   UNL     1       0.404  10.204  20.213  0.00  0.00    +0.000 A 
ATOM      7  N   UNL     1       1.017   9.704  19.105  0.00  0.00    +0.000 NA
ATOM      8  C   UNL     1      -0.153  11.601  20.242  0.00  0.00    +0.000 C 
ATOM      9  C   UNL     1       0.976  12.417  20.913  0.00  0.00    +0.000 C 
ATOM     10  C   UNL     1       0.545  13.854  20.915  0.00  0.00    +0.000 C 
ATOM     11  N   UNL     1       0.917  14.264  19.580  0.00  0.00    +0.000 N 
ATOM     12  C   UNL     1       2.194  14.837  19.458  0.00  0.00    +0.000 C 
ATOM     13  O   UNL     1       2.809  15.096  20.479  0.00  0.00    +0.000 OA
ATOM     14  C   UNL     1      -0.042  13.778  18.574  0.00  0.00    +0.000 C 
ATOM     15  C   UNL     1      -0.382  12.234  18.780  0.00  0.00    +0.000 C 
ATOM     16  O   UNL     1      -1.347  11.592  21.049  0.00  0.00    +0.000 OA
ATOM     17  C   UNL     1      -1.049  11.315  22.434  0.00  0.00    +0.000 C 
ATOM     18  C   UNL     1      -0.233  10.008  22.659  0.00  0.00    +0.000 C 
ENDROOT
BRANCH  12  19
ATOM     19  C   UNL     1       3.035  15.152  18.238  0.00  0.00    +0.000 C 
ATOM     20  C   UNL     1       3.096  16.316  17.251  0.00  0.00    +0.000 C 
ATOM     21  C   UNL     1       3.877  16.378  18.549  0.00  0.00    +0.000 C 
ENDBRANCH  12  19
TORSDOF 1
ENDMDL
MODEL 5
REMARK VINA RESULT:      -5.8      3.169      4.311
REMARK  Name = 
REMARK  2 active torsions:
REMARK  status: ('A' for Active; 'I' for Inactive)
REMARK    1  A    between atoms: C_1  and  C_2
REMARK    2  A    between atoms: C_12  and  C_14
REMARK                            x       y       z     vdW  Elec       q    Type
REMARK                         _______ _______ _______ _____ _____    ______ ____
ROOT
ATOM      1  C   UNL     1      -2.981  10.409  14.780  0.00  0.00    +0.000 C 
ATOM      2  C   UNL     1      -3.268  10.924  16.152  0.00  0.00    +0.000 A 
ATOM      3  N   UNL     1      -4.532  10.906  16.649  0.00  0.00    +0.000 NA
ATOM      4  C   UNL     1      -4.803  11.378  17.894  0.00  0.00    +0.000 A 
ATOM      5  C   UNL     1      -3.769  11.866  18.697  0.00  0.00    +0.000 A 
ATOM      6  C   UNL     1      -2.467  11.834  18.186  0.00  0.00    +0.000 A 
ATOM      7  N   UNL     1      -2.249  11.371  16.924  0.00  0.00    +0.000 NA
ATOM      8  C   UNL     1      -1.332  12.076  19.142  0.00  0.00    +0.000 C 
ATOM      9  C   UNL     1      -1.300  10.782  19.988  0.00  0.00    +0.000 C 
ATOM     10  C   UNL     1      -0.137  10.893  20.927  0.00  0.00    +0.000 C 
ATOM     11  N   UNL     1       0.956  10.475  20.080  0.00  0.00    +0.000 N 
ATOM     12  C   UNL     1       1.275   9.108  20.136  0.00  0.00    +0.000 C 
ATOM     13  O   UNL     1       0.741   8.426  20.994  0.00  0.00    +0.000 OA
ATOM     14  C   UNL     1       1.360  11.540  19.148  0.00  0.00    +0.000 C 
ATOM     15  C   UNL     1       0.103  12.199  18.422  0.00  0.00    +0.000 C 
ATOM     16  O   UNL     1      -1.661  13.224  19.950  0.00  0.00    +0.000 OA
ATOM     17  C   UNL     1      -2.786  12.958  20.815  0.00  0.00    +0.000 C 
ATOM     18  C   UNL     1      -4.051  12.437  20.071  0.00  0.00    +0.000 C 
ENDROOT
BRANCH  12  19
ATOM     19  C   UNL     1       2.152   8.249  19.247  0.00  0.00    +0.000 C 
ATOM     20  C   UNL     1       1.884   7.167  18.204  0.00  0.00    +0.000 C 
ATOM     21  C   UNL     1       1.875   8.628  17.802  0.00  0.00    +0.000 C 
ENDBRANCH  12  19
TORSDOF 1
ENDMDL
MODEL 6
REMARK VINA RESULT:      -5.7     10.052     12.951
REMARK  Name = 
REMARK  2 active torsions:
REMARK  status: ('A' for Active; 'I' for Inactive)
REMARK    1  A    between atoms: C_1  and  C_2
REMARK    2  A    between atoms: C_12  and  C_14
REMARK                            x       y       z     vdW  Elec       q    Type
REMARK                         _______ _______ _______ _____ _____    ______ ____
ROOT
ATOM      1  C   UNL     1       7.928   5.683  20.588  0.00  0.00    +0.000 C 
ATOM      2  C   UNL     1       7.560   5.291  19.196  0.00  0.00    +0.000 A 
ATOM      3  N   UNL     1       8.433   4.602  18.415  0.00  0.00    +0.000 NA
ATOM      4  C   UNL     1       8.107   4.246  17.145  0.00  0.00    +0.000 A 
ATOM      5  C   UNL     1       6.847   4.563  16.631  0.00  0.00    +0.000 A 
ATOM      6  C   UNL     1       5.945   5.232  17.465  0.00  0.00    +0.000 A 
ATOM      7  N   UNL     1       6.325   5.586  18.723  0.00  0.00    +0.000 NA
ATOM      8  C   UNL     1       4.508   5.309  17.026  0.00  0.00    +0.000 C 
ATOM      9  C   UNL     1       4.001   3.861  17.221  0.00  0.00    +0.000 C 
ATOM     10  C   UNL     1       2.540   3.852  16.883  0.00  0.00    +0.000 C 
ATOM     11  N   UNL     1       1.959   4.319  18.120  0.00  0.00    +0.000 N 
ATOM     12  C   UNL     1       1.570   3.315  19.022  0.00  0.00    +0.000 C 
ATOM     13  O   UNL     1       1.591   2.157  18.639  0.00  0.00    +0.000 OA
ATOM     14  C   UNL     1       2.110   5.775  18.277  0.00  0.00    +0.000 C 
ATOM     15  C   UNL     1       3.598   6.252  17.960  0.00  0.00    +0.000 C 
ATOM     16  O   UNL     1       4.483   5.692  15.637  0.00  0.00    +0.000 OA
ATOM     17  C   UNL     1       5.043   4.665  14.792  0.00  0.00    +0.000 C 
ATOM     18  C   UNL     1       6.476   4.215  15.205  0.00  0.00    +0.000 C 
ENDROOT
BRANCH  12  19
ATOM     19  C   UNL     1       1.171   3.383  20.483  0.00  0.00    +0.000 C 
ATOM     20  C   UNL     1       1.632   2.671  21.752  0.00  0.00    +0.000 C 
ATOM     21  C   UNL     1       2.357   3.912  21.272  0.00  0.00    +0.000 C 
ENDBRANCH  12  19
TORSDOF 1
ENDMDL
MODEL 7
REMARK VINA RESULT:      -5.7      9.370     13.011
REMARK  Name = 
REMARK  2 active torsions:
REMARK  status: ('A' for Active; 'I' for Inactive)
REMARK    1  A    between atoms: C_1  and  C_2
REMARK    2  A    between atoms: C_12  and  C_14
REMARK                            x       y       z     vdW  Elec       q    Type
REMARK                         _______ _______ _______ _____ _____    ______ ____
ROOT
ATOM      1  C   UNL     1       9.271  10.083  19.211  0.00  0.00    +0.000 C 
ATOM      2  C   UNL     1       9.618  11.455  18.736  0.00  0.00    +0.000 A 
ATOM      3  N   UNL     1      10.473  11.634  17.695  0.00  0.00    +0.000 NA
ATOM      4  C   UNL     1      10.797  12.880  17.261  0.00  0.00    +0.000 A 
ATOM      5  C   UNL     1      10.230  14.003  17.869  0.00  0.00    +0.000 A 
ATOM      6  C   UNL     1       9.317  13.798  18.908  0.00  0.00    +0.000 A 
ATOM      7  N   UNL     1       9.039  12.531  19.322  0.00  0.00    +0.000 NA
ATOM      8  C   UNL     1       8.491  14.971  19.358  0.00  0.00    +0.000 C 
ATOM      9  C   UNL     1       7.497  15.171  18.190  0.00  0.00    +0.000 C 
ATOM     10  C   UNL     1       6.566  16.280  18.583  0.00  0.00    +0.000 C 
ATOM     11  N   UNL     1       5.607  15.572  19.399  0.00  0.00    +0.000 N 
ATOM     12  C   UNL     1       4.469  15.102  18.722  0.00  0.00    +0.000 C 
ATOM     13  O   UNL     1       4.294  15.462  17.570  0.00  0.00    +0.000 OA
ATOM     14  C   UNL     1       6.140  15.285  20.740  0.00  0.00    +0.000 C 
ATOM     15  C   UNL     1       7.612  14.675  20.674  0.00  0.00    +0.000 C 
ATOM     16  O   UNL     1       9.366  16.107  19.505  0.00  0.00    +0.000 OA
ATOM     17  C   UNL     1       9.900  16.533  18.233  0.00  0.00    +0.000 C 
ATOM     18  C   UNL     1      10.609  15.402  17.431  0.00  0.00    +0.000 C 
ENDROOT
BRANCH  12  19
ATOM     19  C   UNL     1       3.388  14.126  19.142  0.00  0.00    +0.000 C 
ATOM     20  C   UNL     1       2.109  14.236  19.968  0.00  0.00    +0.000 C 
ATOM     21  C   UNL     1       2.086  14.552  18.486  0.00  0.00    +0.000 C 
ENDBRANCH  12  19
TORSDOF 1
ENDMDL
MODEL 8
REMARK VINA RESULT:      -5.6     10.182     13.055
REMARK  Name = 
REMARK  2 active torsions:
REMARK  status: ('A' for Active; 'I' for Inactive)
REMARK    1  A    between atoms: C_1  and  C_2
REMARK    2  A    between atoms: C_12  and  C_14
REMARK                            x       y       z     vdW  Elec       q    Type
REMARK                         _______ _______ _______ _____ _____    ______ ____
ROOT
ATOM      1  C   UNL     1       5.567   3.249  13.434  0.00  0.00    +0.000 C 
ATOM      2  C   UNL     1       6.127   4.153  14.481  0.00  0.00    +0.000 A 
ATOM      3  N   UNL     1       6.765   5.303  14.137  0.00  0.00    +0.000 NA
ATOM      4  C   UNL     1       7.282   6.128  15.084  0.00  0.00    +0.000 A 
ATOM      5  C   UNL     1       7.138   5.816  16.439  0.00  0.00    +0.000 A 
ATOM      6  C   UNL     1       6.438   4.652  16.775  0.00  0.00    +0.000 A 
ATOM      7  N   UNL     1       5.956   3.846  15.790  0.00  0.00    +0.000 NA
ATOM      8  C   UNL     1       6.028   4.471  18.211  0.00  0.00    +0.000 C 
ATOM      9  C   UNL     1       4.892   5.505  18.387  0.00  0.00    +0.000 C 
ATOM     10  C   UNL     1       4.356   5.344  19.779  0.00  0.00    +0.000 C 
ATOM     11  N   UNL     1       3.445   4.236  19.607  0.00  0.00    +0.000 N 
ATOM     12  C   UNL     1       2.114   4.587  19.331  0.00  0.00    +0.000 C 
ATOM     13  O   UNL     1       1.796   5.761  19.423  0.00  0.00    +0.000 OA
ATOM     14  C   UNL     1       4.159   2.952  19.528  0.00  0.00    +0.000 C 
ATOM     15  C   UNL     1       5.395   3.024  18.523  0.00  0.00    +0.000 C 
ATOM     16  O   UNL     1       7.161   4.786  19.045  0.00  0.00    +0.000 OA
ATOM     17  C   UNL     1       7.507   6.185  18.963  0.00  0.00    +0.000 C 
ATOM     18  C   UNL     1       7.743   6.697  17.511  0.00  0.00    +0.000 C 
ENDROOT
BRANCH  12  19
ATOM     19  C   UNL     1       0.941   3.757  18.847  0.00  0.00    +0.000 C 
ATOM     20  C   UNL     1       0.689   2.262  18.669  0.00  0.00    +0.000 C 
ATOM     21  C   UNL     1       0.443   2.919  20.013  0.00  0.00    +0.000 C 
ENDBRANCH  12  19
TORSDOF 1
ENDMDL
MODEL 9
REMARK VINA RESULT:      -5.5      3.185      4.351
REMARK  Name = 
REMARK  2 active torsions:
REMARK  status: ('A' for Active; 'I' for Inactive)
REMARK    1  A    between atoms: C_1  and  C_2
REMARK    2  A    between atoms: C_12  and  C_14
REMARK                            x       y       z     vdW  Elec       q    Type
REMARK                         _______ _______ _______ _____ _____    ______ ____
ROOT
ATOM      1  C   UNL     1      -3.679  10.830  15.320  0.00  0.00    +0.000 C 
ATOM      2  C   UNL     1      -3.566  11.288  16.736  0.00  0.00    +0.000 A 
ATOM      3  N   UNL     1      -4.665  11.367  17.530  0.00  0.00    +0.000 NA
ATOM      4  C   UNL     1      -4.571  11.788  18.818  0.00  0.00    +0.000 A 
ATOM      5  C   UNL     1      -3.325  12.123  19.356  0.00  0.00    +0.000 A 
ATOM      6  C   UNL     1      -2.199  11.992  18.537  0.00  0.00    +0.000 A 
ATOM      7  N   UNL     1      -2.346  11.586  17.246  0.00  0.00    +0.000 NA
ATOM      8  C   UNL     1      -0.846  12.063  19.190  0.00  0.00    +0.000 C 
ATOM      9  C   UNL     1      -0.753  10.724  19.957  0.00  0.00    +0.000 C 
ATOM     10  C   UNL     1       0.609  10.663  20.583  0.00  0.00    +0.000 C 
ATOM     11  N   UNL     1       1.410  10.190  19.478  0.00  0.00    +0.000 N 
ATOM     12  C   UNL     1       1.579   8.797  19.407  0.00  0.00    +0.000 C 
ATOM     13  O   UNL     1       1.197   8.122  20.348  0.00  0.00    +0.000 OA
ATOM     14  C   UNL     1       1.691  11.263  18.510  0.00  0.00    +0.000 C 
ATOM     15  C   UNL     1       0.376  12.086  18.141  0.00  0.00    +0.000 C 
ATOM     16  O   UNL     1      -0.840  13.188  20.091  0.00  0.00    +0.000 OA
ATOM     17  C   UNL     1      -1.743  12.984  21.199  0.00  0.00    +0.000 C 
ATOM     18  C   UNL     1      -3.201  12.636  20.775  0.00  0.00    +0.000 C 
ENDROOT
BRANCH  12  19
ATOM     19  C   UNL     1       2.113   7.909  18.300  0.00  0.00    +0.000 C 
ATOM     20  C   UNL     1       3.506   7.462  17.866  0.00  0.00    +0.000 C 
ATOM     21  C   UNL     1       2.763   6.695  18.942  0.00  0.00    +0.000 C 
ENDBRANCH  12  19
TORSDOF 1
ENDMDL
