MODEL 1
REMARK VINA RESULT:      -7.6      0.000      0.000
REMARK  Name = 
REMARK  10 active torsions:
REMARK  status: ('A' for Active; 'I' for Inactive)
REMARK    1  A    between atoms: C_1  and  C_2
REMARK    2  A    between atoms: C_3  and  C_4
REMARK    3  A    between atoms: C_4  and  C_5
REMARK    4  A    between atoms: N_7  and  C_8
REMARK    5  A    between atoms: N_7  and  C_9
REMARK    6  A    between atoms: C_9  and  C_10
REMARK    7  A    between atoms: C_10  and  O_11
REMARK    8  A    between atoms: O_11  and  C_12
REMARK    9  A    between atoms: C_15  and  C_16
REMARK   10  A    between atoms: C_16  and  C_17
REMARK                            x       y       z     vdW  Elec       q    Type
REMARK                         _______ _______ _______ _____ _____    ______ ____
ROOT
ATOM      1  C   UNL     1       2.557   7.502  18.974  0.00  0.00    +0.000 A 
ATOM      2  C   UNL     1       2.390   8.252  17.812  0.00  0.00    +0.000 A 
ATOM      3  C   UNL     1       1.512   9.336  17.788  0.00  0.00    +0.000 A 
ATOM      4  C   UNL     1       0.794   9.702  18.929  0.00  0.00    +0.000 A 
ATOM      5  C   UNL     1       0.978   8.961  20.105  0.00  0.00    +0.000 A 
ATOM      6  C   UNL     1       1.852   7.864  20.124  0.00  0.00    +0.000 A 
ENDROOT
BRANCH   1   7
ATOM      7  O   UNL     1       3.377   6.411  19.110  0.00  0.00    +0.000 OA
BRANCH   7   8
ATOM      8  C   UNL     1       2.751   5.146  19.344  0.00  0.00    +0.000 C 
BRANCH   8   9
ATOM      9  C   UNL     1       3.717   3.990  19.047  0.00  0.00    +0.000 C 
BRANCH   9  12
ATOM     10  C   UNL     1       6.015   4.635  18.579  0.00  0.00    +0.000 C 
ATOM     11  O   UNL     1       6.181   4.815  19.790  0.00  0.00    +0.000 OA
ATOM     12  N   UNL     1       4.784   4.229  18.064  0.00  0.00    +0.000 N 
ATOM     13  C   UNL     1       4.468   4.141  16.645  0.00  0.00    +0.000 C 
BRANCH  10  14
ATOM     14  C   UNL     1       7.182   4.869  17.622  0.00  0.00    +0.000 C 
BRANCH  14  17
ATOM     15  C   UNL     1       7.941   8.699  17.718  0.00  0.00    +0.000 C 
ATOM     16  C   UNL     1       7.858   7.251  18.077  0.00  0.00    +0.000 C 
ATOM     17  C   UNL     1       7.309   6.325  17.276  0.00  0.00    +0.000 C 
ENDBRANCH  14  17
ENDBRANCH  10  14
ENDBRANCH   9  12
ENDBRANCH   8   9
ENDBRANCH   7   8
ENDBRANCH   1   7
BRANCH   4  18
ATOM     18  C   UNL     1      -0.146  10.885  18.876  0.00  0.00    +0.000 C 
BRANCH  18  19
ATOM     19  C   UNL     1      -1.628  10.571  18.652  0.00  0.00    +0.000 C 
ATOM     20  S   UNL     1      -2.004   9.849  17.018  0.00  0.00    +0.000 S 
ATOM     21  C   UNL     1      -3.076  11.155  16.589  0.00  0.00    +0.000 C 
ATOM     22  O   UNL     1      -3.545  11.312  15.473  0.00  0.00    +0.000 OA
ATOM     23  N   UNL     1      -3.293  11.960  17.652  0.00  0.00    +0.000 N 
ATOM     24  C   UNL     1      -2.515  11.795  18.759  0.00  0.00    +0.000 C 
ATOM     25  O   UNL     1      -2.543  12.559  19.715  0.00  0.00    +0.000 OA
ATOM     26  H   UNL     1      -3.883  12.771  17.555  0.00  0.00    +0.000 HD
ENDBRANCH  18  19
ENDBRANCH   4  18
TORSDOF 8
ENDMDL
MODEL 2
REMARK VINA RESULT:      -7.6      2.381      3.019
REMARK  Name = 
REMARK  10 active torsions:
REMARK  status: ('A' for Active; 'I' for Inactive)
REMARK    1  A    between atoms: C_1  and  C_2
REMARK    2  A    between atoms: C_3  and  C_4
REMARK    3  A    between atoms: C_4  and  C_5
REMARK    4  A    between atoms: N_7  and  C_8
REMARK    5  A    between atoms: N_7  and  C_9
REMARK    6  A    between atoms: C_9  and  C_10
REMARK    7  A    between atoms: C_10  and  O_11
REMARK    8  A    between atoms: O_11  and  C_12
REMARK    9  A    between atoms: C_15  and  C_16
REMARK   10  A    between atoms: C_16  and  C_17
REMARK                            x       y       z     vdW  Elec       q    Type
REMARK                         _______ _______ _______ _____ _____    ______ ____
ROOT
ATOM      1  C   UNL     1       2.331   5.430  18.653  0.00  0.00    +0.000 A 
ATOM      2  C   UNL     1       2.546   6.754  18.280  0.00  0.00    +0.000 A 
ATOM      3  C   UNL     1       2.266   7.795  19.166  0.00  0.00    +0.000 A 
ATOM      4  C   UNL     1       1.779   7.533  20.449  0.00  0.00    +0.000 A 
ATOM      5  C   UNL     1       1.583   6.198  20.834  0.00  0.00    +0.000 A 
ATOM      6  C   UNL     1       1.854   5.154  19.937  0.00  0.00    +0.000 A 
ENDROOT
BRANCH   1   7
ATOM      7  O   UNL     1       2.554   4.330  17.865  0.00  0.00    +0.000 OA
BRANCH   7   8
ATOM      8  C   UNL     1       3.111   3.174  18.496  0.00  0.00    +0.000 C 
BRANCH   8   9
ATOM      9  C   UNL     1       4.580   3.408  18.877  0.00  0.00    +0.000 C 
BRANCH   9  12
ATOM     10  C   UNL     1       6.354   5.015  18.446  0.00  0.00    +0.000 C 
ATOM     11  O   UNL     1       6.422   5.223  19.662  0.00  0.00    +0.000 OA
ATOM     12  N   UNL     1       5.431   4.117  17.910  0.00  0.00    +0.000 N 
ATOM     13  C   UNL     1       5.188   3.929  16.486  0.00  0.00    +0.000 C 
BRANCH  10  14
ATOM     14  C   UNL     1       7.296   5.763  17.505  0.00  0.00    +0.000 C 
BRANCH  14  17
ATOM     15  C   UNL     1       8.458   9.409  18.291  0.00  0.00    +0.000 C 
ATOM     16  C   UNL     1       7.865   8.213  17.618  0.00  0.00    +0.000 C 
ATOM     17  C   UNL     1       7.855   6.989  18.168  0.00  0.00    +0.000 C 
ENDBRANCH  14  17
ENDBRANCH  10  14
ENDBRANCH   9  12
ENDBRANCH   8   9
ENDBRANCH   7   8
ENDBRANCH   1   7
BRANCH   4  18
ATOM     18  C   UNL     1       1.490   8.680  21.390  0.00  0.00    +0.000 C 
BRANCH  18  19
ATOM     19  C   UNL     1       0.041   9.173  21.442  0.00  0.00    +0.000 C 
ATOM     20  S   UNL     1      -0.488  10.100  19.961  0.00  0.00    +0.000 S 
ATOM     21  C   UNL     1      -0.845  11.538  20.880  0.00  0.00    +0.000 C 
ATOM     22  O   UNL     1      -1.113  12.618  20.379  0.00  0.00    +0.000 OA
ATOM     23  N   UNL     1      -0.767  11.286  22.206  0.00  0.00    +0.000 N 
ATOM     24  C   UNL     1      -0.226  10.103  22.609  0.00  0.00    +0.000 C 
ATOM     25  O   UNL     1       0.012   9.842  23.781  0.00  0.00    +0.000 OA
ATOM     26  H   UNL     1      -0.934  12.026  22.868  0.00  0.00    +0.000 HD
ENDBRANCH  18  19
ENDBRANCH   4  18
TORSDOF 8
ENDMDL
MODEL 3
REMARK VINA RESULT:      -7.3      1.745      3.549
REMARK  Name = 
REMARK  10 active torsions:
REMARK  status: ('A' for Active; 'I' for Inactive)
REMARK    1  A    between atoms: C_1  and  C_2
REMARK    2  A    between atoms: C_3  and  C_4
REMARK    3  A    between atoms: C_4  and  C_5
REMARK    4  A    between atoms: N_7  and  C_8
REMARK    5  A    between atoms: N_7  and  C_9
REMARK    6  A    between atoms: C_9  and  C_10
REMARK    7  A    between atoms: C_10  and  O_11
REMARK    8  A    between atoms: O_11  and  C_12
REMARK    9  A    between atoms: C_15  and  C_16
REMARK   10  A    between atoms: C_16  and  C_17
REMARK                            x       y       z     vdW  Elec       q    Type
REMARK                         _______ _______ _______ _____ _____    ______ ____
ROOT
ATOM      1  C   UNL     1       2.475   7.629  18.884  0.00  0.00    +0.000 A 
ATOM      2  C   UNL     1       1.767   7.957  20.038  0.00  0.00    +0.000 A 
ATOM      3  C   UNL     1       0.939   9.080  20.067  0.00  0.00    +0.000 A 
ATOM      4  C   UNL     1       0.791   9.889  18.939  0.00  0.00    +0.000 A 
ATOM      5  C   UNL     1       1.486   9.548  17.770  0.00  0.00    +0.000 A 
ATOM      6  C   UNL     1       2.327   8.425  17.746  0.00  0.00    +0.000 A 
ENDROOT
BRANCH   1   7
ATOM      7  O   UNL     1       3.326   6.562  18.744  0.00  0.00    +0.000 OA
BRANCH   7   8
ATOM      8  C   UNL     1       4.259   6.607  17.661  0.00  0.00    +0.000 C 
BRANCH   8   9
ATOM      9  C   UNL     1       4.331   5.253  16.941  0.00  0.00    +0.000 C 
BRANCH   9  12
ATOM     10  C   UNL     1       3.201   3.187  17.555  0.00  0.00    +0.000 C 
ATOM     11  O   UNL     1       2.314   3.465  16.741  0.00  0.00    +0.000 OA
ATOM     12  N   UNL     1       4.287   4.037  17.768  0.00  0.00    +0.000 N 
ATOM     13  C   UNL     1       5.289   3.856  18.810  0.00  0.00    +0.000 C 
BRANCH  10  14
ATOM     14  C   UNL     1       3.106   1.889  18.352  0.00  0.00    +0.000 C 
BRANCH  14  17
ATOM     15  C   UNL     1       1.317   2.733  21.721  0.00  0.00    +0.000 C 
ATOM     16  C   UNL     1       2.325   2.654  20.621  0.00  0.00    +0.000 C 
ATOM     17  C   UNL     1       2.102   2.013  19.462  0.00  0.00    +0.000 C 
ENDBRANCH  14  17
ENDBRANCH  10  14
ENDBRANCH   9  12
ENDBRANCH   8   9
ENDBRANCH   7   8
ENDBRANCH   1   7
BRANCH   4  18
ATOM     18  C   UNL     1      -0.117  11.097  18.997  0.00  0.00    +0.000 C 
BRANCH  18  19
ATOM     19  C   UNL     1      -1.619  10.818  19.108  0.00  0.00    +0.000 C 
ATOM     20  S   UNL     1      -2.351  10.050  17.622  0.00  0.00    +0.000 S 
ATOM     21  C   UNL     1      -3.463  11.370  17.379  0.00  0.00    +0.000 C 
ATOM     22  O   UNL     1      -4.156  11.501  16.384  0.00  0.00    +0.000 OA
ATOM     23  N   UNL     1      -3.430  12.218  18.431  0.00  0.00    +0.000 N 
ATOM     24  C   UNL     1      -2.437  12.070  19.351  0.00  0.00    +0.000 C 
ATOM     25  O   UNL     1      -2.244  12.868  20.260  0.00  0.00    +0.000 OA
ATOM     26  H   UNL     1      -4.011  13.041  18.429  0.00  0.00    +0.000 HD
ENDBRANCH  18  19
ENDBRANCH   4  18
TORSDOF 8
ENDMDL
MODEL 4
REMARK VINA RESULT:      -7.2      2.675      3.078
REMARK  Name = 
REMARK  10 active torsions:
REMARK  status: ('A' for Active; 'I' for Inactive)
REMARK    1  A    between atoms: C_1  and  C_2
REMARK    2  A    between atoms: C_3  and  C_4
REMARK    3  A    between atoms: C_4  and  C_5
REMARK    4  A    between atoms: N_7  and  C_8
REMARK    5  A    between atoms: N_7  and  C_9
REMARK    6  A    between atoms: C_9  and  C_10
REMARK    7  A    between atoms: C_10  and  O_11
REMARK    8  A    between atoms: O_11  and  C_12
REMARK    9  A    between atoms: C_15  and  C_16
REMARK   10  A    between atoms: C_16  and  C_17
REMARK                            x       y       z     vdW  Elec       q    Type
REMARK                         _______ _______ _______ _____ _____    ______ ____
ROOT
ATOM      1  C   UNL     1       2.201   7.719  18.590  0.00  0.00    +0.000 A 
ATOM      2  C   UNL     1       1.898   7.712  19.949  0.00  0.00    +0.000 A 
ATOM      3  C   UNL     1       1.358   8.844  20.562  0.00  0.00    +0.000 A 
ATOM      4  C   UNL     1       1.096  10.001  19.825  0.00  0.00    +0.000 A 
ATOM      5  C   UNL     1       1.380  10.001  18.451  0.00  0.00    +0.000 A 
ATOM      6  C   UNL     1       1.933   8.867  17.840  0.00  0.00    +0.000 A 
ENDROOT
BRANCH   1   7
ATOM      7  O   UNL     1       2.746   6.676  17.887  0.00  0.00    +0.000 OA
BRANCH   7   8
ATOM      8  C   UNL     1       2.891   5.429  18.572  0.00  0.00    +0.000 C 
BRANCH   8   9
ATOM      9  C   UNL     1       3.675   4.420  17.720  0.00  0.00    +0.000 C 
BRANCH   9  12
ATOM     10  C   UNL     1       6.029   4.706  18.261  0.00  0.00    +0.000 C 
ATOM     11  O   UNL     1       5.774   4.361  19.420  0.00  0.00    +0.000 OA
ATOM     12  N   UNL     1       5.030   4.796  17.291  0.00  0.00    +0.000 N 
ATOM     13  C   UNL     1       5.222   5.336  15.952  0.00  0.00    +0.000 C 
BRANCH  10  14
ATOM     14  C   UNL     1       7.468   5.047  17.881  0.00  0.00    +0.000 C 
BRANCH  14  17
ATOM     15  C   UNL     1       8.095   8.901  18.007  0.00  0.00    +0.000 C 
ATOM     16  C   UNL     1       7.702   7.533  17.552  0.00  0.00    +0.000 C 
ATOM     17  C   UNL     1       7.823   6.439  18.320  0.00  0.00    +0.000 C 
ENDBRANCH  14  17
ENDBRANCH  10  14
ENDBRANCH   9  12
ENDBRANCH   8   9
ENDBRANCH   7   8
ENDBRANCH   1   7
BRANCH   4  18
ATOM     18  C   UNL     1       0.505  11.210  20.513  0.00  0.00    +0.000 C 
BRANCH  18  19
ATOM     19  C   UNL     1      -0.873  11.026  21.155  0.00  0.00    +0.000 C 
ATOM     20  S   UNL     1      -2.089  12.312  20.705  0.00  0.00    +0.000 S 
ATOM     21  C   UNL     1      -2.308  12.810  22.361  0.00  0.00    +0.000 C 
ATOM     22  O   UNL     1      -2.933  13.802  22.696  0.00  0.00    +0.000 OA
ATOM     23  N   UNL     1      -1.680  11.957  23.200  0.00  0.00    +0.000 N 
ATOM     24  C   UNL     1      -0.826  11.038  22.670  0.00  0.00    +0.000 C 
ATOM     25  O   UNL     1      -0.111  10.316  23.354  0.00  0.00    +0.000 OA
ATOM     26  H   UNL     1      -1.704  12.122  24.193  0.00  0.00    +0.000 HD
ENDBRANCH  18  19
ENDBRANCH   4  18
TORSDOF 8
ENDMDL
MODEL 5
REMARK VINA RESULT:      -7.2      3.603      9.379
REMARK  Name = 
REMARK  10 active torsions:
REMARK  status: ('A' for Active; 'I' for Inactive)
REMARK    1  A    between atoms: C_1  and  C_2
REMARK    2  A    between atoms: C_3  and  C_4
REMARK    3  A    between atoms: C_4  and  C_5
REMARK    4  A    between atoms: N_7  and  C_8
REMARK    5  A    between atoms: N_7  and  C_9
REMARK    6  A    between atoms: C_9  and  C_10
REMARK    7  A    between atoms: C_10  and  O_11
REMARK    8  A    between atoms: O_11  and  C_12
REMARK    9  A    between atoms: C_15  and  C_16
REMARK   10  A    between atoms: C_16  and  C_17
REMARK                            x       y       z     vdW  Elec       q    Type
REMARK                         _______ _______ _______ _____ _____    ______ ____
ROOT
ATOM      1  C   UNL     1       2.216   7.274  19.638  0.00  0.00    +0.000 A 
ATOM      2  C   UNL     1       2.730   7.628  18.393  0.00  0.00    +0.000 A 
ATOM      3  C   UNL     1       3.391   6.686  17.603  0.00  0.00    +0.000 A 
ATOM      4  C   UNL     1       3.538   5.367  18.036  0.00  0.00    +0.000 A 
ATOM      5  C   UNL     1       3.002   5.003  19.280  0.00  0.00    +0.000 A 
ATOM      6  C   UNL     1       2.349   5.954  20.077  0.00  0.00    +0.000 A 
ENDROOT
BRANCH   1   7
ATOM      7  O   UNL     1       1.564   8.115  20.503  0.00  0.00    +0.000 OA
BRANCH   7   8
ATOM      8  C   UNL     1       0.964   9.288  19.948  0.00  0.00    +0.000 C 
BRANCH   8   9
ATOM      9  C   UNL     1      -0.392   9.578  20.608  0.00  0.00    +0.000 C 
BRANCH   9  12
ATOM     10  C   UNL     1      -0.526  11.450  22.156  0.00  0.00    +0.000 C 
ATOM     11  O   UNL     1      -0.096  10.708  23.045  0.00  0.00    +0.000 OA
ATOM     12  N   UNL     1      -0.743  10.984  20.859  0.00  0.00    +0.000 N 
ATOM     13  C   UNL     1      -1.384  11.750  19.799  0.00  0.00    +0.000 C 
BRANCH  10  14
ATOM     14  C   UNL     1      -0.834  12.909  22.483  0.00  0.00    +0.000 C 
BRANCH  14  17
ATOM     15  C   UNL     1      -4.189  12.469  24.434  0.00  0.00    +0.000 C 
ATOM     16  C   UNL     1      -3.091  12.321  23.431  0.00  0.00    +0.000 C 
ATOM     17  C   UNL     1      -1.942  13.011  23.492  0.00  0.00    +0.000 C 
ENDBRANCH  14  17
ENDBRANCH  10  14
ENDBRANCH   9  12
ENDBRANCH   8   9
ENDBRANCH   7   8
ENDBRANCH   1   7
BRANCH   4  18
ATOM     18  C   UNL     1       4.253   4.365  17.157  0.00  0.00    +0.000 C 
BRANCH  18  19
ATOM     19  C   UNL     1       5.784   4.430  17.152  0.00  0.00    +0.000 C 
ATOM     20  S   UNL     1       6.486   5.649  18.316  0.00  0.00    +0.000 S 
ATOM     21  C   UNL     1       7.277   6.540  17.043  0.00  0.00    +0.000 C 
ATOM     22  O   UNL     1       7.816   7.623  17.204  0.00  0.00    +0.000 OA
ATOM     23  N   UNL     1       7.191   5.872  15.872  0.00  0.00    +0.000 N 
ATOM     24  C   UNL     1       6.356   4.798  15.798  0.00  0.00    +0.000 C 
ATOM     25  O   UNL     1       6.108   4.215  14.751  0.00  0.00    +0.000 OA
ATOM     26  H   UNL     1       7.591   6.269  15.037  0.00  0.00    +0.000 HD
ENDBRANCH  18  19
ENDBRANCH   4  18
TORSDOF 8
ENDMDL
MODEL 6
REMARK VINA RESULT:      -7.2      5.175      7.457
REMARK  Name = 
REMARK  10 active torsions:
REMARK  status: ('A' for Active; 'I' for Inactive)
REMARK    1  A    between atoms: C_1  and  C_2
REMARK    2  A    between atoms: C_3  and  C_4
REMARK    3  A    between atoms: C_4  and  C_5
REMARK    4  A    between atoms: N_7  and  C_8
REMARK    5  A    between atoms: N_7  and  C_9
REMARK    6  A    between atoms: C_9  and  C_10
REMARK    7  A    between atoms: C_10  and  O_11
REMARK    8  A    between atoms: O_11  and  C_12
REMARK    9  A    between atoms: C_15  and  C_16
REMARK   10  A    between atoms: C_16  and  C_17
REMARK                            x       y       z     vdW  Elec       q    Type
REMARK                         _______ _______ _______ _____ _____    ______ ____
ROOT
ATOM      1  C   UNL     1       6.089   5.915  17.509  0.00  0.00    +0.000 A 
ATOM      2  C   UNL     1       5.914   5.435  18.804  0.00  0.00    +0.000 A 
ATOM      3  C   UNL     1       4.673   5.531  19.435  0.00  0.00    +0.000 A 
ATOM      4  C   UNL     1       3.578   6.096  18.778  0.00  0.00    +0.000 A 
ATOM      5  C   UNL     1       3.747   6.560  17.465  0.00  0.00    +0.000 A 
ATOM      6  C   UNL     1       4.999   6.473  16.837  0.00  0.00    +0.000 A 
ENDROOT
BRANCH   1   7
ATOM      7  O   UNL     1       7.262   5.888  16.797  0.00  0.00    +0.000 OA
BRANCH   7   8
ATOM      8  C   UNL     1       7.566   4.688  16.082  0.00  0.00    +0.000 C 
BRANCH   8   9
ATOM      9  C   UNL     1       7.303   4.861  14.579  0.00  0.00    +0.000 C 
BRANCH   9  12
ATOM     10  C   UNL     1       6.343   3.777  12.624  0.00  0.00    +0.000 C 
ATOM     11  O   UNL     1       7.301   4.189  11.961  0.00  0.00    +0.000 OA
ATOM     12  N   UNL     1       6.215   4.071  13.982  0.00  0.00    +0.000 N 
ATOM     13  C   UNL     1       5.047   3.753  14.792  0.00  0.00    +0.000 C 
BRANCH  10  14
ATOM     14  C   UNL     1       5.269   2.932  11.942  0.00  0.00    +0.000 C 
BRANCH  14  17
ATOM     15  C   UNL     1       2.624   4.266   9.396  0.00  0.00    +0.000 C 
ATOM     16  C   UNL     1       3.300   3.479  10.471  0.00  0.00    +0.000 C 
ATOM     17  C   UNL     1       4.551   3.725  10.888  0.00  0.00    +0.000 C 
ENDBRANCH  14  17
ENDBRANCH  10  14
ENDBRANCH   9  12
ENDBRANCH   8   9
ENDBRANCH   7   8
ENDBRANCH   1   7
BRANCH   4  18
ATOM     18  C   UNL     1       2.243   6.182  19.483  0.00  0.00    +0.000 C 
BRANCH  18  19
ATOM     19  C   UNL     1       1.630   4.859  19.949  0.00  0.00    +0.000 C 
ATOM     20  S   UNL     1       2.293   4.242  21.534  0.00  0.00    +0.000 S 
ATOM     21  C   UNL     1       2.869   2.760  20.819  0.00  0.00    +0.000 C 
ATOM     22  O   UNL     1       3.583   1.958  21.398  0.00  0.00    +0.000 OA
ATOM     23  N   UNL     1       2.427   2.645  19.547  0.00  0.00    +0.000 N 
ATOM     24  C   UNL     1       1.843   3.728  18.963  0.00  0.00    +0.000 C 
ATOM     25  O   UNL     1       1.536   3.764  17.778  0.00  0.00    +0.000 OA
ATOM     26  H   UNL     1       2.691   1.844  18.996  0.00  0.00    +0.000 HD
ENDBRANCH  18  19
ENDBRANCH   4  18
TORSDOF 8
ENDMDL
MODEL 7
REMARK VINA RESULT:      -7.1      2.854      3.800
REMARK  Name = 
REMARK  10 active torsions:
REMARK  status: ('A' for Active; 'I' for Inactive)
REMARK    1  A    between atoms: C_1  and  C_2
REMARK    2  A    between atoms: C_3  and  C_4
REMARK    3  A    between atoms: C_4  and  C_5
REMARK    4  A    between atoms: N_7  and  C_8
REMARK    5  A    between atoms: N_7  and  C_9
REMARK    6  A    between atoms: C_9  and  C_10
REMARK    7  A    between atoms: C_10  and  O_11
REMARK    8  A    between atoms: O_11  and  C_12
REMARK    9  A    between atoms: C_15  and  C_16
REMARK   10  A    between atoms: C_16  and  C_17
REMARK                            x       y       z     vdW  Elec       q    Type
REMARK                         _______ _______ _______ _____ _____    ______ ____
ROOT
ATOM      1  C   UNL     1       1.500   4.056  18.618  0.00  0.00    +0.000 A 
ATOM      2  C   UNL     1       1.239   4.214  19.976  0.00  0.00    +0.000 A 
ATOM      3  C   UNL     1       1.433   5.448  20.598  0.00  0.00    +0.000 A 
ATOM      4  C   UNL     1       1.879   6.554  19.870  0.00  0.00    +0.000 A 
ATOM      5  C   UNL     1       2.121   6.402  18.496  0.00  0.00    +0.000 A 
ATOM      6  C   UNL     1       1.936   5.157  17.877  0.00  0.00    +0.000 A 
ENDROOT
BRANCH   1   7
ATOM      7  O   UNL     1       1.360   2.892  17.906  0.00  0.00    +0.000 OA
BRANCH   7   8
ATOM      8  C   UNL     1       2.056   1.740  18.392  0.00  0.00    +0.000 C 
BRANCH   8   9
ATOM      9  C   UNL     1       3.560   1.842  18.099  0.00  0.00    +0.000 C 
BRANCH   9  12
ATOM     10  C   UNL     1       5.069   3.734  18.348  0.00  0.00    +0.000 C 
ATOM     11  O   UNL     1       5.034   3.886  17.123  0.00  0.00    +0.000 OA
ATOM     12  N   UNL     1       4.369   2.703  18.975  0.00  0.00    +0.000 N 
ATOM     13  C   UNL     1       4.479   2.366  20.388  0.00  0.00    +0.000 C 
BRANCH  10  14
ATOM     14  C   UNL     1       5.904   4.690  19.198  0.00  0.00    +0.000 C 
BRANCH  14  17
ATOM     15  C   UNL     1       7.677   7.719  17.484  0.00  0.00    +0.000 C 
ATOM     16  C   UNL     1       7.423   6.435  18.204  0.00  0.00    +0.000 C 
ATOM     17  C   UNL     1       6.192   5.960  18.449  0.00  0.00    +0.000 C 
ENDBRANCH  14  17
ENDBRANCH  10  14
ENDBRANCH   9  12
ENDBRANCH   8   9
ENDBRANCH   7   8
ENDBRANCH   1   7
BRANCH   4  18
ATOM     18  C   UNL     1       2.075   7.881  20.567  0.00  0.00    +0.000 C 
BRANCH  18  19
ATOM     19  C   UNL     1       0.914   8.876  20.483  0.00  0.00    +0.000 C 
ATOM     20  S   UNL     1       0.875   9.856  18.943  0.00  0.00    +0.000 S 
ATOM     21  C   UNL     1       1.012  11.369  19.798  0.00  0.00    +0.000 C 
ATOM     22  O   UNL     1       1.202  12.444  19.253  0.00  0.00    +0.000 OA
ATOM     23  N   UNL     1       0.895  11.174  21.130  0.00  0.00    +0.000 N 
ATOM     24  C   UNL     1       0.927   9.897  21.603  0.00  0.00    +0.000 C 
ATOM     25  O   UNL     1       0.966   9.627  22.797  0.00  0.00    +0.000 OA
ATOM     26  H   UNL     1       0.968  11.957  21.760  0.00  0.00    +0.000 HD
ENDBRANCH  18  19
ENDBRANCH   4  18
TORSDOF 8
ENDMDL
MODEL 8
REMARK VINA RESULT:      -7.1      2.862      9.174
REMARK  Name = 
REMARK  10 active torsions:
REMARK  status: ('A' for Active; 'I' for Inactive)
REMARK    1  A    between atoms: C_1  and  C_2
REMARK    2  A    between atoms: C_3  and  C_4
REMARK    3  A    between atoms: C_4  and  C_5
REMARK    4  A    between atoms: N_7  and  C_8
REMARK    5  A    between atoms: N_7  and  C_9
REMARK    6  A    between atoms: C_9  and  C_10
REMARK    7  A    between atoms: C_10  and  O_11
REMARK    8  A    between atoms: O_11  and  C_12
REMARK    9  A    between atoms: C_15  and  C_16
REMARK   10  A    between atoms: C_16  and  C_17
REMARK                            x       y       z     vdW  Elec       q    Type
REMARK                         _______ _______ _______ _____ _____    ______ ____
ROOT
ATOM      1  C   UNL     1       2.169   7.753  19.256  0.00  0.00    +0.000 A 
ATOM      2  C   UNL     1       2.335   6.561  19.956  0.00  0.00    +0.000 A 
ATOM      3  C   UNL     1       3.023   5.490  19.382  0.00  0.00    +0.000 A 
ATOM      4  C   UNL     1       3.571   5.596  18.102  0.00  0.00    +0.000 A 
ATOM      5  C   UNL     1       3.424   6.804  17.405  0.00  0.00    +0.000 A 
ATOM      6  C   UNL     1       2.722   7.874  17.979  0.00  0.00    +0.000 A 
ENDROOT
BRANCH   1   7
ATOM      7  O   UNL     1       1.502   8.861  19.711  0.00  0.00    +0.000 OA
BRANCH   7   8
ATOM      8  C   UNL     1       0.731   9.599  18.758  0.00  0.00    +0.000 C 
BRANCH   8   9
ATOM      9  C   UNL     1      -0.578  10.105  19.382  0.00  0.00    +0.000 C 
BRANCH   9  12
ATOM     10  C   UNL     1      -2.565  10.581  18.062  0.00  0.00    +0.000 C 
ATOM     11  O   UNL     1      -2.903   9.400  18.199  0.00  0.00    +0.000 OA
ATOM     12  N   UNL     1      -1.376  11.067  18.607  0.00  0.00    +0.000 N 
ATOM     13  C   UNL     1      -0.836  12.397  18.364  0.00  0.00    +0.000 C 
BRANCH  10  14
ATOM     14  C   UNL     1      -3.464  11.530  17.273  0.00  0.00    +0.000 C 
BRANCH  14  17
ATOM     15  C   UNL     1      -3.085   9.881  13.753  0.00  0.00    +0.000 C 
ATOM     16  C   UNL     1      -2.809  10.366  15.139  0.00  0.00    +0.000 C 
ATOM     17  C   UNL     1      -3.720  11.002  15.891  0.00  0.00    +0.000 C 
ENDBRANCH  14  17
ENDBRANCH  10  14
ENDBRANCH   9  12
ENDBRANCH   8   9
ENDBRANCH   7   8
ENDBRANCH   1   7
BRANCH   4  18
ATOM     18  C   UNL     1       4.317   4.423  17.507  0.00  0.00    +0.000 C 
BRANCH  18  19
ATOM     19  C   UNL     1       5.842   4.544  17.440  0.00  0.00    +0.000 C 
ATOM     20  S   UNL     1       6.541   5.824  18.539  0.00  0.00    +0.000 S 
ATOM     21  C   UNL     1       7.248   6.704  17.210  0.00  0.00    +0.000 C 
ATOM     22  O   UNL     1       7.751   7.810  17.317  0.00  0.00    +0.000 OA
ATOM     23  N   UNL     1       7.144   5.997  16.063  0.00  0.00    +0.000 N 
ATOM     24  C   UNL     1       6.348   4.891  16.055  0.00  0.00    +0.000 C 
ATOM     25  O   UNL     1       6.083   4.267  15.035  0.00  0.00    +0.000 OA
ATOM     26  H   UNL     1       7.496   6.383  15.202  0.00  0.00    +0.000 HD
ENDBRANCH  18  19
ENDBRANCH   4  18
TORSDOF 8
ENDMDL
MODEL 9
REMARK VINA RESULT:      -7.0      1.747      2.470
REMARK  Name = 
REMARK  10 active torsions:
REMARK  status: ('A' for Active; 'I' for Inactive)
REMARK    1  A    between atoms: C_1  and  C_2
REMARK    2  A    between atoms: C_3  and  C_4
REMARK    3  A    between atoms: C_4  and  C_5
REMARK    4  A    between atoms: N_7  and  C_8
REMARK    5  A    between atoms: N_7  and  C_9
REMARK    6  A    between atoms: C_9  and  C_10
REMARK    7  A    between atoms: C_10  and  O_11
REMARK    8  A    between atoms: O_11  and  C_12
REMARK    9  A    between atoms: C_15  and  C_16
REMARK   10  A    between atoms: C_16  and  C_17
REMARK                            x       y       z     vdW  Elec       q    Type
REMARK                         _______ _______ _______ _____ _____    ______ ____
ROOT
ATOM      1  C   UNL     1       2.376   7.548  18.952  0.00  0.00    +0.000 A 
ATOM      2  C   UNL     1       1.966   7.458  20.280  0.00  0.00    +0.000 A 
ATOM      3  C   UNL     1       1.145   8.439  20.838  0.00  0.00    +0.000 A 
ATOM      4  C   UNL     1       0.704   9.522  20.075  0.00  0.00    +0.000 A 
ATOM      5  C   UNL     1       1.098   9.603  18.731  0.00  0.00    +0.000 A 
ATOM      6  C   UNL     1       1.933   8.622  18.176  0.00  0.00    +0.000 A 
ENDROOT
BRANCH   1   7
ATOM      7  O   UNL     1       3.191   6.656  18.304  0.00  0.00    +0.000 OA
BRANCH   7   8
ATOM      8  C   UNL     1       2.948   5.264  18.529  0.00  0.00    +0.000 C 
BRANCH   8   9
ATOM      9  C   UNL     1       3.765   4.399  17.558  0.00  0.00    +0.000 C 
BRANCH   9  12
ATOM     10  C   UNL     1       6.103   4.732  18.145  0.00  0.00    +0.000 C 
ATOM     11  O   UNL     1       5.859   4.261  19.261  0.00  0.00    +0.000 OA
ATOM     12  N   UNL     1       5.104   4.876  17.181  0.00  0.00    +0.000 N 
ATOM     13  C   UNL     1       5.277   5.556  15.905  0.00  0.00    +0.000 C 
BRANCH  10  14
ATOM     14  C   UNL     1       7.526   5.173  17.813  0.00  0.00    +0.000 C 
BRANCH  14  17
ATOM     15  C   UNL     1       8.101   9.030  18.045  0.00  0.00    +0.000 C 
ATOM     16  C   UNL     1       7.808   7.659  17.527  0.00  0.00    +0.000 C 
ATOM     17  C   UNL     1       7.785   6.567  18.307  0.00  0.00    +0.000 C 
ENDBRANCH  14  17
ENDBRANCH  10  14
ENDBRANCH   9  12
ENDBRANCH   8   9
ENDBRANCH   7   8
ENDBRANCH   1   7
BRANCH   4  18
ATOM     18  C   UNL     1      -0.190  10.567  20.703  0.00  0.00    +0.000 C 
BRANCH  18  19
ATOM     19  C   UNL     1      -0.451  11.829  19.876  0.00  0.00    +0.000 C 
ATOM     20  S   UNL     1      -0.294  13.387  20.815  0.00  0.00    +0.000 S 
ATOM     21  C   UNL     1      -1.946  13.848  20.499  0.00  0.00    +0.000 C 
ATOM     22  O   UNL     1      -2.504  14.791  21.035  0.00  0.00    +0.000 OA
ATOM     23  N   UNL     1      -2.509  13.009  19.601  0.00  0.00    +0.000 N 
ATOM     24  C   UNL     1      -1.843  11.866  19.276  0.00  0.00    +0.000 C 
ATOM     25  O   UNL     1      -2.330  10.983  18.581  0.00  0.00    +0.000 OA
ATOM     26  H   UNL     1      -3.470  13.139  19.328  0.00  0.00    +0.000 HD
ENDBRANCH  18  19
ENDBRANCH   4  18
TORSDOF 8
ENDMDL
