MODEL 1
REMARK VINA RESULT:      -7.9      0.000      0.000
REMARK  Name = 
REMARK  22 active torsions:
REMARK  status: ('A' for Active; 'I' for Inactive)
REMARK    1  A    between atoms: C_1  and  C_2
REMARK    2  A    between atoms: C_2  and  C_3
REMARK    3  A    between atoms: C_4  and  C_5
REMARK    4  A    between atoms: C_5  and  C_6
REMARK    5  A    between atoms: C_6  and  C_7
REMARK    6  A    between atoms: C_7  and  C_8
REMARK    7  A    between atoms: C_9  and  C_10
REMARK    8  A    between atoms: C_10  and  C_11
REMARK    9  A    between atoms: C_11  and  C_12
REMARK   10  A    between atoms: C_11  and  P_22
REMARK   11  A    between atoms: C_11  and  P_26
REMARK   12  A    between atoms: C_12  and  C_13
REMARK   13  A    between atoms: C_14  and  C_15
REMARK   14  A    between atoms: C_14  and  C_16
REMARK   15  A    between atoms: C_16  and  C_17
REMARK   16  A    between atoms: C_17  and  C_18
REMARK   17  A    between atoms: C_19  and  C_20
REMARK   18  A    between atoms: C_19  and  C_21
REMARK   19  A    between atoms: P_22  and  O_24
REMARK   20  A    between atoms: P_22  and  O_25
REMARK   21  A    between atoms: P_26  and  O_28
REMARK   22  A    between atoms: P_26  and  O_29
REMARK                            x       y       z     vdW  Elec       q    Type
REMARK                         _______ _______ _______ _____ _____    ______ ____
ROOT
ATOM      1  C   UNL     1       3.143   4.294  19.031  0.00  0.00    +0.000 C 
ENDROOT
BRANCH   1   2
ATOM      2  P   UNL     1       4.240   2.971  19.660  0.00  0.00    +0.000 P 
ATOM      3  O   UNL     1       3.229   2.236  20.517  0.00  0.00    +0.000 OA
BRANCH   2   4
ATOM      4  O   UNL     1       5.277   1.720  20.254  0.00  0.00    +0.000 OA
ATOM      5  H   UNL     1       6.052   1.793  19.654  0.00  0.00    +0.000 HD
ENDBRANCH   2   4
BRANCH   2   6
ATOM      6  O   UNL     1       4.270   2.189  18.222  0.00  0.00    +0.000 OA
ATOM      7  H   UNL     1       4.822   2.689  17.578  0.00  0.00    +0.000 HD
ENDBRANCH   2   6
ENDBRANCH   1   2
BRANCH   1   8
ATOM      8  P   UNL     1       1.505   3.455  18.528  0.00  0.00    +0.000 P 
ATOM      9  O   UNL     1       0.755   4.020  17.368  0.00  0.00    +0.000 OA
BRANCH   8  10
ATOM     10  O   UNL     1       0.542   3.374  19.803  0.00  0.00    +0.000 OA
ATOM     11  H   UNL     1      -0.348   3.085  19.494  0.00  0.00    +0.000 HD
ENDBRANCH   8  10
BRANCH   8  12
ATOM     12  O   UNL     1       1.727   1.877  18.307  0.00  0.00    +0.000 OA
ATOM     13  H   UNL     1       0.911   1.371  18.135  0.00  0.00    +0.000 HD
ENDBRANCH   8  12
ENDBRANCH   1   8
BRANCH   1  14
ATOM     14  C   UNL     1       2.940   5.483  20.000  0.00  0.00    +0.000 C 
BRANCH  14  15
ATOM     15  C   UNL     1       2.547   6.777  19.315  0.00  0.00    +0.000 C 
ATOM     16  C   UNL     1       1.780   7.798  19.711  0.00  0.00    +0.000 C 
ATOM     17  C   UNL     1       1.639   8.986  18.777  0.00  0.00    +0.000 C 
BRANCH  16  18
ATOM     18  C   UNL     1       1.125   7.764  21.050  0.00  0.00    +0.000 C 
BRANCH  18  19
ATOM     19  C   UNL     1       1.516   8.943  21.921  0.00  0.00    +0.000 C 
BRANCH  19  20
ATOM     20  C   UNL     1       0.353   9.468  22.668  0.00  0.00    +0.000 C 
ATOM     21  C   UNL     1      -0.274  10.601  22.313  0.00  0.00    +0.000 C 
ATOM     22  C   UNL     1       0.132  11.444  21.136  0.00  0.00    +0.000 C 
ATOM     23  C   UNL     1      -1.447  11.093  23.102  0.00  0.00    +0.000 C 
ENDBRANCH  19  20
ENDBRANCH  18  19
ENDBRANCH  16  18
ENDBRANCH  14  15
ENDBRANCH   1  14
BRANCH   1  24
ATOM     24  C   UNL     1       3.747   4.824  17.695  0.00  0.00    +0.000 C 
BRANCH  24  27
ATOM     25  C   UNL     1       5.906   5.816  16.814  0.00  0.00    +0.000 C 
ATOM     26  C   UNL     1       7.298   6.288  17.157  0.00  0.00    +0.000 C 
ATOM     27  C   UNL     1       5.099   5.477  17.837  0.00  0.00    +0.000 C 
BRANCH  25  28
ATOM     28  C   UNL     1       5.436   5.682  15.382  0.00  0.00    +0.000 C 
BRANCH  28  29
ATOM     29  C   UNL     1       5.307   4.253  14.870  0.00  0.00    +0.000 C 
BRANCH  29  33
ATOM     30  C   UNL     1       7.180   3.195  11.628  0.00  0.00    +0.000 C 
ATOM     31  C   UNL     1       6.067   3.519  12.582  0.00  0.00    +0.000 C 
ATOM     32  C   UNL     1       4.655   3.360  12.087  0.00  0.00    +0.000 C 
ATOM     33  C   UNL     1       6.342   3.929  13.833  0.00  0.00    +0.000 C 
ENDBRANCH  29  33
ENDBRANCH  28  29
ENDBRANCH  25  28
ENDBRANCH  24  27
ENDBRANCH   1  24
TORSDOF 16
ENDMDL
MODEL 2
REMARK VINA RESULT:      -7.9      0.711      1.128
REMARK  Name = 
REMARK  22 active torsions:
REMARK  status: ('A' for Active; 'I' for Inactive)
REMARK    1  A    between atoms: C_1  and  C_2
REMARK    2  A    between atoms: C_2  and  C_3
REMARK    3  A    between atoms: C_4  and  C_5
REMARK    4  A    between atoms: C_5  and  C_6
REMARK    5  A    between atoms: C_6  and  C_7
REMARK    6  A    between atoms: C_7  and  C_8
REMARK    7  A    between atoms: C_9  and  C_10
REMARK    8  A    between atoms: C_10  and  C_11
REMARK    9  A    between atoms: C_11  and  C_12
REMARK   10  A    between atoms: C_11  and  P_22
REMARK   11  A    between atoms: C_11  and  P_26
REMARK   12  A    between atoms: C_12  and  C_13
REMARK   13  A    between atoms: C_14  and  C_15
REMARK   14  A    between atoms: C_14  and  C_16
REMARK   15  A    between atoms: C_16  and  C_17
REMARK   16  A    between atoms: C_17  and  C_18
REMARK   17  A    between atoms: C_19  and  C_20
REMARK   18  A    between atoms: C_19  and  C_21
REMARK   19  A    between atoms: P_22  and  O_24
REMARK   20  A    between atoms: P_22  and  O_25
REMARK   21  A    between atoms: P_26  and  O_28
REMARK   22  A    between atoms: P_26  and  O_29
REMARK                            x       y       z     vdW  Elec       q    Type
REMARK                         _______ _______ _______ _____ _____    ______ ____
ROOT
ATOM      1  C   UNL     1       3.341   4.405  18.740  0.00  0.00    +0.000 C 
ENDROOT
BRANCH   1   2
ATOM      2  P   UNL     1       4.304   3.027  19.466  0.00  0.00    +0.000 P 
ATOM      3  O   UNL     1       3.174   2.327  20.192  0.00  0.00    +0.000 OA
BRANCH   2   4
ATOM      4  O   UNL     1       5.216   1.726  20.151  0.00  0.00    +0.000 OA
ATOM      5  H   UNL     1       5.100   1.017  19.480  0.00  0.00    +0.000 HD
ENDBRANCH   2   4
BRANCH   2   6
ATOM      6  O   UNL     1       4.463   2.262  18.027  0.00  0.00    +0.000 OA
ATOM      7  H   UNL     1       3.664   1.716  17.846  0.00  0.00    +0.000 HD
ENDBRANCH   2   6
ENDBRANCH   1   2
BRANCH   1   8
ATOM      8  P   UNL     1       1.638   3.690  18.263  0.00  0.00    +0.000 P 
ATOM      9  O   UNL     1       0.849   4.399  17.213  0.00  0.00    +0.000 OA
BRANCH   8  10
ATOM     10  O   UNL     1       0.749   3.523  19.582  0.00  0.00    +0.000 OA
ATOM     11  H   UNL     1       0.053   4.219  19.570  0.00  0.00    +0.000 HD
ENDBRANCH   8  10
BRANCH   8  12
ATOM     12  O   UNL     1       1.771   2.134  17.875  0.00  0.00    +0.000 OA
ATOM     13  H   UNL     1       1.126   1.823  17.213  0.00  0.00    +0.000 HD
ENDBRANCH   8  12
ENDBRANCH   1   8
BRANCH   1  14
ATOM     14  C   UNL     1       3.240   5.664  19.632  0.00  0.00    +0.000 C 
BRANCH  14  15
ATOM     15  C   UNL     1       2.737   6.896  18.906  0.00  0.00    +0.000 C 
ATOM     16  C   UNL     1       1.890   7.864  19.271  0.00  0.00    +0.000 C 
ATOM     17  C   UNL     1       1.646   9.001  18.297  0.00  0.00    +0.000 C 
BRANCH  16  18
ATOM     18  C   UNL     1       1.248   7.824  20.616  0.00  0.00    +0.000 C 
BRANCH  18  19
ATOM     19  C   UNL     1       1.557   9.054  21.448  0.00  0.00    +0.000 C 
BRANCH  19  20
ATOM     20  C   UNL     1       0.654  10.175  21.108  0.00  0.00    +0.000 C 
ATOM     21  C   UNL     1      -0.322  10.583  21.934  0.00  0.00    +0.000 C 
ATOM     22  C   UNL     1      -0.597   9.956  23.273  0.00  0.00    +0.000 C 
ATOM     23  C   UNL     1      -1.213  11.723  21.546  0.00  0.00    +0.000 C 
ENDBRANCH  19  20
ENDBRANCH  18  19
ENDBRANCH  16  18
ENDBRANCH  14  15
ENDBRANCH   1  14
BRANCH   1  24
ATOM     24  C   UNL     1       4.006   4.794  17.384  0.00  0.00    +0.000 C 
BRANCH  24  27
ATOM     25  C   UNL     1       6.380   5.617  17.057  0.00  0.00    +0.000 C 
ATOM     26  C   UNL     1       7.407   6.658  17.431  0.00  0.00    +0.000 C 
ATOM     27  C   UNL     1       5.123   5.800  17.503  0.00  0.00    +0.000 C 
BRANCH  25  28
ATOM     28  C   UNL     1       6.742   4.390  16.250  0.00  0.00    +0.000 C 
BRANCH  28  29
ATOM     29  C   UNL     1       6.946   4.628  14.759  0.00  0.00    +0.000 C 
BRANCH  29  33
ATOM     30  C   UNL     1       4.752   3.170  11.895  0.00  0.00    +0.000 C 
ATOM     31  C   UNL     1       5.935   3.727  12.634  0.00  0.00    +0.000 C 
ATOM     32  C   UNL     1       7.212   3.920  11.861  0.00  0.00    +0.000 C 
ATOM     33  C   UNL     1       5.836   4.042  13.937  0.00  0.00    +0.000 C 
ENDBRANCH  29  33
ENDBRANCH  28  29
ENDBRANCH  25  28
ENDBRANCH  24  27
ENDBRANCH   1  24
TORSDOF 16
ENDMDL
MODEL 3
REMARK VINA RESULT:      -7.9      1.507      2.997
REMARK  Name = 
REMARK  22 active torsions:
REMARK  status: ('A' for Active; 'I' for Inactive)
REMARK    1  A    between atoms: C_1  and  C_2
REMARK    2  A    between atoms: C_2  and  C_3
REMARK    3  A    between atoms: C_4  and  C_5
REMARK    4  A    between atoms: C_5  and  C_6
REMARK    5  A    between atoms: C_6  and  C_7
REMARK    6  A    between atoms: C_7  and  C_8
REMARK    7  A    between atoms: C_9  and  C_10
REMARK    8  A    between atoms: C_10  and  C_11
REMARK    9  A    between atoms: C_11  and  C_12
REMARK   10  A    between atoms: C_11  and  P_22
REMARK   11  A    between atoms: C_11  and  P_26
REMARK   12  A    between atoms: C_12  and  C_13
REMARK   13  A    between atoms: C_14  and  C_15
REMARK   14  A    between atoms: C_14  and  C_16
REMARK   15  A    between atoms: C_16  and  C_17
REMARK   16  A    between atoms: C_17  and  C_18
REMARK   17  A    between atoms: C_19  and  C_20
REMARK   18  A    between atoms: C_19  and  C_21
REMARK   19  A    between atoms: P_22  and  O_24
REMARK   20  A    between atoms: P_22  and  O_25
REMARK   21  A    between atoms: P_26  and  O_28
REMARK   22  A    between atoms: P_26  and  O_29
REMARK                            x       y       z     vdW  Elec       q    Type
REMARK                         _______ _______ _______ _____ _____    ______ ____
ROOT
ATOM      1  C   UNL     1       2.925   3.866  18.879  0.00  0.00    +0.000 C 
ENDROOT
BRANCH   1   2
ATOM      2  P   UNL     1       4.189   2.666  19.438  0.00  0.00    +0.000 P 
ATOM      3  O   UNL     1       5.313   3.644  19.716  0.00  0.00    +0.000 OA
BRANCH   2   4
ATOM      4  O   UNL     1       5.383   1.531  19.967  0.00  0.00    +0.000 OA
ATOM      5  H   UNL     1       6.204   2.071  19.948  0.00  0.00    +0.000 HD
ENDBRANCH   2   4
BRANCH   2   6
ATOM      6  O   UNL     1       3.442   2.412  20.873  0.00  0.00    +0.000 OA
ATOM      7  H   UNL     1       3.733   1.554  21.257  0.00  0.00    +0.000 HD
ENDBRANCH   2   6
ENDBRANCH   1   2
BRANCH   1   8
ATOM      8  P   UNL     1       1.237   2.987  19.015  0.00  0.00    +0.000 P 
ATOM      9  O   UNL     1       0.196   3.307  17.995  0.00  0.00    +0.000 OA
BRANCH   8  10
ATOM     10  O   UNL     1       0.641   3.215  20.481  0.00  0.00    +0.000 OA
ATOM     11  H   UNL     1       1.280   2.842  21.132  0.00  0.00    +0.000 HD
ENDBRANCH   8  10
BRANCH   8  12
ATOM     12  O   UNL     1       1.439   1.393  19.094  0.00  0.00    +0.000 OA
ATOM     13  H   UNL     1       2.301   1.074  18.765  0.00  0.00    +0.000 HD
ENDBRANCH   8  12
ENDBRANCH   1   8
BRANCH   1  14
ATOM     14  C   UNL     1       2.957   5.229  19.610  0.00  0.00    +0.000 C 
BRANCH  14  15
ATOM     15  C   UNL     1       2.722   6.421  18.703  0.00  0.00    +0.000 C 
ATOM     16  C   UNL     1       2.219   7.637  18.941  0.00  0.00    +0.000 C 
ATOM     17  C   UNL     1       2.175   8.626  17.791  0.00  0.00    +0.000 C 
BRANCH  16  18
ATOM     18  C   UNL     1       1.760   7.998  20.313  0.00  0.00    +0.000 C 
BRANCH  18  19
ATOM     19  C   UNL     1       1.095   9.361  20.365  0.00  0.00    +0.000 C 
BRANCH  19  20
ATOM     20  C   UNL     1       0.343   9.544  21.626  0.00  0.00    +0.000 C 
ATOM     21  C   UNL     1      -0.447  10.609  21.839  0.00  0.00    +0.000 C 
ATOM     22  C   UNL     1      -0.648  11.712  20.838  0.00  0.00    +0.000 C 
ATOM     23  C   UNL     1      -1.188  10.751  23.132  0.00  0.00    +0.000 C 
ENDBRANCH  19  20
ENDBRANCH  18  19
ENDBRANCH  16  18
ENDBRANCH  14  15
ENDBRANCH   1  14
BRANCH   1  24
ATOM     24  C   UNL     1       3.131   4.103  17.351  0.00  0.00    +0.000 C 
BRANCH  24  27
ATOM     25  C   UNL     1       5.287   4.413  16.058  0.00  0.00    +0.000 C 
ATOM     26  C   UNL     1       6.505   3.738  15.476  0.00  0.00    +0.000 C 
ATOM     27  C   UNL     1       4.475   3.664  16.827  0.00  0.00    +0.000 C 
BRANCH  25  28
ATOM     28  C   UNL     1       4.957   5.859  15.765  0.00  0.00    +0.000 C 
BRANCH  28  29
ATOM     29  C   UNL     1       5.615   6.878  16.687  0.00  0.00    +0.000 C 
BRANCH  29  33
ATOM     30  C   UNL     1       8.201   5.960  19.445  0.00  0.00    +0.000 C 
ATOM     31  C   UNL     1       7.501   6.711  18.351  0.00  0.00    +0.000 C 
ATOM     32  C   UNL     1       8.108   8.012  17.899  0.00  0.00    +0.000 C 
ATOM     33  C   UNL     1       6.376   6.221  17.801  0.00  0.00    +0.000 C 
ENDBRANCH  29  33
ENDBRANCH  28  29
ENDBRANCH  25  28
ENDBRANCH  24  27
ENDBRANCH   1  24
TORSDOF 16
ENDMDL
MODEL 4
REMARK VINA RESULT:      -7.8      1.585      2.396
REMARK  Name = 
REMARK  22 active torsions:
REMARK  status: ('A' for Active; 'I' for Inactive)
REMARK    1  A    between atoms: C_1  and  C_2
REMARK    2  A    between atoms: C_2  and  C_3
REMARK    3  A    between atoms: C_4  and  C_5
REMARK    4  A    between atoms: C_5  and  C_6
REMARK    5  A    between atoms: C_6  and  C_7
REMARK    6  A    between atoms: C_7  and  C_8
REMARK    7  A    between atoms: C_9  and  C_10
REMARK    8  A    between atoms: C_10  and  C_11
REMARK    9  A    between atoms: C_11  and  C_12
REMARK   10  A    between atoms: C_11  and  P_22
REMARK   11  A    between atoms: C_11  and  P_26
REMARK   12  A    between atoms: C_12  and  C_13
REMARK   13  A    between atoms: C_14  and  C_15
REMARK   14  A    between atoms: C_14  and  C_16
REMARK   15  A    between atoms: C_16  and  C_17
REMARK   16  A    between atoms: C_17  and  C_18
REMARK   17  A    between atoms: C_19  and  C_20
REMARK   18  A    between atoms: C_19  and  C_21
REMARK   19  A    between atoms: P_22  and  O_24
REMARK   20  A    between atoms: P_22  and  O_25
REMARK   21  A    between atoms: P_26  and  O_28
REMARK   22  A    between atoms: P_26  and  O_29
REMARK                            x       y       z     vdW  Elec       q    Type
REMARK                         _______ _______ _______ _____ _____    ______ ____
ROOT
ATOM      1  C   UNL     1       3.250   4.263  19.022  0.00  0.00    +0.000 C 
ENDROOT
BRANCH   1   2
ATOM      2  P   UNL     1       2.707   3.787  20.704  0.00  0.00    +0.000 P 
ATOM      3  O   UNL     1       1.268   3.439  20.379  0.00  0.00    +0.000 OA
BRANCH   2   4
ATOM      4  O   UNL     1       2.194   3.337  22.294  0.00  0.00    +0.000 OA
ATOM      5  H   UNL     1       2.359   4.160  22.804  0.00  0.00    +0.000 HD
ENDBRANCH   2   4
BRANCH   2   6
ATOM      6  O   UNL     1       3.535   2.375  20.668  0.00  0.00    +0.000 OA
ATOM      7  H   UNL     1       3.201   1.771  21.371  0.00  0.00    +0.000 HD
ENDBRANCH   2   6
ENDBRANCH   1   2
BRANCH   1   8
ATOM      8  P   UNL     1       2.274   3.171  17.801  0.00  0.00    +0.000 P 
ATOM      9  O   UNL     1       2.808   3.018  16.415  0.00  0.00    +0.000 OA
BRANCH   8  10
ATOM     10  O   UNL     1       0.758   3.675  17.739  0.00  0.00    +0.000 OA
ATOM     11  H   UNL     1       0.602   4.268  18.510  0.00  0.00    +0.000 HD
ENDBRANCH   8  10
BRANCH   8  12
ATOM     12  O   UNL     1       2.008   1.717  18.437  0.00  0.00    +0.000 OA
ATOM     13  H   UNL     1       1.942   1.704  19.410  0.00  0.00    +0.000 HD
ENDBRANCH   8  12
ENDBRANCH   1   8
BRANCH   1  14
ATOM     14  C   UNL     1       3.135   5.773  18.708  0.00  0.00    +0.000 C 
BRANCH  14  15
ATOM     15  C   UNL     1       2.436   6.577  19.786  0.00  0.00    +0.000 C 
ATOM     16  C   UNL     1       1.898   7.801  19.780  0.00  0.00    +0.000 C 
ATOM     17  C   UNL     1       1.216   8.285  21.046  0.00  0.00    +0.000 C 
BRANCH  16  18
ATOM     18  C   UNL     1       1.945   8.629  18.542  0.00  0.00    +0.000 C 
BRANCH  18  19
ATOM     19  C   UNL     1       1.241   9.963  18.705  0.00  0.00    +0.000 C 
BRANCH  19  20
ATOM     20  C   UNL     1      -0.067   9.969  18.015  0.00  0.00    +0.000 C 
ATOM     21  C   UNL     1      -1.173  10.479  18.581  0.00  0.00    +0.000 C 
ATOM     22  C   UNL     1      -1.200  11.089  19.955  0.00  0.00    +0.000 C 
ATOM     23  C   UNL     1      -2.475  10.462  17.842  0.00  0.00    +0.000 C 
ENDBRANCH  19  20
ENDBRANCH  18  19
ENDBRANCH  16  18
ENDBRANCH  14  15
ENDBRANCH   1  14
BRANCH   1  24
ATOM     24  C   UNL     1       4.737   3.822  18.854  0.00  0.00    +0.000 C 
BRANCH  24  27
ATOM     25  C   UNL     1       6.277   5.559  17.842  0.00  0.00    +0.000 C 
ATOM     26  C   UNL     1       7.396   6.541  18.097  0.00  0.00    +0.000 C 
ATOM     27  C   UNL     1       5.734   4.951  18.913  0.00  0.00    +0.000 C 
BRANCH  25  28
ATOM     28  C   UNL     1       5.804   5.231  16.444  0.00  0.00    +0.000 C 
BRANCH  28  29
ATOM     29  C   UNL     1       6.838   4.558  15.548  0.00  0.00    +0.000 C 
BRANCH  29  33
ATOM     30  C   UNL     1       5.774   3.154  12.079  0.00  0.00    +0.000 C 
ATOM     31  C   UNL     1       6.492   3.956  13.126  0.00  0.00    +0.000 C 
ATOM     32  C   UNL     1       7.530   4.941  12.660  0.00  0.00    +0.000 C 
ATOM     33  C   UNL     1       6.199   3.791  14.428  0.00  0.00    +0.000 C 
ENDBRANCH  29  33
ENDBRANCH  28  29
ENDBRANCH  25  28
ENDBRANCH  24  27
ENDBRANCH   1  24
TORSDOF 16
ENDMDL
MODEL 5
REMARK VINA RESULT:      -7.7      0.782      1.501
REMARK  Name = 
REMARK  22 active torsions:
REMARK  status: ('A' for Active; 'I' for Inactive)
REMARK    1  A    between atoms: C_1  and  C_2
REMARK    2  A    between atoms: C_2  and  C_3
REMARK    3  A    between atoms: C_4  and  C_5
REMARK    4  A    between atoms: C_5  and  C_6
REMARK    5  A    between atoms: C_6  and  C_7
REMARK    6  A    between atoms: C_7  and  C_8
REMARK    7  A    between atoms: C_9  and  C_10
REMARK    8  A    between atoms: C_10  and  C_11
REMARK    9  A    between atoms: C_11  and  C_12
REMARK   10  A    between atoms: C_11  and  P_22
REMARK   11  A    between atoms: C_11  and  P_26
REMARK   12  A    between atoms: C_12  and  C_13
REMARK   13  A    between atoms: C_14  and  C_15
REMARK   14  A    between atoms: C_14  and  C_16
REMARK   15  A    between atoms: C_16  and  C_17
REMARK   16  A    between atoms: C_17  and  C_18
REMARK   17  A    between atoms: C_19  and  C_20
REMARK   18  A    between atoms: C_19  and  C_21
REMARK   19  A    between atoms: P_22  and  O_24
REMARK   20  A    between atoms: P_22  and  O_25
REMARK   21  A    between atoms: P_26  and  O_28
REMARK   22  A    between atoms: P_26  and  O_29
REMARK                            x       y       z     vdW  Elec       q    Type
REMARK                         _______ _______ _______ _____ _____    ______ ____
ROOT
ATOM      1  C   UNL     1       3.240   4.128  18.729  0.00  0.00    +0.000 C 
ENDROOT
BRANCH   1   2
ATOM      2  P   UNL     1       4.233   2.730  19.371  0.00  0.00    +0.000 P 
ATOM      3  O   UNL     1       5.497   3.495  19.708  0.00  0.00    +0.000 OA
BRANCH   2   4
ATOM      4  O   UNL     1       5.171   1.409  19.978  0.00  0.00    +0.000 OA
ATOM      5  H   UNL     1       5.650   1.824  20.729  0.00  0.00    +0.000 HD
ENDBRANCH   2   4
BRANCH   2   6
ATOM      6  O   UNL     1       3.372   2.641  20.761  0.00  0.00    +0.000 OA
ATOM      7  H   UNL     1       2.409   2.616  20.559  0.00  0.00    +0.000 HD
ENDBRANCH   2   6
ENDBRANCH   1   2
BRANCH   1   8
ATOM      8  P   UNL     1       1.444   3.502  18.586  0.00  0.00    +0.000 P 
ATOM      9  O   UNL     1       0.556   3.642  19.778  0.00  0.00    +0.000 OA
BRANCH   8  10
ATOM     10  O   UNL     1       1.453   1.979  18.099  0.00  0.00    +0.000 OA
ATOM     11  H   UNL     1       1.435   1.974  17.114  0.00  0.00    +0.000 HD
ENDBRANCH   8  10
BRANCH   8  12
ATOM     12  O   UNL     1       0.723   4.151  17.302  0.00  0.00    +0.000 OA
ATOM     13  H   UNL     1       1.155   3.954  16.450  0.00  0.00    +0.000 HD
ENDBRANCH   8  12
ENDBRANCH   1   8
BRANCH   1  14
ATOM     14  C   UNL     1       3.362   5.437  19.543  0.00  0.00    +0.000 C 
BRANCH  14  15
ATOM     15  C   UNL     1       2.881   6.670  18.805  0.00  0.00    +0.000 C 
ATOM     16  C   UNL     1       2.105   7.691  19.183  0.00  0.00    +0.000 C 
ATOM     17  C   UNL     1       1.864   8.809  18.186  0.00  0.00    +0.000 C 
BRANCH  16  18
ATOM     18  C   UNL     1       1.538   7.725  20.561  0.00  0.00    +0.000 C 
BRANCH  18  19
ATOM     19  C   UNL     1       1.715   9.074  21.232  0.00  0.00    +0.000 C 
BRANCH  19  20
ATOM     20  C   UNL     1       0.629   9.340  22.200  0.00  0.00    +0.000 C 
ATOM     21  C   UNL     1      -0.113  10.458  22.155  0.00  0.00    +0.000 C 
ATOM     22  C   UNL     1       0.076  11.542  21.131  0.00  0.00    +0.000 C 
ATOM     23  C   UNL     1      -1.202  10.682  23.158  0.00  0.00    +0.000 C 
ENDBRANCH  19  20
ENDBRANCH  18  19
ENDBRANCH  16  18
ENDBRANCH  14  15
ENDBRANCH   1  14
BRANCH   1  24
ATOM     24  C   UNL     1       3.688   4.399  17.260  0.00  0.00    +0.000 C 
BRANCH  24  27
ATOM     25  C   UNL     1       5.989   4.894  16.323  0.00  0.00    +0.000 C 
ATOM     26  C   UNL     1       7.251   5.709  16.468  0.00  0.00    +0.000 C 
ATOM     27  C   UNL     1       4.958   5.201  17.132  0.00  0.00    +0.000 C 
BRANCH  25  28
ATOM     28  C   UNL     1       5.887   3.746  15.343  0.00  0.00    +0.000 C 
BRANCH  28  29
ATOM     29  C   UNL     1       6.285   4.077  13.910  0.00  0.00    +0.000 C 
BRANCH  29  33
ATOM     30  C   UNL     1       3.837   3.178  11.022  0.00  0.00    +0.000 C 
ATOM     31  C   UNL     1       5.040   3.158  11.921  0.00  0.00    +0.000 C 
ATOM     32  C   UNL     1       6.136   2.180  11.597  0.00  0.00    +0.000 C 
ATOM     33  C   UNL     1       5.119   3.997  12.968  0.00  0.00    +0.000 C 
ENDBRANCH  29  33
ENDBRANCH  28  29
ENDBRANCH  25  28
ENDBRANCH  24  27
ENDBRANCH   1  24
TORSDOF 16
ENDMDL
MODEL 6
REMARK VINA RESULT:      -7.6      0.959      1.564
REMARK  Name = 
REMARK  22 active torsions:
REMARK  status: ('A' for Active; 'I' for Inactive)
REMARK    1  A    between atoms: C_1  and  C_2
REMARK    2  A    between atoms: C_2  and  C_3
REMARK    3  A    between atoms: C_4  and  C_5
REMARK    4  A    between atoms: C_5  and  C_6
REMARK    5  A    between atoms: C_6  and  C_7
REMARK    6  A    between atoms: C_7  and  C_8
REMARK    7  A    between atoms: C_9  and  C_10
REMARK    8  A    between atoms: C_10  and  C_11
REMARK    9  A    between atoms: C_11  and  C_12
REMARK   10  A    between atoms: C_11  and  P_22
REMARK   11  A    between atoms: C_11  and  P_26
REMARK   12  A    between atoms: C_12  and  C_13
REMARK   13  A    between atoms: C_14  and  C_15
REMARK   14  A    between atoms: C_14  and  C_16
REMARK   15  A    between atoms: C_16  and  C_17
REMARK   16  A    between atoms: C_17  and  C_18
REMARK   17  A    between atoms: C_19  and  C_20
REMARK   18  A    between atoms: C_19  and  C_21
REMARK   19  A    between atoms: P_22  and  O_24
REMARK   20  A    between atoms: P_22  and  O_25
REMARK   21  A    between atoms: P_26  and  O_28
REMARK   22  A    between atoms: P_26  and  O_29
REMARK                            x       y       z     vdW  Elec       q    Type
REMARK                         _______ _______ _______ _____ _____    ______ ____
ROOT
ATOM      1  C   UNL     1       3.276   4.130  18.822  0.00  0.00    +0.000 C 
ENDROOT
BRANCH   1   2
ATOM      2  P   UNL     1       4.271   2.753  19.504  0.00  0.00    +0.000 P 
ATOM      3  O   UNL     1       5.428   3.566  20.048  0.00  0.00    +0.000 OA
BRANCH   2   4
ATOM      4  O   UNL     1       5.210   1.450  20.148  0.00  0.00    +0.000 OA
ATOM      5  H   UNL     1       4.545   0.730  20.215  0.00  0.00    +0.000 HD
ENDBRANCH   2   4
BRANCH   2   6
ATOM      6  O   UNL     1       3.249   2.518  20.761  0.00  0.00    +0.000 OA
ATOM      7  H   UNL     1       3.371   3.229  21.432  0.00  0.00    +0.000 HD
ENDBRANCH   2   6
ENDBRANCH   1   2
BRANCH   1   8
ATOM      8  P   UNL     1       1.479   3.500  18.702  0.00  0.00    +0.000 P 
ATOM      9  O   UNL     1       0.564   3.769  19.850  0.00  0.00    +0.000 OA
BRANCH   8  10
ATOM     10  O   UNL     1       1.490   1.933  18.381  0.00  0.00    +0.000 OA
ATOM     11  H   UNL     1       1.398   1.447  19.232  0.00  0.00    +0.000 HD
ENDBRANCH   8  10
BRANCH   8  12
ATOM     12  O   UNL     1       0.795   4.011  17.339  0.00  0.00    +0.000 OA
ATOM     13  H   UNL     1       1.112   4.878  17.023  0.00  0.00    +0.000 HD
ENDBRANCH   8  12
ENDBRANCH   1   8
BRANCH   1  14
ATOM     14  C   UNL     1       3.399   5.463  19.596  0.00  0.00    +0.000 C 
BRANCH  14  15
ATOM     15  C   UNL     1       3.007   6.684  18.788  0.00  0.00    +0.000 C 
ATOM     16  C   UNL     1       2.122   7.660  19.018  0.00  0.00    +0.000 C 
ATOM     17  C   UNL     1       2.020   8.782  18.002  0.00  0.00    +0.000 C 
BRANCH  16  18
ATOM     18  C   UNL     1       1.300   7.642  20.261  0.00  0.00    +0.000 C 
BRANCH  18  19
ATOM     19  C   UNL     1       1.671   8.756  21.222  0.00  0.00    +0.000 C 
BRANCH  19  20
ATOM     20  C   UNL     1       0.740   9.900  21.104  0.00  0.00    +0.000 C 
ATOM     21  C   UNL     1      -0.094  10.250  22.097  0.00  0.00    +0.000 C 
ATOM     22  C   UNL     1      -0.170   9.528  23.413  0.00  0.00    +0.000 C 
ATOM     23  C   UNL     1      -1.018  11.416  21.930  0.00  0.00    +0.000 C 
ENDBRANCH  19  20
ENDBRANCH  18  19
ENDBRANCH  16  18
ENDBRANCH  14  15
ENDBRANCH   1  14
BRANCH   1  24
ATOM     24  C   UNL     1       3.720   4.357  17.344  0.00  0.00    +0.000 C 
BRANCH  24  27
ATOM     25  C   UNL     1       5.888   4.530  16.046  0.00  0.00    +0.000 C 
ATOM     26  C   UNL     1       7.379   4.756  16.122  0.00  0.00    +0.000 C 
ATOM     27  C   UNL     1       5.178   4.701  17.176  0.00  0.00    +0.000 C 
BRANCH  25  28
ATOM     28  C   UNL     1       5.211   4.086  14.768  0.00  0.00    +0.000 C 
BRANCH  28  29
ATOM     29  C   UNL     1       5.964   4.416  13.484  0.00  0.00    +0.000 C 
BRANCH  29  33
ATOM     30  C   UNL     1       6.088   1.358  11.081  0.00  0.00    +0.000 C 
ATOM     31  C   UNL     1       5.616   2.611  11.760  0.00  0.00    +0.000 C 
ATOM     32  C   UNL     1       4.297   3.187  11.321  0.00  0.00    +0.000 C 
ATOM     33  C   UNL     1       6.356   3.180  12.727  0.00  0.00    +0.000 C 
ENDBRANCH  29  33
ENDBRANCH  28  29
ENDBRANCH  25  28
ENDBRANCH  24  27
ENDBRANCH   1  24
TORSDOF 16
ENDMDL
MODEL 7
REMARK VINA RESULT:      -7.5      1.481      8.113
REMARK  Name = 
REMARK  22 active torsions:
REMARK  status: ('A' for Active; 'I' for Inactive)
REMARK    1  A    between atoms: C_1  and  C_2
REMARK    2  A    between atoms: C_2  and  C_3
REMARK    3  A    between atoms: C_4  and  C_5
REMARK    4  A    between atoms: C_5  and  C_6
REMARK    5  A    between atoms: C_6  and  C_7
REMARK    6  A    between atoms: C_7  and  C_8
REMARK    7  A    between atoms: C_9  and  C_10
REMARK    8  A    between atoms: C_10  and  C_11
REMARK    9  A    between atoms: C_11  and  C_12
REMARK   10  A    between atoms: C_11  and  P_22
REMARK   11  A    between atoms: C_11  and  P_26
REMARK   12  A    between atoms: C_12  and  C_13
REMARK   13  A    between atoms: C_14  and  C_15
REMARK   14  A    between atoms: C_14  and  C_16
REMARK   15  A    between atoms: C_16  and  C_17
REMARK   16  A    between atoms: C_17  and  C_18
REMARK   17  A    between atoms: C_19  and  C_20
REMARK   18  A    between atoms: C_19  and  C_21
REMARK   19  A    between atoms: P_22  and  O_24
REMARK   20  A    between atoms: P_22  and  O_25
REMARK   21  A    between atoms: P_26  and  O_28
REMARK   22  A    between atoms: P_26  and  O_29
REMARK                            x       y       z     vdW  Elec       q    Type
REMARK                         _______ _______ _______ _____ _____    ______ ____
ROOT
ATOM      1  C   UNL     1       3.080   4.130  18.833  0.00  0.00    +0.000 C 
ENDROOT
BRANCH   1   2
ATOM      2  P   UNL     1       1.411   3.509  19.258  0.00  0.00    +0.000 P 
ATOM      3  O   UNL     1       0.768   3.656  17.894  0.00  0.00    +0.000 OA
BRANCH   2   4
ATOM      4  O   UNL     1      -0.166   2.923  19.661  0.00  0.00    +0.000 OA
ATOM      5  H   UNL     1      -0.107   2.825  20.637  0.00  0.00    +0.000 HD
ENDBRANCH   2   4
BRANCH   2   6
ATOM      6  O   UNL     1       1.916   1.956  19.358  0.00  0.00    +0.000 OA
ATOM      7  H   UNL     1       1.595   1.550  20.196  0.00  0.00    +0.000 HD
ENDBRANCH   2   6
ENDBRANCH   1   2
BRANCH   1   8
ATOM      8  P   UNL     1       4.310   2.743  19.281  0.00  0.00    +0.000 P 
ATOM      9  O   UNL     1       4.199   2.115  20.630  0.00  0.00    +0.000 OA
BRANCH   8  10
ATOM     10  O   UNL     1       5.803   3.269  19.055  0.00  0.00    +0.000 OA
ATOM     11  H   UNL     1       6.186   3.488  19.936  0.00  0.00    +0.000 HD
ENDBRANCH   8  10
BRANCH   8  12
ATOM     12  O   UNL     1       4.297   1.595  18.153  0.00  0.00    +0.000 OA
ATOM     13  H   UNL     1       3.412   1.373  17.808  0.00  0.00    +0.000 HD
ENDBRANCH   8  12
ENDBRANCH   1   8
BRANCH   1  14
ATOM     14  C   UNL     1       3.234   4.628  17.377  0.00  0.00    +0.000 C 
BRANCH  14  15
ATOM     15  C   UNL     1       4.532   5.364  17.110  0.00  0.00    +0.000 C 
ATOM     16  C   UNL     1       5.469   5.209  16.169  0.00  0.00    +0.000 C 
ATOM     17  C   UNL     1       6.639   6.175  16.164  0.00  0.00    +0.000 C 
BRANCH  16  18
ATOM     18  C   UNL     1       5.325   4.136  15.144  0.00  0.00    +0.000 C 
BRANCH  18  19
ATOM     19  C   UNL     1       5.747   4.592  13.760  0.00  0.00    +0.000 C 
BRANCH  19  20
ATOM     20  C   UNL     1       6.325   3.476  12.980  0.00  0.00    +0.000 C 
ATOM     21  C   UNL     1       5.663   2.889  11.970  0.00  0.00    +0.000 C 
ATOM     22  C   UNL     1       4.284   3.296  11.531  0.00  0.00    +0.000 C 
ATOM     23  C   UNL     1       6.291   1.763  11.210  0.00  0.00    +0.000 C 
ENDBRANCH  19  20
ENDBRANCH  18  19
ENDBRANCH  16  18
ENDBRANCH  14  15
ENDBRANCH   1  14
BRANCH   1  24
ATOM     24  C   UNL     1       3.421   5.298  19.809  0.00  0.00    +0.000 C 
BRANCH  24  27
ATOM     25  C   UNL     1       1.823   7.254  20.005  0.00  0.00    +0.000 C 
ATOM     26  C   UNL     1       0.708   7.884  20.803  0.00  0.00    +0.000 C 
ATOM     27  C   UNL     1       2.219   6.019  20.364  0.00  0.00    +0.000 C 
BRANCH  25  28
ATOM     28  C   UNL     1       2.509   7.986  18.872  0.00  0.00    +0.000 C 
BRANCH  28  29
ATOM     29  C   UNL     1       1.584   8.776  17.954  0.00  0.00    +0.000 C 
BRANCH  29  33
ATOM     30  C   UNL     1       0.536  12.410  18.869  0.00  0.00    +0.000 C 
ATOM     31  C   UNL     1       0.450  10.942  18.564  0.00  0.00    +0.000 C 
ATOM     32  C   UNL     1      -0.915  10.309  18.564  0.00  0.00    +0.000 C 
ATOM     33  C   UNL     1       1.563  10.237  18.296  0.00  0.00    +0.000 C 
ENDBRANCH  29  33
ENDBRANCH  28  29
ENDBRANCH  25  28
ENDBRANCH  24  27
ENDBRANCH   1  24
TORSDOF 16
ENDMDL
MODEL 8
REMARK VINA RESULT:      -7.5      1.855      3.482
REMARK  Name = 
REMARK  22 active torsions:
REMARK  status: ('A' for Active; 'I' for Inactive)
REMARK    1  A    between atoms: C_1  and  C_2
REMARK    2  A    between atoms: C_2  and  C_3
REMARK    3  A    between atoms: C_4  and  C_5
REMARK    4  A    between atoms: C_5  and  C_6
REMARK    5  A    between atoms: C_6  and  C_7
REMARK    6  A    between atoms: C_7  and  C_8
REMARK    7  A    between atoms: C_9  and  C_10
REMARK    8  A    between atoms: C_10  and  C_11
REMARK    9  A    between atoms: C_11  and  C_12
REMARK   10  A    between atoms: C_11  and  P_22
REMARK   11  A    between atoms: C_11  and  P_26
REMARK   12  A    between atoms: C_12  and  C_13
REMARK   13  A    between atoms: C_14  and  C_15
REMARK   14  A    between atoms: C_14  and  C_16
REMARK   15  A    between atoms: C_16  and  C_17
REMARK   16  A    between atoms: C_17  and  C_18
REMARK   17  A    between atoms: C_19  and  C_20
REMARK   18  A    between atoms: C_19  and  C_21
REMARK   19  A    between atoms: P_22  and  O_24
REMARK   20  A    between atoms: P_22  and  O_25
REMARK   21  A    between atoms: P_26  and  O_28
REMARK   22  A    between atoms: P_26  and  O_29
REMARK                            x       y       z     vdW  Elec       q    Type
REMARK                         _______ _______ _______ _____ _____    ______ ____
ROOT
ATOM      1  C   UNL     1       3.393   3.902  18.669  0.00  0.00    +0.000 C 
ENDROOT
BRANCH   1   2
ATOM      2  P   UNL     1       4.129   2.760  19.896  0.00  0.00    +0.000 P 
ATOM      3  O   UNL     1       3.743   1.451  19.237  0.00  0.00    +0.000 OA
BRANCH   2   4
ATOM      4  O   UNL     1       4.825   1.682  21.056  0.00  0.00    +0.000 OA
ATOM      5  H   UNL     1       5.213   0.985  20.483  0.00  0.00    +0.000 HD
ENDBRANCH   2   4
BRANCH   2   6
ATOM      6  O   UNL     1       5.659   3.080  19.409  0.00  0.00    +0.000 OA
ATOM      7  H   UNL     1       5.645   3.665  18.617  0.00  0.00    +0.000 HD
ENDBRANCH   2   6
ENDBRANCH   1   2
BRANCH   1   8
ATOM      8  P   UNL     1       1.516   3.564  18.663  0.00  0.00    +0.000 P 
ATOM      9  O   UNL     1       0.753   3.824  19.920  0.00  0.00    +0.000 OA
BRANCH   8  10
ATOM     10  O   UNL     1       1.252   2.063  18.177  0.00  0.00    +0.000 OA
ATOM     11  H   UNL     1       0.570   2.088  17.467  0.00  0.00    +0.000 HD
ENDBRANCH   8  10
BRANCH   8  12
ATOM     12  O   UNL     1       0.810   4.331  17.438  0.00  0.00    +0.000 OA
ATOM     13  H   UNL     1      -0.056   3.967  17.173  0.00  0.00    +0.000 HD
ENDBRANCH   8  12
ENDBRANCH   1   8
BRANCH   1  14
ATOM     14  C   UNL     1       3.738   5.394  18.884  0.00  0.00    +0.000 C 
BRANCH  14  15
ATOM     15  C   UNL     1       2.824   6.104  19.864  0.00  0.00    +0.000 C 
ATOM     16  C   UNL     1       2.156   7.259  19.785  0.00  0.00    +0.000 C 
ATOM     17  C   UNL     1       1.272   7.651  20.955  0.00  0.00    +0.000 C 
BRANCH  16  18
ATOM     18  C   UNL     1       2.262   8.099  18.558  0.00  0.00    +0.000 C 
BRANCH  18  19
ATOM     19  C   UNL     1       1.526   9.419  18.690  0.00  0.00    +0.000 C 
BRANCH  19  20
ATOM     20  C   UNL     1       0.367   9.482  17.773  0.00  0.00    +0.000 C 
ATOM     21  C   UNL     1      -0.786  10.078  18.117  0.00  0.00    +0.000 C 
ATOM     22  C   UNL     1      -1.020  10.734  19.448  0.00  0.00    +0.000 C 
ATOM     23  C   UNL     1      -1.932  10.116  17.153  0.00  0.00    +0.000 C 
ENDBRANCH  19  20
ENDBRANCH  18  19
ENDBRANCH  16  18
ENDBRANCH  14  15
ENDBRANCH   1  14
BRANCH   1  24
ATOM     24  C   UNL     1       3.883   3.466  17.254  0.00  0.00    +0.000 C 
BRANCH  24  27
ATOM     25  C   UNL     1       5.179   4.860  15.581  0.00  0.00    +0.000 C 
ATOM     26  C   UNL     1       5.226   6.147  14.793  0.00  0.00    +0.000 C 
ATOM     27  C   UNL     1       4.055   4.601  16.276  0.00  0.00    +0.000 C 
BRANCH  25  28
ATOM     28  C   UNL     1       6.355   3.910  15.633  0.00  0.00    +0.000 C 
BRANCH  28  29
ATOM     29  C   UNL     1       7.665   4.522  16.116  0.00  0.00    +0.000 C 
BRANCH  29  33
ATOM     30  C   UNL     1       7.707   5.822  19.783  0.00  0.00    +0.000 C 
ATOM     31  C   UNL     1       7.621   5.806  18.284  0.00  0.00    +0.000 C 
ATOM     32  C   UNL     1       7.438   7.124  17.582  0.00  0.00    +0.000 C 
ATOM     33  C   UNL     1       7.712   4.646  17.611  0.00  0.00    +0.000 C 
ENDBRANCH  29  33
ENDBRANCH  28  29
ENDBRANCH  25  28
ENDBRANCH  24  27
ENDBRANCH   1  24
TORSDOF 16
ENDMDL
MODEL 9
REMARK VINA RESULT:      -7.5      1.364      1.818
REMARK  Name = 
REMARK  22 active torsions:
REMARK  status: ('A' for Active; 'I' for Inactive)
REMARK    1  A    between atoms: C_1  and  C_2
REMARK    2  A    between atoms: C_2  and  C_3
REMARK    3  A    between atoms: C_4  and  C_5
REMARK    4  A    between atoms: C_5  and  C_6
REMARK    5  A    between atoms: C_6  and  C_7
REMARK    6  A    between atoms: C_7  and  C_8
REMARK    7  A    between atoms: C_9  and  C_10
REMARK    8  A    between atoms: C_10  and  C_11
REMARK    9  A    between atoms: C_11  and  C_12
REMARK   10  A    between atoms: C_11  and  P_22
REMARK   11  A    between atoms: C_11  and  P_26
REMARK   12  A    between atoms: C_12  and  C_13
REMARK   13  A    between atoms: C_14  and  C_15
REMARK   14  A    between atoms: C_14  and  C_16
REMARK   15  A    between atoms: C_16  and  C_17
REMARK   16  A    between atoms: C_17  and  C_18
REMARK   17  A    between atoms: C_19  and  C_20
REMARK   18  A    between atoms: C_19  and  C_21
REMARK   19  A    between atoms: P_22  and  O_24
REMARK   20  A    between atoms: P_22  and  O_25
REMARK   21  A    between atoms: P_26  and  O_28
REMARK   22  A    between atoms: P_26  and  O_29
REMARK                            x       y       z     vdW  Elec       q    Type
REMARK                         _______ _______ _______ _____ _____    ______ ____
ROOT
ATOM      1  C   UNL     1       3.203   4.060  18.964  0.00  0.00    +0.000 C 
ENDROOT
BRANCH   1   2
ATOM      2  P   UNL     1       4.121   2.910  20.053  0.00  0.00    +0.000 P 
ATOM      3  O   UNL     1       3.027   2.651  21.070  0.00  0.00    +0.000 OA
BRANCH   2   4
ATOM      4  O   UNL     1       4.989   1.822  21.082  0.00  0.00    +0.000 OA
ATOM      5  H   UNL     1       5.845   1.730  20.608  0.00  0.00    +0.000 HD
ENDBRANCH   2   4
BRANCH   2   6
ATOM      6  O   UNL     1       4.038   1.681  18.974  0.00  0.00    +0.000 OA
ATOM      7  H   UNL     1       3.098   1.450  18.798  0.00  0.00    +0.000 HD
ENDBRANCH   2   6
ENDBRANCH   1   2
BRANCH   1   8
ATOM      8  P   UNL     1       1.857   3.030  18.089  0.00  0.00    +0.000 P 
ATOM      9  O   UNL     1       2.288   2.065  17.034  0.00  0.00    +0.000 OA
BRANCH   8  10
ATOM     10  O   UNL     1       0.744   4.013  17.496  0.00  0.00    +0.000 OA
ATOM     11  H   UNL     1       0.692   3.863  16.524  0.00  0.00    +0.000 HD
ENDBRANCH   8  10
BRANCH   8  12
ATOM     12  O   UNL     1       0.941   2.269  19.170  0.00  0.00    +0.000 OA
ATOM     13  H   UNL     1       1.392   2.056  20.009  0.00  0.00    +0.000 HD
ENDBRANCH   8  12
ENDBRANCH   1   8
BRANCH   1  14
ATOM     14  C   UNL     1       2.639   5.313  19.674  0.00  0.00    +0.000 C 
BRANCH  14  15
ATOM     15  C   UNL     1       2.620   6.557  18.809  0.00  0.00    +0.000 C 
ATOM     16  C   UNL     1       2.179   7.798  19.039  0.00  0.00    +0.000 C 
ATOM     17  C   UNL     1       2.368   8.835  17.948  0.00  0.00    +0.000 C 
BRANCH  16  18
ATOM     18  C   UNL     1       1.559   8.137  20.352  0.00  0.00    +0.000 C 
BRANCH  18  19
ATOM     19  C   UNL     1       1.000   9.546  20.387  0.00  0.00    +0.000 C 
BRANCH  19  20
ATOM     20  C   UNL     1      -0.333   9.612  19.748  0.00  0.00    +0.000 C 
ATOM     21  C   UNL     1      -0.724  10.668  19.016  0.00  0.00    +0.000 C 
ATOM     22  C   UNL     1       0.136  11.877  18.772  0.00  0.00    +0.000 C 
ATOM     23  C   UNL     1      -2.083  10.689  18.389  0.00  0.00    +0.000 C 
ENDBRANCH  19  20
ENDBRANCH  18  19
ENDBRANCH  16  18
ENDBRANCH  14  15
ENDBRANCH   1  14
BRANCH   1  24
ATOM     24  C   UNL     1       4.166   4.512  17.823  0.00  0.00    +0.000 C 
BRANCH  24  27
ATOM     25  C   UNL     1       6.638   4.844  17.380  0.00  0.00    +0.000 C 
ATOM     26  C   UNL     1       8.043   4.598  17.874  0.00  0.00    +0.000 C 
ATOM     27  C   UNL     1       5.626   4.506  18.200  0.00  0.00    +0.000 C 
BRANCH  25  28
ATOM     28  C   UNL     1       6.362   5.408  16.003  0.00  0.00    +0.000 C 
BRANCH  28  29
ATOM     29  C   UNL     1       6.972   4.627  14.845  0.00  0.00    +0.000 C 
BRANCH  29  33
ATOM     30  C   UNL     1       4.910   3.104  11.919  0.00  0.00    +0.000 C 
ATOM     31  C   UNL     1       6.029   3.758  12.676  0.00  0.00    +0.000 C 
ATOM     32  C   UNL     1       7.248   4.175  11.898  0.00  0.00    +0.000 C 
ATOM     33  C   UNL     1       5.925   3.961  14.001  0.00  0.00    +0.000 C 
ENDBRANCH  29  33
ENDBRANCH  28  29
ENDBRANCH  25  28
ENDBRANCH  24  27
ENDBRANCH   1  24
TORSDOF 16
ENDMDL
