MODEL 1
REMARK VINA RESULT:      -7.8      0.000      0.000
REMARK  Name = 
REMARK  5 active torsions:
REMARK  status: ('A' for Active; 'I' for Inactive)
REMARK    1  A    between atoms: C_1  and  O_2
REMARK    2  A    between atoms: O_2  and  C_3
REMARK    3  A    between atoms: C_8  and  C_9
REMARK    4  A    between atoms: C_9  and  C_10
REMARK    5  A    between atoms: C_10  and  N_11
REMARK                            x       y       z     vdW  Elec       q    Type
REMARK                         _______ _______ _______ _____ _____    ______ ____
ROOT
ATOM      1  N   UNL     1       2.789   5.346  18.015  0.00  0.00    +0.000 N 
ATOM      2  C   UNL     1       4.111   5.434  17.419  0.00  0.00    +0.000 A 
ATOM      3  C   UNL     1       4.650   6.632  16.881  0.00  0.00    +0.000 A 
ATOM      4  C   UNL     1       5.990   6.767  16.492  0.00  0.00    +0.000 A 
ATOM      5  C   UNL     1       6.854   5.695  16.610  0.00  0.00    +0.000 A 
ATOM      6  C   UNL     1       6.331   4.465  16.975  0.00  0.00    +0.000 A 
ATOM      7  C   UNL     1       4.972   4.343  17.302  0.00  0.00    +0.000 A 
ATOM      8  O   UNL     1       4.478   3.078  17.340  0.00  0.00    +0.000 OA
ATOM      9  S   UNL     1       4.249   2.426  18.798  0.00  0.00    +0.000 S 
ATOM     10  O   UNL     1       5.464   2.574  19.588  0.00  0.00    +0.000 OA
ATOM     11  O   UNL     1       3.679   1.108  18.587  0.00  0.00    +0.000 OA
ATOM     12  C   UNL     1       3.011   3.376  19.583  0.00  0.00    +0.000 A 
ATOM     13  C   UNL     1       2.556   2.782  20.782  0.00  0.00    +0.000 A 
ATOM     14  C   UNL     1       1.272   3.020  21.215  0.00  0.00    +0.000 A 
ATOM     15  C   UNL     1       0.506   3.818  20.408  0.00  0.00    +0.000 A 
ATOM     16  N   UNL     1       1.000   4.493  19.338  0.00  0.00    +0.000 NA
ATOM     17  C   UNL     1       2.292   4.379  18.946  0.00  0.00    +0.000 A 
ENDROOT
BRANCH   1  18
ATOM     18  C   UNL     1       2.257   6.744  18.250  0.00  0.00    +0.000 C 
BRANCH  18  19
ATOM     19  C   UNL     1       2.485   7.588  19.510  0.00  0.00    +0.000 C 
BRANCH  19  25
ATOM     20  C   UNL     1       0.984   9.719  19.473  0.00  0.00    +0.000 A 
ATOM     21  C   UNL     1      -0.009  10.477  20.109  0.00  0.00    +0.000 A 
ATOM     22  C   UNL     1      -0.490  10.113  21.365  0.00  0.00    +0.000 A 
ATOM     23  C   UNL     1      -0.013   8.965  21.983  0.00  0.00    +0.000 A 
ATOM     24  C   UNL     1       0.920   8.169  21.325  0.00  0.00    +0.000 A 
ATOM     25  C   UNL     1       1.428   8.524  20.057  0.00  0.00    +0.000 A 
BRANCH  20  27
ATOM     26  C   UNL     1       2.084  11.418  18.234  0.00  0.00    +0.000 C 
ATOM     27  O   UNL     1       1.527  10.107  18.279  0.00  0.00    +0.000 OA
ENDBRANCH  20  27
ENDBRANCH  19  25
ENDBRANCH  18  19
ENDBRANCH   1  18
TORSDOF 4
ENDMDL
MODEL 2
REMARK VINA RESULT:      -7.7      1.056      1.774
REMARK  Name = 
REMARK  5 active torsions:
REMARK  status: ('A' for Active; 'I' for Inactive)
REMARK    1  A    between atoms: C_1  and  O_2
REMARK    2  A    between atoms: O_2  and  C_3
REMARK    3  A    between atoms: C_8  and  C_9
REMARK    4  A    between atoms: C_9  and  C_10
REMARK    5  A    between atoms: C_10  and  N_11
REMARK                            x       y       z     vdW  Elec       q    Type
REMARK                         _______ _______ _______ _____ _____    ______ ____
ROOT
ATOM      1  N   UNL     1       3.000   5.448  18.120  0.00  0.00    +0.000 N 
ATOM      2  C   UNL     1       4.388   5.594  17.717  0.00  0.00    +0.000 A 
ATOM      3  C   UNL     1       4.943   6.811  17.245  0.00  0.00    +0.000 A 
ATOM      4  C   UNL     1       6.318   7.005  17.049  0.00  0.00    +0.000 A 
ATOM      5  C   UNL     1       7.203   5.976  17.303  0.00  0.00    +0.000 A 
ATOM      6  C   UNL     1       6.689   4.725  17.607  0.00  0.00    +0.000 A 
ATOM      7  C   UNL     1       5.304   4.543  17.739  0.00  0.00    +0.000 A 
ATOM      8  O   UNL     1       4.867   3.256  17.724  0.00  0.00    +0.000 OA
ATOM      9  S   UNL     1       4.462   2.605  19.143  0.00  0.00    +0.000 S 
ATOM     10  O   UNL     1       5.545   2.815  20.096  0.00  0.00    +0.000 OA
ATOM     11  O   UNL     1       3.988   1.261  18.872  0.00  0.00    +0.000 OA
ATOM     12  C   UNL     1       3.083   3.502  19.731  0.00  0.00    +0.000 A 
ATOM     13  C   UNL     1       2.489   2.896  20.862  0.00  0.00    +0.000 A 
ATOM     14  C   UNL     1       1.147   3.077  21.104  0.00  0.00    +0.000 A 
ATOM     15  C   UNL     1       0.469   3.834  20.185  0.00  0.00    +0.000 A 
ATOM     16  N   UNL     1       1.080   4.523  19.187  0.00  0.00    +0.000 NA
ATOM     17  C   UNL     1       2.419   4.466  18.985  0.00  0.00    +0.000 A 
ENDROOT
BRANCH   1  18
ATOM     18  C   UNL     1       2.377   6.822  18.258  0.00  0.00    +0.000 C 
BRANCH  18  19
ATOM     19  C   UNL     1       2.179   7.587  19.572  0.00  0.00    +0.000 C 
BRANCH  19  25
ATOM     20  C   UNL     1       0.710   9.344  20.816  0.00  0.00    +0.000 A 
ATOM     21  C   UNL     1      -0.062  10.512  20.733  0.00  0.00    +0.000 A 
ATOM     22  C   UNL     1      -0.319  11.112  19.502  0.00  0.00    +0.000 A 
ATOM     23  C   UNL     1       0.226  10.576  18.344  0.00  0.00    +0.000 A 
ATOM     24  C   UNL     1       1.053   9.459  18.427  0.00  0.00    +0.000 A 
ATOM     25  C   UNL     1       1.318   8.829  19.662  0.00  0.00    +0.000 A 
BRANCH  20  27
ATOM     26  C   UNL     1       0.378   9.334  23.166  0.00  0.00    +0.000 C 
ATOM     27  O   UNL     1       0.903   8.695  22.004  0.00  0.00    +0.000 OA
ENDBRANCH  20  27
ENDBRANCH  19  25
ENDBRANCH  18  19
ENDBRANCH   1  18
TORSDOF 4
ENDMDL
MODEL 3
REMARK VINA RESULT:      -7.7      0.928      1.936
REMARK  Name = 
REMARK  5 active torsions:
REMARK  status: ('A' for Active; 'I' for Inactive)
REMARK    1  A    between atoms: C_1  and  O_2
REMARK    2  A    between atoms: O_2  and  C_3
REMARK    3  A    between atoms: C_8  and  C_9
REMARK    4  A    between atoms: C_9  and  C_10
REMARK    5  A    between atoms: C_10  and  N_11
REMARK                            x       y       z     vdW  Elec       q    Type
REMARK                         _______ _______ _______ _____ _____    ______ ____
ROOT
ATOM      1  N   UNL     1       3.140   5.780  18.406  0.00  0.00    +0.000 N 
ATOM      2  C   UNL     1       4.469   5.777  17.817  0.00  0.00    +0.000 A 
ATOM      3  C   UNL     1       5.180   6.958  17.482  0.00  0.00    +0.000 A 
ATOM      4  C   UNL     1       6.530   6.964  17.105  0.00  0.00    +0.000 A 
ATOM      5  C   UNL     1       7.230   5.774  17.032  0.00  0.00    +0.000 A 
ATOM      6  C   UNL     1       6.532   4.588  17.191  0.00  0.00    +0.000 A 
ATOM      7  C   UNL     1       5.166   4.609  17.508  0.00  0.00    +0.000 A 
ATOM      8  O   UNL     1       4.495   3.440  17.340  0.00  0.00    +0.000 OA
ATOM      9  S   UNL     1       4.157   2.592  18.670  0.00  0.00    +0.000 S 
ATOM     10  O   UNL     1       5.371   2.430  19.459  0.00  0.00    +0.000 OA
ATOM     11  O   UNL     1       3.406   1.424  18.247  0.00  0.00    +0.000 OA
ATOM     12  C   UNL     1       3.058   3.564  19.618  0.00  0.00    +0.000 A 
ATOM     13  C   UNL     1       2.508   2.849  20.706  0.00  0.00    +0.000 A 
ATOM     14  C   UNL     1       1.265   3.192  21.187  0.00  0.00    +0.000 A 
ATOM     15  C   UNL     1       0.632   4.216  20.535  0.00  0.00    +0.000 A 
ATOM     16  N   UNL     1       1.231   4.983  19.588  0.00  0.00    +0.000 NA
ATOM     17  C   UNL     1       2.499   4.752  19.167  0.00  0.00    +0.000 A 
ENDROOT
BRANCH   1  18
ATOM     18  C   UNL     1       2.811   7.181  18.878  0.00  0.00    +0.000 C 
BRANCH  18  19
ATOM     19  C   UNL     1       1.889   8.173  18.159  0.00  0.00    +0.000 C 
BRANCH  19  25
ATOM     20  C   UNL     1       0.897   9.958  19.779  0.00  0.00    +0.000 A 
ATOM     21  C   UNL     1       0.788  11.314  20.123  0.00  0.00    +0.000 A 
ATOM     22  C   UNL     1       1.349  12.301  19.317  0.00  0.00    +0.000 A 
ATOM     23  C   UNL     1       2.061  11.945  18.179  0.00  0.00    +0.000 A 
ATOM     24  C   UNL     1       2.234  10.599  17.871  0.00  0.00    +0.000 A 
ATOM     25  C   UNL     1       1.665   9.582  18.668  0.00  0.00    +0.000 A 
BRANCH  20  27
ATOM     26  C   UNL     1       0.886   8.653  21.762  0.00  0.00    +0.000 C 
ATOM     27  O   UNL     1       0.282   8.982  20.513  0.00  0.00    +0.000 OA
ENDBRANCH  20  27
ENDBRANCH  19  25
ENDBRANCH  18  19
ENDBRANCH   1  18
TORSDOF 4
ENDMDL
MODEL 4
REMARK VINA RESULT:      -7.7      0.881      1.016
REMARK  Name = 
REMARK  5 active torsions:
REMARK  status: ('A' for Active; 'I' for Inactive)
REMARK    1  A    between atoms: C_1  and  O_2
REMARK    2  A    between atoms: O_2  and  C_3
REMARK    3  A    between atoms: C_8  and  C_9
REMARK    4  A    between atoms: C_9  and  C_10
REMARK    5  A    between atoms: C_10  and  N_11
REMARK                            x       y       z     vdW  Elec       q    Type
REMARK                         _______ _______ _______ _____ _____    ______ ____
ROOT
ATOM      1  N   UNL     1       3.256   5.807  18.537  0.00  0.00    +0.000 N 
ATOM      2  C   UNL     1       4.559   5.764  17.894  0.00  0.00    +0.000 A 
ATOM      3  C   UNL     1       5.320   6.921  17.588  0.00  0.00    +0.000 A 
ATOM      4  C   UNL     1       6.653   6.875  17.157  0.00  0.00    +0.000 A 
ATOM      5  C   UNL     1       7.284   5.655  16.995  0.00  0.00    +0.000 A 
ATOM      6  C   UNL     1       6.528   4.501  17.124  0.00  0.00    +0.000 A 
ATOM      7  C   UNL     1       5.178   4.578  17.499  0.00  0.00    +0.000 A 
ATOM      8  O   UNL     1       4.438   3.456  17.300  0.00  0.00    +0.000 OA
ATOM      9  S   UNL     1       4.105   2.559  18.599  0.00  0.00    +0.000 S 
ATOM     10  O   UNL     1       5.338   2.293  19.328  0.00  0.00    +0.000 OA
ATOM     11  O   UNL     1       3.276   1.456  18.151  0.00  0.00    +0.000 OA
ATOM     12  C   UNL     1       3.099   3.538  19.640  0.00  0.00    +0.000 A 
ATOM     13  C   UNL     1       2.553   2.797  20.712  0.00  0.00    +0.000 A 
ATOM     14  C   UNL     1       1.351   3.180  21.261  0.00  0.00    +0.000 A 
ATOM     15  C   UNL     1       0.750   4.269  20.688  0.00  0.00    +0.000 A 
ATOM     16  N   UNL     1       1.353   5.052  19.756  0.00  0.00    +0.000 NA
ATOM     17  C   UNL     1       2.589   4.776  19.272  0.00  0.00    +0.000 A 
ENDROOT
BRANCH   1  18
ATOM     18  C   UNL     1       3.023   7.196  19.091  0.00  0.00    +0.000 C 
BRANCH  18  19
ATOM     19  C   UNL     1       1.867   8.129  18.711  0.00  0.00    +0.000 C 
BRANCH  19  25
ATOM     20  C   UNL     1       0.171   9.941  19.509  0.00  0.00    +0.000 A 
ATOM     21  C   UNL     1      -0.497  10.544  20.584  0.00  0.00    +0.000 A 
ATOM     22  C   UNL     1      -0.206  10.182  21.898  0.00  0.00    +0.000 A 
ATOM     23  C   UNL     1       0.725   9.184  22.152  0.00  0.00    +0.000 A 
ATOM     24  C   UNL     1       1.338   8.531  21.087  0.00  0.00    +0.000 A 
ATOM     25  C   UNL     1       1.067   8.889  19.749  0.00  0.00    +0.000 A 
BRANCH  20  27
ATOM     26  C   UNL     1      -1.363  10.175  17.713  0.00  0.00    +0.000 C 
ATOM     27  O   UNL     1      -0.040  10.342  18.219  0.00  0.00    +0.000 OA
ENDBRANCH  20  27
ENDBRANCH  19  25
ENDBRANCH  18  19
ENDBRANCH   1  18
TORSDOF 4
ENDMDL
MODEL 5
REMARK VINA RESULT:      -7.3      6.495     10.845
REMARK  Name = 
REMARK  5 active torsions:
REMARK  status: ('A' for Active; 'I' for Inactive)
REMARK    1  A    between atoms: C_1  and  O_2
REMARK    2  A    between atoms: O_2  and  C_3
REMARK    3  A    between atoms: C_8  and  C_9
REMARK    4  A    between atoms: C_9  and  C_10
REMARK    5  A    between atoms: C_10  and  N_11
REMARK                            x       y       z     vdW  Elec       q    Type
REMARK                         _______ _______ _______ _____ _____    ______ ____
ROOT
ATOM      1  N   UNL     1      -3.567  12.696  20.576  0.00  0.00    +0.000 N 
ATOM      2  C   UNL     1      -4.312  13.256  21.691  0.00  0.00    +0.000 A 
ATOM      3  C   UNL     1      -3.760  14.176  22.619  0.00  0.00    +0.000 A 
ATOM      4  C   UNL     1      -4.527  14.868  23.568  0.00  0.00    +0.000 A 
ATOM      5  C   UNL     1      -5.890  14.655  23.639  0.00  0.00    +0.000 A 
ATOM      6  C   UNL     1      -6.441  13.647  22.864  0.00  0.00    +0.000 A 
ATOM      7  C   UNL     1      -5.640  12.928  21.966  0.00  0.00    +0.000 A 
ATOM      8  O   UNL     1      -6.170  11.773  21.485  0.00  0.00    +0.000 OA
ATOM      9  S   UNL     1      -6.748  11.804  19.979  0.00  0.00    +0.000 S 
ATOM     10  O   UNL     1      -7.654  12.936  19.836  0.00  0.00    +0.000 OA
ATOM     11  O   UNL     1      -7.211  10.463  19.676  0.00  0.00    +0.000 OA
ATOM     12  C   UNL     1      -5.387  12.103  18.925  0.00  0.00    +0.000 A 
ATOM     13  C   UNL     1      -5.716  11.937  17.561  0.00  0.00    +0.000 A 
ATOM     14  C   UNL     1      -4.741  11.558  16.667  0.00  0.00    +0.000 A 
ATOM     15  C   UNL     1      -3.496  11.341  17.195  0.00  0.00    +0.000 A 
ATOM     16  N   UNL     1      -3.165  11.642  18.477  0.00  0.00    +0.000 NA
ATOM     17  C   UNL     1      -4.070  12.129  19.362  0.00  0.00    +0.000 A 
ENDROOT
BRANCH   1  18
ATOM     18  C   UNL     1      -2.283  13.477  20.397  0.00  0.00    +0.000 C 
BRANCH  18  19
ATOM     19  C   UNL     1      -0.876  12.981  20.755  0.00  0.00    +0.000 C 
BRANCH  19  25
ATOM     20  C   UNL     1      -0.233  10.472  20.468  0.00  0.00    +0.000 A 
ATOM     21  C   UNL     1      -0.031   9.225  21.078  0.00  0.00    +0.000 A 
ATOM     22  C   UNL     1      -0.305   9.040  22.431  0.00  0.00    +0.000 A 
ATOM     23  C   UNL     1      -0.746  10.108  23.200  0.00  0.00    +0.000 A 
ATOM     24  C   UNL     1      -0.880  11.365  22.618  0.00  0.00    +0.000 A 
ATOM     25  C   UNL     1      -0.618  11.573  21.246  0.00  0.00    +0.000 A 
BRANCH  20  27
ATOM     26  C   UNL     1       1.195  10.202  18.591  0.00  0.00    +0.000 C 
ATOM     27  O   UNL     1      -0.049  10.650  19.124  0.00  0.00    +0.000 OA
ENDBRANCH  20  27
ENDBRANCH  19  25
ENDBRANCH  18  19
ENDBRANCH   1  18
TORSDOF 4
ENDMDL
MODEL 6
REMARK VINA RESULT:      -7.0      1.434      2.040
REMARK  Name = 
REMARK  5 active torsions:
REMARK  status: ('A' for Active; 'I' for Inactive)
REMARK    1  A    between atoms: C_1  and  O_2
REMARK    2  A    between atoms: O_2  and  C_3
REMARK    3  A    between atoms: C_8  and  C_9
REMARK    4  A    between atoms: C_9  and  C_10
REMARK    5  A    between atoms: C_10  and  N_11
REMARK                            x       y       z     vdW  Elec       q    Type
REMARK                         _______ _______ _______ _____ _____    ______ ____
ROOT
ATOM      1  N   UNL     1       3.054   5.941  18.291  0.00  0.00    +0.000 N 
ATOM      2  C   UNL     1       4.399   5.998  17.745  0.00  0.00    +0.000 A 
ATOM      3  C   UNL     1       5.039   7.204  17.361  0.00  0.00    +0.000 A 
ATOM      4  C   UNL     1       6.398   7.283  17.027  0.00  0.00    +0.000 A 
ATOM      5  C   UNL     1       7.180   6.144  17.046  0.00  0.00    +0.000 A 
ATOM      6  C   UNL     1       6.560   4.923  17.255  0.00  0.00    +0.000 A 
ATOM      7  C   UNL     1       5.185   4.866  17.528  0.00  0.00    +0.000 A 
ATOM      8  O   UNL     1       4.602   3.644  17.409  0.00  0.00    +0.000 OA
ATOM      9  S   UNL     1       4.276   2.852  18.777  0.00  0.00    +0.000 S 
ATOM     10  O   UNL     1       5.470   2.822  19.611  0.00  0.00    +0.000 OA
ATOM     11  O   UNL     1       3.622   1.612  18.402  0.00  0.00    +0.000 OA
ATOM     12  C   UNL     1       3.081   3.798  19.631  0.00  0.00    +0.000 A 
ATOM     13  C   UNL     1       2.543   3.109  20.742  0.00  0.00    +0.000 A 
ATOM     14  C   UNL     1       1.265   3.392  21.163  0.00  0.00    +0.000 A 
ATOM     15  C   UNL     1       0.586   4.329  20.432  0.00  0.00    +0.000 A 
ATOM     16  N   UNL     1       1.163   5.081  19.459  0.00  0.00    +0.000 NA
ATOM     17  C   UNL     1       2.458   4.916  19.093  0.00  0.00    +0.000 A 
ENDROOT
BRANCH   1  18
ATOM     18  C   UNL     1       2.613   7.340  18.668  0.00  0.00    +0.000 C 
BRANCH  18  19
ATOM     19  C   UNL     1       1.639   8.216  17.872  0.00  0.00    +0.000 C 
BRANCH  19  25
ATOM     20  C   UNL     1       0.262  10.317  18.570  0.00  0.00    +0.000 A 
ATOM     21  C   UNL     1       0.252  11.699  18.808  0.00  0.00    +0.000 A 
ATOM     22  C   UNL     1       1.379  12.476  18.551  0.00  0.00    +0.000 A 
ATOM     23  C   UNL     1       2.544  11.875  18.093  0.00  0.00    +0.000 A 
ATOM     24  C   UNL     1       2.584  10.494  17.924  0.00  0.00    +0.000 A 
ATOM     25  C   UNL     1       1.451   9.689  18.168  0.00  0.00    +0.000 A 
BRANCH  20  27
ATOM     26  C   UNL     1      -2.043  10.019  18.094  0.00  0.00    +0.000 C 
ATOM     27  O   UNL     1      -0.859   9.553  18.737  0.00  0.00    +0.000 OA
ENDBRANCH  20  27
ENDBRANCH  19  25
ENDBRANCH  18  19
ENDBRANCH   1  18
TORSDOF 4
ENDMDL
MODEL 7
REMARK VINA RESULT:      -7.0      6.251      9.916
REMARK  Name = 
REMARK  5 active torsions:
REMARK  status: ('A' for Active; 'I' for Inactive)
REMARK    1  A    between atoms: C_1  and  O_2
REMARK    2  A    between atoms: O_2  and  C_3
REMARK    3  A    between atoms: C_8  and  C_9
REMARK    4  A    between atoms: C_9  and  C_10
REMARK    5  A    between atoms: C_10  and  N_11
REMARK                            x       y       z     vdW  Elec       q    Type
REMARK                         _______ _______ _______ _____ _____    ______ ____
ROOT
ATOM      1  N   UNL     1      -2.267  12.189  19.353  0.00  0.00    +0.000 N 
ATOM      2  C   UNL     1      -2.961  13.150  20.194  0.00  0.00    +0.000 A 
ATOM      3  C   UNL     1      -2.302  14.166  20.932  0.00  0.00    +0.000 A 
ATOM      4  C   UNL     1      -2.977  15.211  21.578  0.00  0.00    +0.000 A 
ATOM      5  C   UNL     1      -4.357  15.277  21.526  0.00  0.00    +0.000 A 
ATOM      6  C   UNL     1      -5.045  14.218  20.957  0.00  0.00    +0.000 A 
ATOM      7  C   UNL     1      -4.345  13.153  20.370  0.00  0.00    +0.000 A 
ATOM      8  O   UNL     1      -5.066  12.028  20.122  0.00  0.00    +0.000 OA
ATOM      9  S   UNL     1      -5.510  11.766  18.593  0.00  0.00    +0.000 S 
ATOM     10  O   UNL     1      -6.147  12.964  18.064  0.00  0.00    +0.000 OA
ATOM     11  O   UNL     1      -6.217  10.499  18.570  0.00  0.00    +0.000 OA
ATOM     12  C   UNL     1      -4.041  11.523  17.679  0.00  0.00    +0.000 A 
ATOM     13  C   UNL     1      -4.292  11.065  16.366  0.00  0.00    +0.000 A 
ATOM     14  C   UNL     1      -3.353  10.293  15.723  0.00  0.00    +0.000 A 
ATOM     15  C   UNL     1      -2.224  10.001  16.441  0.00  0.00    +0.000 A 
ATOM     16  N   UNL     1      -1.935  10.564  17.643  0.00  0.00    +0.000 NA
ATOM     17  C   UNL     1      -2.783  11.423  18.259  0.00  0.00    +0.000 A 
ENDROOT
BRANCH   1  18
ATOM     18  C   UNL     1      -0.838  12.649  19.152  0.00  0.00    +0.000 C 
BRANCH  18  19
ATOM     19  C   UNL     1       0.364  12.233  20.010  0.00  0.00    +0.000 C 
BRANCH  19  25
ATOM     20  C   UNL     1       0.253  10.416  21.875  0.00  0.00    +0.000 A 
ATOM     21  C   UNL     1       0.444   9.073  22.231  0.00  0.00    +0.000 A 
ATOM     22  C   UNL     1       0.989   8.165  21.325  0.00  0.00    +0.000 A 
ATOM     23  C   UNL     1       1.312   8.579  20.040  0.00  0.00    +0.000 A 
ATOM     24  C   UNL     1       1.058   9.893  19.657  0.00  0.00    +0.000 A 
ATOM     25  C   UNL     1       0.516  10.831  20.561  0.00  0.00    +0.000 A 
BRANCH  20  27
ATOM     26  C   UNL     1      -1.573  11.227  23.157  0.00  0.00    +0.000 C 
ATOM     27  O   UNL     1      -0.203  11.338  22.776  0.00  0.00    +0.000 OA
ENDBRANCH  20  27
ENDBRANCH  19  25
ENDBRANCH  18  19
ENDBRANCH   1  18
TORSDOF 4
ENDMDL
MODEL 8
REMARK VINA RESULT:      -7.0      2.790      6.523
REMARK  Name = 
REMARK  5 active torsions:
REMARK  status: ('A' for Active; 'I' for Inactive)
REMARK    1  A    between atoms: C_1  and  O_2
REMARK    2  A    between atoms: O_2  and  C_3
REMARK    3  A    between atoms: C_8  and  C_9
REMARK    4  A    between atoms: C_9  and  C_10
REMARK    5  A    between atoms: C_10  and  N_11
REMARK                            x       y       z     vdW  Elec       q    Type
REMARK                         _______ _______ _______ _____ _____    ______ ____
ROOT
ATOM      1  N   UNL     1       3.788   5.084  18.094  0.00  0.00    +0.000 N 
ATOM      2  C   UNL     1       3.213   6.377  18.425  0.00  0.00    +0.000 A 
ATOM      3  C   UNL     1       3.314   7.518  17.587  0.00  0.00    +0.000 A 
ATOM      4  C   UNL     1       2.595   8.701  17.806  0.00  0.00    +0.000 A 
ATOM      5  C   UNL     1       1.747   8.801  18.893  0.00  0.00    +0.000 A 
ATOM      6  C   UNL     1       1.745   7.774  19.823  0.00  0.00    +0.000 A 
ATOM      7  C   UNL     1       2.521   6.625  19.611  0.00  0.00    +0.000 A 
ATOM      8  O   UNL     1       2.709   5.822  20.690  0.00  0.00    +0.000 OA
ATOM      9  S   UNL     1       1.837   4.467  20.756  0.00  0.00    +0.000 S 
ATOM     10  O   UNL     1       0.433   4.788  20.536  0.00  0.00    +0.000 OA
ATOM     11  O   UNL     1       2.240   3.762  21.958  0.00  0.00    +0.000 OA
ATOM     12  C   UNL     1       2.349   3.476  19.411  0.00  0.00    +0.000 A 
ATOM     13  C   UNL     1       1.822   2.166  19.476  0.00  0.00    +0.000 A 
ATOM     14  C   UNL     1       2.517   1.125  18.905  0.00  0.00    +0.000 A 
ATOM     15  C   UNL     1       3.714   1.449  18.324  0.00  0.00    +0.000 A 
ATOM     16  N   UNL     1       4.136   2.727  18.146  0.00  0.00    +0.000 NA
ATOM     17  C   UNL     1       3.424   3.792  18.590  0.00  0.00    +0.000 A 
ENDROOT
BRANCH   1  18
ATOM     18  C   UNL     1       4.196   5.082  16.636  0.00  0.00    +0.000 C 
BRANCH  18  19
ATOM     19  C   UNL     1       4.929   3.946  15.913  0.00  0.00    +0.000 C 
BRANCH  19  25
ATOM     20  C   UNL     1       7.015   4.998  14.756  0.00  0.00    +0.000 A 
ATOM     21  C   UNL     1       7.777   5.131  13.587  0.00  0.00    +0.000 A 
ATOM     22  C   UNL     1       7.350   4.563  12.388  0.00  0.00    +0.000 A 
ATOM     23  C   UNL     1       6.178   3.821  12.353  0.00  0.00    +0.000 A 
ATOM     24  C   UNL     1       5.454   3.624  13.525  0.00  0.00    +0.000 A 
ATOM     25  C   UNL     1       5.862   4.199  14.748  0.00  0.00    +0.000 A 
BRANCH  20  27
ATOM     26  C   UNL     1       7.692   4.766  17.019  0.00  0.00    +0.000 C 
ATOM     27  O   UNL     1       7.375   5.618  15.921  0.00  0.00    +0.000 OA
ENDBRANCH  20  27
ENDBRANCH  19  25
ENDBRANCH  18  19
ENDBRANCH   1  18
TORSDOF 4
ENDMDL
MODEL 9
REMARK VINA RESULT:      -6.9      5.884     10.127
REMARK  Name = 
REMARK  5 active torsions:
REMARK  status: ('A' for Active; 'I' for Inactive)
REMARK    1  A    between atoms: C_1  and  O_2
REMARK    2  A    between atoms: O_2  and  C_3
REMARK    3  A    between atoms: C_8  and  C_9
REMARK    4  A    between atoms: C_9  and  C_10
REMARK    5  A    between atoms: C_10  and  N_11
REMARK                            x       y       z     vdW  Elec       q    Type
REMARK                         _______ _______ _______ _____ _____    ______ ____
ROOT
ATOM      1  N   UNL     1      -2.810  12.354  19.734  0.00  0.00    +0.000 N 
ATOM      2  C   UNL     1      -3.682  13.204  20.526  0.00  0.00    +0.000 A 
ATOM      3  C   UNL     1      -3.210  14.244  21.367  0.00  0.00    +0.000 A 
ATOM      4  C   UNL     1      -4.051  15.189  21.971  0.00  0.00    +0.000 A 
ATOM      5  C   UNL     1      -5.417  15.123  21.771  0.00  0.00    +0.000 A 
ATOM      6  C   UNL     1      -5.932  14.030  21.093  0.00  0.00    +0.000 A 
ATOM      7  C   UNL     1      -5.070  13.065  20.550  0.00  0.00    +0.000 A 
ATOM      8  O   UNL     1      -5.644  11.889  20.186  0.00  0.00    +0.000 OA
ATOM      9  S   UNL     1      -5.895  11.654  18.610  0.00  0.00    +0.000 S 
ATOM     10  O   UNL     1      -6.590  12.809  18.056  0.00  0.00    +0.000 OA
ATOM     11  O   UNL     1      -6.465  10.327  18.465  0.00  0.00    +0.000 OA
ATOM     12  C   UNL     1      -4.321  11.596  17.854  0.00  0.00    +0.000 A 
ATOM     13  C   UNL     1      -4.386  11.176  16.506  0.00  0.00    +0.000 A 
ATOM     14  C   UNL     1      -3.311  10.528  15.943  0.00  0.00    +0.000 A 
ATOM     15  C   UNL     1      -2.240  10.313  16.770  0.00  0.00    +0.000 A 
ATOM     16  N   UNL     1      -2.138  10.846  18.015  0.00  0.00    +0.000 NA
ATOM     17  C   UNL     1      -3.128  11.592  18.564  0.00  0.00    +0.000 A 
ENDROOT
BRANCH   1  18
ATOM     18  C   UNL     1      -1.422  12.957  19.706  0.00  0.00    +0.000 C 
BRANCH  18  19
ATOM     19  C   UNL     1      -0.264  12.579  20.638  0.00  0.00    +0.000 C 
BRANCH  19  25
ATOM     20  C   UNL     1       0.686  10.186  20.235  0.00  0.00    +0.000 A 
ATOM     21  C   UNL     1       0.883   8.891  20.737  0.00  0.00    +0.000 A 
ATOM     22  C   UNL     1       0.345   8.513  21.965  0.00  0.00    +0.000 A 
ATOM     23  C   UNL     1      -0.361   9.435  22.725  0.00  0.00    +0.000 A 
ATOM     24  C   UNL     1      -0.498  10.742  22.267  0.00  0.00    +0.000 A 
ATOM     25  C   UNL     1       0.030  11.144  21.021  0.00  0.00    +0.000 A 
BRANCH  20  27
ATOM     26  C   UNL     1       1.427   9.486  18.092  0.00  0.00    +0.000 C 
ATOM     27  O   UNL     1       1.135  10.550  18.996  0.00  0.00    +0.000 OA
ENDBRANCH  20  27
ENDBRANCH  19  25
ENDBRANCH  18  19
ENDBRANCH   1  18
TORSDOF 4
ENDMDL
