MODEL 1
REMARK VINA RESULT:      -8.8      0.000      0.000
REMARK  Name = 
REMARK  7 active torsions:
REMARK  status: ('A' for Active; 'I' for Inactive)
REMARK    1  A    between atoms: C_2  and  O_3
REMARK    2  A    between atoms: C_2  and  C_4
REMARK    3  A    between atoms: C_4  and  N_5
REMARK    4  A    between atoms: N_10  and  C_11
REMARK    5  A    between atoms: C_11  and  C_12
REMARK    6  A    between atoms: C_21  and  C_23
REMARK    7  A    between atoms: C_26  and  C_27
REMARK                            x       y       z     vdW  Elec       q    Type
REMARK                         _______ _______ _______ _____ _____    ______ ____
ROOT
ATOM      1  N   UNL     1      -1.786  13.010  22.694  0.00  0.00    +0.000 N 
ATOM      2  C   UNL     1      -1.963  14.356  22.867  0.00  0.00    +0.000 A 
ATOM      3  N   UNL     1      -1.092  15.057  22.167  0.00  0.00    +0.000 NA
ATOM      4  C   UNL     1      -0.346  14.118  21.483  0.00  0.00    +0.000 A 
ATOM      5  C   UNL     1       0.736  14.219  20.592  0.00  0.00    +0.000 A 
ATOM      6  N   UNL     1       1.355  15.438  20.333  0.00  0.00    +0.000 N 
ATOM      7  N   UNL     1       1.210  13.063  20.046  0.00  0.00    +0.000 NA
ATOM      8  C   UNL     1       0.698  11.875  20.436  0.00  0.00    +0.000 A 
ATOM      9  N   UNL     1       1.305  10.779  19.826  0.00  0.00    +0.000 N 
ATOM     10  C   UNL     1       1.108   9.469  20.192  0.00  0.00    +0.000 C 
ATOM     11  O   UNL     1       0.419   9.085  21.133  0.00  0.00    +0.000 OA
ATOM     12  N   UNL     1      -0.303  11.690  21.309  0.00  0.00    +0.000 NA
ATOM     13  C   UNL     1      -0.783  12.844  21.782  0.00  0.00    +0.000 A 
ATOM     14  H   UNL     1       0.818  16.222  20.698  0.00  0.00    +0.000 HD
ATOM     15  H   UNL     1       1.944  11.048  19.097  0.00  0.00    +0.000 HD
ENDROOT
BRANCH  10  16
ATOM     16  C   UNL     1       1.809   8.427  19.376  0.00  0.00    +0.000 A 
ATOM     17  C   UNL     1       2.222   8.619  18.056  0.00  0.00    +0.000 A 
ATOM     18  C   UNL     1       2.968   7.624  17.408  0.00  0.00    +0.000 A 
ATOM     19  C   UNL     1       3.345   6.435  18.063  0.00  0.00    +0.000 A 
ATOM     20  C   UNL     1       2.854   6.221  19.352  0.00  0.00    +0.000 A 
ATOM     21  C   UNL     1       2.109   7.211  20.004  0.00  0.00    +0.000 A 
BRANCH  19  22
ATOM     22  C   UNL     1       4.349   5.513  17.369  0.00  0.00    +0.000 C 
ATOM     23  C   UNL     1       5.273   6.343  16.454  0.00  0.00    +0.000 C 
ATOM     24  C   UNL     1       6.329   7.103  17.253  0.00  0.00    +0.000 C 
ATOM     25  C   UNL     1       7.223   6.131  18.011  0.00  0.00    +0.000 C 
ATOM     26  C   UNL     1       6.419   5.218  18.931  0.00  0.00    +0.000 C 
ATOM     27  C   UNL     1       5.210   4.570  18.244  0.00  0.00    +0.000 C 
ENDBRANCH  19  22
ENDBRANCH  10  16
BRANCH   1  28
ATOM     28  C   UNL     1      -2.456  11.946  23.409  0.00  0.00    +0.000 C 
BRANCH  28  30
ATOM     29  O   UNL     1      -4.169  12.619  24.961  0.00  0.00    +0.000 OA
ATOM     30  C   UNL     1      -3.857  12.324  23.816  0.00  0.00    +0.000 C 
BRANCH  30  31
ATOM     31  O   UNL     1      -4.766  12.275  22.817  0.00  0.00    +0.000 OA
ATOM     32  H   UNL     1      -4.855  13.090  22.283  0.00  0.00    +0.000 HD
ENDBRANCH  30  31
ENDBRANCH  28  30
ENDBRANCH   1  28
BRANCH   6  33
ATOM     33  C   UNL     1       1.946  15.641  19.028  0.00  0.00    +0.000 C 
BRANCH  33  34
ATOM     34  C   UNL     1       1.146  16.668  18.257  0.00  0.00    +0.000 A 
ATOM     35  C   UNL     1      -0.214  16.863  18.547  0.00  0.00    +0.000 A 
ATOM     36  C   UNL     1      -0.956  17.836  17.878  0.00  0.00    +0.000 A 
ATOM     37  C   UNL     1      -0.348  18.630  16.910  0.00  0.00    +0.000 A 
ATOM     38  C   UNL     1       1.001  18.448  16.608  0.00  0.00    +0.000 A 
ATOM     39  C   UNL     1       1.747  17.471  17.274  0.00  0.00    +0.000 A 
ENDBRANCH  33  34
ENDBRANCH   6  33
TORSDOF 7
ENDMDL
MODEL 2
REMARK VINA RESULT:      -8.6      3.590      5.880
REMARK  Name = 
REMARK  7 active torsions:
REMARK  status: ('A' for Active; 'I' for Inactive)
REMARK    1  A    between atoms: C_2  and  O_3
REMARK    2  A    between atoms: C_2  and  C_4
REMARK    3  A    between atoms: C_4  and  N_5
REMARK    4  A    between atoms: N_10  and  C_11
REMARK    5  A    between atoms: C_11  and  C_12
REMARK    6  A    between atoms: C_21  and  C_23
REMARK    7  A    between atoms: C_26  and  C_27
REMARK                            x       y       z     vdW  Elec       q    Type
REMARK                         _______ _______ _______ _____ _____    ______ ____
ROOT
ATOM      1  N   UNL     1       0.726  15.768  19.349  0.00  0.00    +0.000 N 
ATOM      2  C   UNL     1      -0.195  16.736  19.647  0.00  0.00    +0.000 A 
ATOM      3  N   UNL     1      -1.371  16.217  19.944  0.00  0.00    +0.000 NA
ATOM      4  C   UNL     1      -1.185  14.850  19.872  0.00  0.00    +0.000 A 
ATOM      5  C   UNL     1      -2.046  13.755  20.062  0.00  0.00    +0.000 A 
ATOM      6  N   UNL     1      -3.412  13.930  20.264  0.00  0.00    +0.000 N 
ATOM      7  N   UNL     1      -1.506  12.507  19.963  0.00  0.00    +0.000 NA
ATOM      8  C   UNL     1      -0.212  12.360  19.606  0.00  0.00    +0.000 A 
ATOM      9  N   UNL     1       0.192  11.031  19.505  0.00  0.00    +0.000 N 
ATOM     10  C   UNL     1       1.387  10.611  18.973  0.00  0.00    +0.000 C 
ATOM     11  O   UNL     1       2.239  11.337  18.466  0.00  0.00    +0.000 OA
ATOM     12  N   UNL     1       0.663  13.349  19.368  0.00  0.00    +0.000 NA
ATOM     13  C   UNL     1       0.119  14.559  19.529  0.00  0.00    +0.000 A 
ATOM     14  H   UNL     1      -3.647  14.902  20.448  0.00  0.00    +0.000 HD
ATOM     15  H   UNL     1      -0.509  10.389  19.836  0.00  0.00    +0.000 HD
ENDROOT
BRANCH  10  16
ATOM     16  C   UNL     1       1.662   9.140  19.005  0.00  0.00    +0.000 A 
ATOM     17  C   UNL     1       2.081   8.401  17.897  0.00  0.00    +0.000 A 
ATOM     18  C   UNL     1       2.419   7.049  18.048  0.00  0.00    +0.000 A 
ATOM     19  C   UNL     1       2.376   6.410  19.303  0.00  0.00    +0.000 A 
ATOM     20  C   UNL     1       1.876   7.136  20.384  0.00  0.00    +0.000 A 
ATOM     21  C   UNL     1       1.537   8.487  20.239  0.00  0.00    +0.000 A 
BRANCH  19  22
ATOM     22  C   UNL     1       2.980   5.009  19.424  0.00  0.00    +0.000 C 
ATOM     23  C   UNL     1       2.394   4.293  20.658  0.00  0.00    +0.000 C 
ATOM     24  C   UNL     1       0.973   3.796  20.404  0.00  0.00    +0.000 C 
ATOM     25  C   UNL     1       0.959   2.787  19.265  0.00  0.00    +0.000 C 
ATOM     26  C   UNL     1       1.554   3.365  17.985  0.00  0.00    +0.000 C 
ATOM     27  C   UNL     1       2.902   4.065  18.200  0.00  0.00    +0.000 C 
ENDBRANCH  19  22
ENDBRANCH  10  16
BRANCH   1  28
ATOM     28  C   UNL     1       2.065  15.969  18.842  0.00  0.00    +0.000 C 
BRANCH  28  30
ATOM     29  O   UNL     1       2.128  17.875  17.373  0.00  0.00    +0.000 OA
ATOM     30  C   UNL     1       2.332  17.409  18.485  0.00  0.00    +0.000 C 
BRANCH  30  31
ATOM     31  O   UNL     1       2.857  18.150  19.486  0.00  0.00    +0.000 OA
ATOM     32  H   UNL     1       2.680  17.826  20.392  0.00  0.00    +0.000 HD
ENDBRANCH  30  31
ENDBRANCH  28  30
ENDBRANCH   1  28
BRANCH   6  33
ATOM     33  C   UNL     1      -4.113  12.955  21.072  0.00  0.00    +0.000 C 
BRANCH  33  34
ATOM     34  C   UNL     1      -5.117  12.210  20.220  0.00  0.00    +0.000 A 
ATOM     35  C   UNL     1      -6.392  11.916  20.729  0.00  0.00    +0.000 A 
ATOM     36  C   UNL     1      -7.345  11.270  19.942  0.00  0.00    +0.000 A 
ATOM     37  C   UNL     1      -7.036  10.909  18.633  0.00  0.00    +0.000 A 
ATOM     38  C   UNL     1      -5.773  11.191  18.113  0.00  0.00    +0.000 A 
ATOM     39  C   UNL     1      -4.815  11.836  18.900  0.00  0.00    +0.000 A 
ENDBRANCH  33  34
ENDBRANCH   6  33
TORSDOF 7
ENDMDL
MODEL 3
REMARK VINA RESULT:      -8.5      4.191     10.520
REMARK  Name = 
REMARK  7 active torsions:
REMARK  status: ('A' for Active; 'I' for Inactive)
REMARK    1  A    between atoms: C_2  and  O_3
REMARK    2  A    between atoms: C_2  and  C_4
REMARK    3  A    between atoms: C_4  and  N_5
REMARK    4  A    between atoms: N_10  and  C_11
REMARK    5  A    between atoms: C_11  and  C_12
REMARK    6  A    between atoms: C_21  and  C_23
REMARK    7  A    between atoms: C_26  and  C_27
REMARK                            x       y       z     vdW  Elec       q    Type
REMARK                         _______ _______ _______ _____ _____    ______ ____
ROOT
ATOM      1  N   UNL     1       3.521   2.982  20.483  0.00  0.00    +0.000 N 
ATOM      2  C   UNL     1       4.218   2.011  19.815  0.00  0.00    +0.000 A 
ATOM      3  N   UNL     1       4.566   2.404  18.605  0.00  0.00    +0.000 NA
ATOM      4  C   UNL     1       4.105   3.702  18.506  0.00  0.00    +0.000 A 
ATOM      5  C   UNL     1       4.145   4.656  17.474  0.00  0.00    +0.000 A 
ATOM      6  N   UNL     1       4.620   4.337  16.205  0.00  0.00    +0.000 N 
ATOM      7  N   UNL     1       3.629   5.890  17.740  0.00  0.00    +0.000 NA
ATOM      8  C   UNL     1       3.028   6.127  18.926  0.00  0.00    +0.000 A 
ATOM      9  N   UNL     1       2.513   7.416  19.042  0.00  0.00    +0.000 N 
ATOM     10  C   UNL     1       1.691   7.844  20.057  0.00  0.00    +0.000 C 
ATOM     11  O   UNL     1       1.253   7.145  20.967  0.00  0.00    +0.000 OA
ATOM     12  N   UNL     1       2.912   5.262  19.944  0.00  0.00    +0.000 NA
ATOM     13  C   UNL     1       3.477   4.081  19.674  0.00  0.00    +0.000 A 
ATOM     14  H   UNL     1       5.091   3.436  16.192  0.00  0.00    +0.000 HD
ATOM     15  H   UNL     1       2.779   8.009  18.274  0.00  0.00    +0.000 HD
ENDROOT
BRANCH  10  16
ATOM     16  C   UNL     1       1.286   9.286  20.036  0.00  0.00    +0.000 A 
ATOM     17  C   UNL     1       0.842   9.987  21.159  0.00  0.00    +0.000 A 
ATOM     18  C   UNL     1       0.589  11.363  21.066  0.00  0.00    +0.000 A 
ATOM     19  C   UNL     1       0.797  12.076  19.869  0.00  0.00    +0.000 A 
ATOM     20  C   UNL     1       1.159  11.348  18.735  0.00  0.00    +0.000 A 
ATOM     21  C   UNL     1       1.414   9.974  18.822  0.00  0.00    +0.000 A 
BRANCH  19  22
ATOM     22  C   UNL     1       0.723  13.603  19.914  0.00  0.00    +0.000 C 
ATOM     23  C   UNL     1       1.436  14.123  21.179  0.00  0.00    +0.000 C 
ATOM     24  C   UNL     1       2.955  14.074  21.035  0.00  0.00    +0.000 C 
ATOM     25  C   UNL     1       3.408  14.960  19.883  0.00  0.00    +0.000 C 
ATOM     26  C   UNL     1       2.739  14.571  18.569  0.00  0.00    +0.000 C 
ATOM     27  C   UNL     1       1.219  14.402  18.684  0.00  0.00    +0.000 C 
ENDBRANCH  19  22
ENDBRANCH  10  16
BRANCH   1  28
ATOM     28  C   UNL     1       2.862   2.854  21.763  0.00  0.00    +0.000 C 
BRANCH  28  30
ATOM     29  O   UNL     1       0.678   2.184  22.523  0.00  0.00    +0.000 OA
ATOM     30  C   UNL     1       1.379   2.623  21.622  0.00  0.00    +0.000 C 
BRANCH  30  31
ATOM     31  O   UNL     1       0.880   2.903  20.398  0.00  0.00    +0.000 OA
ATOM     32  H   UNL     1       1.442   3.467  19.829  0.00  0.00    +0.000 HD
ENDBRANCH  30  31
ENDBRANCH  28  30
ENDBRANCH   1  28
BRANCH   6  33
ATOM     33  C   UNL     1       5.251   5.383  15.428  0.00  0.00    +0.000 C 
BRANCH  33  34
ATOM     34  C   UNL     1       5.903   4.786  14.201  0.00  0.00    +0.000 A 
ATOM     35  C   UNL     1       5.227   3.813  13.447  0.00  0.00    +0.000 A 
ATOM     36  C   UNL     1       5.795   3.284  12.288  0.00  0.00    +0.000 A 
ATOM     37  C   UNL     1       7.047   3.722  11.865  0.00  0.00    +0.000 A 
ATOM     38  C   UNL     1       7.733   4.685  12.605  0.00  0.00    +0.000 A 
ATOM     39  C   UNL     1       7.169   5.214  13.768  0.00  0.00    +0.000 A 
ENDBRANCH  33  34
ENDBRANCH   6  33
TORSDOF 7
ENDMDL
MODEL 4
REMARK VINA RESULT:      -8.4      3.085      5.780
REMARK  Name = 
REMARK  7 active torsions:
REMARK  status: ('A' for Active; 'I' for Inactive)
REMARK    1  A    between atoms: C_2  and  O_3
REMARK    2  A    between atoms: C_2  and  C_4
REMARK    3  A    between atoms: C_4  and  N_5
REMARK    4  A    between atoms: N_10  and  C_11
REMARK    5  A    between atoms: C_11  and  C_12
REMARK    6  A    between atoms: C_21  and  C_23
REMARK    7  A    between atoms: C_26  and  C_27
REMARK                            x       y       z     vdW  Elec       q    Type
REMARK                         _______ _______ _______ _____ _____    ______ ____
ROOT
ATOM      1  N   UNL     1       1.369  15.304  18.568  0.00  0.00    +0.000 N 
ATOM      2  C   UNL     1       0.555  16.367  18.852  0.00  0.00    +0.000 A 
ATOM      3  N   UNL     1      -0.600  15.976  19.355  0.00  0.00    +0.000 NA
ATOM      4  C   UNL     1      -0.507  14.600  19.433  0.00  0.00    +0.000 A 
ATOM      5  C   UNL     1      -1.400  13.603  19.863  0.00  0.00    +0.000 A 
ATOM      6  N   UNL     1      -2.715  13.902  20.209  0.00  0.00    +0.000 N 
ATOM      7  N   UNL     1      -0.953  12.315  19.856  0.00  0.00    +0.000 NA
ATOM      8  C   UNL     1       0.272  12.030  19.364  0.00  0.00    +0.000 A 
ATOM      9  N   UNL     1       0.579  10.671  19.383  0.00  0.00    +0.000 N 
ATOM     10  C   UNL     1       1.667  10.104  18.765  0.00  0.00    +0.000 C 
ATOM     11  O   UNL     1       2.486  10.699  18.069  0.00  0.00    +0.000 OA
ATOM     12  N   UNL     1       1.165  12.915  18.898  0.00  0.00    +0.000 NA
ATOM     13  C   UNL     1       0.720  14.173  18.971  0.00  0.00    +0.000 A 
ATOM     14  H   UNL     1      -2.866  14.905  20.296  0.00  0.00    +0.000 HD
ATOM     15  H   UNL     1      -0.109  10.127  19.875  0.00  0.00    +0.000 HD
ENDROOT
BRANCH  10  16
ATOM     16  C   UNL     1       1.855   8.629  18.948  0.00  0.00    +0.000 A 
ATOM     17  C   UNL     1       2.319   7.774  17.947  0.00  0.00    +0.000 A 
ATOM     18  C   UNL     1       2.567   6.425  18.243  0.00  0.00    +0.000 A 
ATOM     19  C   UNL     1       2.388   5.906  19.541  0.00  0.00    +0.000 A 
ATOM     20  C   UNL     1       1.845   6.752  20.508  0.00  0.00    +0.000 A 
ATOM     21  C   UNL     1       1.596   8.099  20.219  0.00  0.00    +0.000 A 
BRANCH  19  22
ATOM     22  C   UNL     1       2.901   4.495  19.833  0.00  0.00    +0.000 C 
ATOM     23  C   UNL     1       1.908   3.761  20.756  0.00  0.00    +0.000 C 
ATOM     24  C   UNL     1       0.669   3.290  19.998  0.00  0.00    +0.000 C 
ATOM     25  C   UNL     1       1.059   2.306  18.903  0.00  0.00    +0.000 C 
ATOM     26  C   UNL     1       2.076   2.904  17.937  0.00  0.00    +0.000 C 
ATOM     27  C   UNL     1       3.262   3.579  18.638  0.00  0.00    +0.000 C 
ENDBRANCH  19  22
ENDBRANCH  10  16
BRANCH   1  28
ATOM     28  C   UNL     1       2.640  15.343  17.879  0.00  0.00    +0.000 C 
BRANCH  28  30
ATOM     29  O   UNL     1       3.934  17.192  18.719  0.00  0.00    +0.000 OA
ATOM     30  C   UNL     1       3.225  16.732  17.835  0.00  0.00    +0.000 C 
BRANCH  30  31
ATOM     31  O   UNL     1       2.872  17.457  16.751  0.00  0.00    +0.000 OA
ATOM     32  H   UNL     1       2.893  16.981  15.896  0.00  0.00    +0.000 HD
ENDBRANCH  30  31
ENDBRANCH  28  30
ENDBRANCH   1  28
BRANCH   6  33
ATOM     33  C   UNL     1      -3.361  13.085  21.213  0.00  0.00    +0.000 C 
BRANCH  33  34
ATOM     34  C   UNL     1      -3.544  13.885  22.484  0.00  0.00    +0.000 A 
ATOM     35  C   UNL     1      -4.366  15.024  22.486  0.00  0.00    +0.000 A 
ATOM     36  C   UNL     1      -4.582  15.747  23.658  0.00  0.00    +0.000 A 
ATOM     37  C   UNL     1      -3.981  15.342  24.847  0.00  0.00    +0.000 A 
ATOM     38  C   UNL     1      -3.160  14.214  24.861  0.00  0.00    +0.000 A 
ATOM     39  C   UNL     1      -2.938  13.489  23.687  0.00  0.00    +0.000 A 
ENDBRANCH  33  34
ENDBRANCH   6  33
TORSDOF 7
ENDMDL
MODEL 5
REMARK VINA RESULT:      -8.4      3.924     10.540
REMARK  Name = 
REMARK  7 active torsions:
REMARK  status: ('A' for Active; 'I' for Inactive)
REMARK    1  A    between atoms: C_2  and  O_3
REMARK    2  A    between atoms: C_2  and  C_4
REMARK    3  A    between atoms: C_4  and  N_5
REMARK    4  A    between atoms: N_10  and  C_11
REMARK    5  A    between atoms: C_11  and  C_12
REMARK    6  A    between atoms: C_21  and  C_23
REMARK    7  A    between atoms: C_26  and  C_27
REMARK                            x       y       z     vdW  Elec       q    Type
REMARK                         _______ _______ _______ _____ _____    ______ ____
ROOT
ATOM      1  N   UNL     1       3.194   3.944  20.431  0.00  0.00    +0.000 N 
ATOM      2  C   UNL     1       3.954   2.895  19.991  0.00  0.00    +0.000 A 
ATOM      3  N   UNL     1       4.469   3.131  18.799  0.00  0.00    +0.000 NA
ATOM      4  C   UNL     1       4.051   4.408  18.477  0.00  0.00    +0.000 A 
ATOM      5  C   UNL     1       4.247   5.223  17.350  0.00  0.00    +0.000 A 
ATOM      6  N   UNL     1       4.881   4.745  16.206  0.00  0.00    +0.000 N 
ATOM      7  N   UNL     1       3.725   6.482  17.387  0.00  0.00    +0.000 NA
ATOM      8  C   UNL     1       2.975   6.869  18.441  0.00  0.00    +0.000 A 
ATOM      9  N   UNL     1       2.474   8.163  18.325  0.00  0.00    +0.000 N 
ATOM     10  C   UNL     1       1.532   8.718  19.158  0.00  0.00    +0.000 C 
ATOM     11  O   UNL     1       0.963   8.140  20.080  0.00  0.00    +0.000 OA
ATOM     12  N   UNL     1       2.706   6.139  19.534  0.00  0.00    +0.000 NA
ATOM     13  C   UNL     1       3.280   4.933  19.493  0.00  0.00    +0.000 A 
ATOM     14  H   UNL     1       5.332   3.848  16.369  0.00  0.00    +0.000 HD
ATOM     15  H   UNL     1       2.852   8.653  17.532  0.00  0.00    +0.000 HD
ENDROOT
BRANCH  10  16
ATOM     16  C   UNL     1       1.162  10.147  18.902  0.00  0.00    +0.000 A 
ATOM     17  C   UNL     1      -0.154  10.609  18.830  0.00  0.00    +0.000 A 
ATOM     18  C   UNL     1      -0.403  11.982  18.695  0.00  0.00    +0.000 A 
ATOM     19  C   UNL     1       0.643  12.926  18.659  0.00  0.00    +0.000 A 
ATOM     20  C   UNL     1       1.952  12.442  18.648  0.00  0.00    +0.000 A 
ATOM     21  C   UNL     1       2.207  11.072  18.782  0.00  0.00    +0.000 A 
BRANCH  19  22
ATOM     22  C   UNL     1       0.283  14.410  18.747  0.00  0.00    +0.000 C 
ATOM     23  C   UNL     1      -0.423  14.697  20.088  0.00  0.00    +0.000 C 
ATOM     24  C   UNL     1       0.565  14.737  21.252  0.00  0.00    +0.000 C 
ATOM     25  C   UNL     1       1.583  15.850  21.047  0.00  0.00    +0.000 C 
ATOM     26  C   UNL     1       2.328  15.702  19.724  0.00  0.00    +0.000 C 
ATOM     27  C   UNL     1       1.404  15.454  18.526  0.00  0.00    +0.000 C 
ENDBRANCH  19  22
ENDBRANCH  10  16
BRANCH   1  28
ATOM     28  C   UNL     1       2.366   3.981  21.617  0.00  0.00    +0.000 C 
BRANCH  28  30
ATOM     29  O   UNL     1       1.221   2.044  22.473  0.00  0.00    +0.000 OA
ATOM     30  C   UNL     1       1.309   2.907  21.610  0.00  0.00    +0.000 C 
BRANCH  30  31
ATOM     31  O   UNL     1       0.478   2.941  20.546  0.00  0.00    +0.000 OA
ATOM     32  H   UNL     1       0.196   3.832  20.255  0.00  0.00    +0.000 HD
ENDBRANCH  30  31
ENDBRANCH  28  30
ENDBRANCH   1  28
BRANCH   6  33
ATOM     33  C   UNL     1       5.631   5.682  15.398  0.00  0.00    +0.000 C 
BRANCH  33  34
ATOM     34  C   UNL     1       6.109   5.000  14.135  0.00  0.00    +0.000 A 
ATOM     35  C   UNL     1       7.326   5.381  13.547  0.00  0.00    +0.000 A 
ATOM     36  C   UNL     1       7.805   4.733  12.409  0.00  0.00    +0.000 A 
ATOM     37  C   UNL     1       7.074   3.693  11.842  0.00  0.00    +0.000 A 
ATOM     38  C   UNL     1       5.861   3.304  12.412  0.00  0.00    +0.000 A 
ATOM     39  C   UNL     1       5.377   3.954  13.551  0.00  0.00    +0.000 A 
ENDBRANCH  33  34
ENDBRANCH   6  33
TORSDOF 7
ENDMDL
MODEL 6
REMARK VINA RESULT:      -8.4      4.295     10.327
REMARK  Name = 
REMARK  7 active torsions:
REMARK  status: ('A' for Active; 'I' for Inactive)
REMARK    1  A    between atoms: C_2  and  O_3
REMARK    2  A    between atoms: C_2  and  C_4
REMARK    3  A    between atoms: C_4  and  N_5
REMARK    4  A    between atoms: N_10  and  C_11
REMARK    5  A    between atoms: C_11  and  C_12
REMARK    6  A    between atoms: C_21  and  C_23
REMARK    7  A    between atoms: C_26  and  C_27
REMARK                            x       y       z     vdW  Elec       q    Type
REMARK                         _______ _______ _______ _____ _____    ______ ____
ROOT
ATOM      1  N   UNL     1       2.512   2.828  19.215  0.00  0.00    +0.000 N 
ATOM      2  C   UNL     1       3.305   2.102  18.368  0.00  0.00    +0.000 A 
ATOM      3  N   UNL     1       3.953   2.878  17.520  0.00  0.00    +0.000 NA
ATOM      4  C   UNL     1       3.590   4.165  17.866  0.00  0.00    +0.000 A 
ATOM      5  C   UNL     1       3.922   5.427  17.344  0.00  0.00    +0.000 A 
ATOM      6  N   UNL     1       4.674   5.558  16.180  0.00  0.00    +0.000 N 
ATOM      7  N   UNL     1       3.413   6.522  17.977  0.00  0.00    +0.000 NA
ATOM      8  C   UNL     1       2.554   6.365  19.008  0.00  0.00    +0.000 A 
ATOM      9  N   UNL     1       2.085   7.568  19.531  0.00  0.00    +0.000 N 
ATOM     10  C   UNL     1       1.062   7.682  20.442  0.00  0.00    +0.000 C 
ATOM     11  O   UNL     1       0.386   6.754  20.878  0.00  0.00    +0.000 OA
ATOM     12  N   UNL     1       2.155   5.200  19.539  0.00  0.00    +0.000 NA
ATOM     13  C   UNL     1       2.715   4.148  18.933  0.00  0.00    +0.000 A 
ATOM     14  H   UNL     1       5.093   4.676  15.897  0.00  0.00    +0.000 HD
ATOM     15  H   UNL     1       2.556   8.368  19.142  0.00  0.00    +0.000 HD
ENDROOT
BRANCH  10  16
ATOM     16  C   UNL     1       0.740   9.062  20.927  0.00  0.00    +0.000 A 
ATOM     17  C   UNL     1       0.999  10.224  20.197  0.00  0.00    +0.000 A 
ATOM     18  C   UNL     1       0.563  11.464  20.686  0.00  0.00    +0.000 A 
ATOM     19  C   UNL     1      -0.161  11.574  21.889  0.00  0.00    +0.000 A 
ATOM     20  C   UNL     1      -0.338  10.416  22.648  0.00  0.00    +0.000 A 
ATOM     21  C   UNL     1       0.094   9.175  22.165  0.00  0.00    +0.000 A 
BRANCH  19  22
ATOM     22  C   UNL     1      -0.799  12.922  22.230  0.00  0.00    +0.000 C 
ATOM     23  C   UNL     1      -1.576  13.455  21.009  0.00  0.00    +0.000 C 
ATOM     24  C   UNL     1      -2.906  12.730  20.823  0.00  0.00    +0.000 C 
ATOM     25  C   UNL     1      -3.801  12.940  22.037  0.00  0.00    +0.000 C 
ATOM     26  C   UNL     1      -3.126  12.485  23.326  0.00  0.00    +0.000 C 
ATOM     27  C   UNL     1      -1.696  13.016  23.488  0.00  0.00    +0.000 C 
ENDBRANCH  19  22
ENDBRANCH  10  16
BRANCH   1  28
ATOM     28  C   UNL     1       1.557   2.309  20.169  0.00  0.00    +0.000 C 
BRANCH  28  30
ATOM     29  O   UNL     1       1.309   2.703  22.532  0.00  0.00    +0.000 OA
ATOM     30  C   UNL     1       2.043   2.436  21.591  0.00  0.00    +0.000 C 
BRANCH  30  31
ATOM     31  O   UNL     1       3.375   2.269  21.747  0.00  0.00    +0.000 OA
ATOM     32  H   UNL     1       3.929   3.045  21.525  0.00  0.00    +0.000 HD
ENDBRANCH  30  31
ENDBRANCH  28  30
ENDBRANCH   1  28
BRANCH   6  33
ATOM     33  C   UNL     1       5.521   6.724  16.042  0.00  0.00    +0.000 C 
BRANCH  33  34
ATOM     34  C   UNL     1       6.550   6.742  17.151  0.00  0.00    +0.000 A 
ATOM     35  C   UNL     1       6.843   5.566  17.860  0.00  0.00    +0.000 A 
ATOM     36  C   UNL     1       7.821   5.554  18.854  0.00  0.00    +0.000 A 
ATOM     37  C   UNL     1       8.522   6.719  19.153  0.00  0.00    +0.000 A 
ATOM     38  C   UNL     1       8.241   7.897  18.461  0.00  0.00    +0.000 A 
ATOM     39  C   UNL     1       7.259   7.913  17.466  0.00  0.00    +0.000 A 
ENDBRANCH  33  34
ENDBRANCH   6  33
TORSDOF 7
ENDMDL
MODEL 7
REMARK VINA RESULT:      -8.4      3.155      5.831
REMARK  Name = 
REMARK  7 active torsions:
REMARK  status: ('A' for Active; 'I' for Inactive)
REMARK    1  A    between atoms: C_2  and  O_3
REMARK    2  A    between atoms: C_2  and  C_4
REMARK    3  A    between atoms: C_4  and  N_5
REMARK    4  A    between atoms: N_10  and  C_11
REMARK    5  A    between atoms: C_11  and  C_12
REMARK    6  A    between atoms: C_21  and  C_23
REMARK    7  A    between atoms: C_26  and  C_27
REMARK                            x       y       z     vdW  Elec       q    Type
REMARK                         _______ _______ _______ _____ _____    ______ ____
ROOT
ATOM      1  N   UNL     1       1.297  15.518  18.618  0.00  0.00    +0.000 N 
ATOM      2  C   UNL     1       0.478  16.571  18.922  0.00  0.00    +0.000 A 
ATOM      3  N   UNL     1      -0.670  16.166  19.432  0.00  0.00    +0.000 NA
ATOM      4  C   UNL     1      -0.566  14.790  19.494  0.00  0.00    +0.000 A 
ATOM      5  C   UNL     1      -1.446  13.782  19.923  0.00  0.00    +0.000 A 
ATOM      6  N   UNL     1      -2.760  14.067  20.285  0.00  0.00    +0.000 N 
ATOM      7  N   UNL     1      -0.990  12.498  19.898  0.00  0.00    +0.000 NA
ATOM      8  C   UNL     1       0.232  12.227  19.391  0.00  0.00    +0.000 A 
ATOM      9  N   UNL     1       0.550  10.871  19.393  0.00  0.00    +0.000 N 
ATOM     10  C   UNL     1       1.636  10.318  18.758  0.00  0.00    +0.000 C 
ATOM     11  O   UNL     1       2.444  10.927  18.060  0.00  0.00    +0.000 OA
ATOM     12  N   UNL     1       1.115  13.124  18.925  0.00  0.00    +0.000 NA
ATOM     13  C   UNL     1       0.660  14.378  19.016  0.00  0.00    +0.000 A 
ATOM     14  H   UNL     1      -2.917  15.068  20.384  0.00  0.00    +0.000 HD
ATOM     15  H   UNL     1      -0.129  10.316  19.886  0.00  0.00    +0.000 HD
ENDROOT
BRANCH  10  16
ATOM     16  C   UNL     1       1.837   8.843  18.923  0.00  0.00    +0.000 A 
ATOM     17  C   UNL     1       2.294   8.001  17.908  0.00  0.00    +0.000 A 
ATOM     18  C   UNL     1       2.556   6.652  18.187  0.00  0.00    +0.000 A 
ATOM     19  C   UNL     1       2.399   6.119  19.482  0.00  0.00    +0.000 A 
ATOM     20  C   UNL     1       1.862   6.951  20.465  0.00  0.00    +0.000 A 
ATOM     21  C   UNL     1       1.599   8.298  20.192  0.00  0.00    +0.000 A 
BRANCH  19  22
ATOM     22  C   UNL     1       2.925   4.709  19.753  0.00  0.00    +0.000 C 
ATOM     23  C   UNL     1       2.032   4.010  20.798  0.00  0.00    +0.000 C 
ATOM     24  C   UNL     1       0.713   3.538  20.192  0.00  0.00    +0.000 C 
ATOM     25  C   UNL     1       0.969   2.522  19.088  0.00  0.00    +0.000 C 
ATOM     26  C   UNL     1       1.881   3.082  18.001  0.00  0.00    +0.000 C 
ATOM     27  C   UNL     1       3.143   3.759  18.551  0.00  0.00    +0.000 C 
ENDBRANCH  19  22
ENDBRANCH  10  16
BRANCH   1  28
ATOM     28  C   UNL     1       2.561  15.574  17.917  0.00  0.00    +0.000 C 
BRANCH  28  30
ATOM     29  O   UNL     1       4.889  15.375  18.498  0.00  0.00    +0.000 OA
ATOM     30  C   UNL     1       3.738  15.578  18.858  0.00  0.00    +0.000 C 
BRANCH  30  31
ATOM     31  O   UNL     1       3.420  15.787  20.155  0.00  0.00    +0.000 OA
ATOM     32  H   UNL     1       2.736  16.466  20.321  0.00  0.00    +0.000 HD
ENDBRANCH  30  31
ENDBRANCH  28  30
ENDBRANCH   1  28
BRANCH   6  33
ATOM     33  C   UNL     1      -3.389  13.234  21.287  0.00  0.00    +0.000 C 
BRANCH  33  34
ATOM     34  C   UNL     1      -4.689  12.679  20.748  0.00  0.00    +0.000 A 
ATOM     35  C   UNL     1      -5.822  12.610  21.575  0.00  0.00    +0.000 A 
ATOM     36  C   UNL     1      -7.040  12.143  21.082  0.00  0.00    +0.000 A 
ATOM     37  C   UNL     1      -7.144  11.739  19.754  0.00  0.00    +0.000 A 
ATOM     38  C   UNL     1      -6.027  11.798  18.920  0.00  0.00    +0.000 A 
ATOM     39  C   UNL     1      -4.804  12.263  19.411  0.00  0.00    +0.000 A 
ENDBRANCH  33  34
ENDBRANCH   6  33
TORSDOF 7
ENDMDL
MODEL 8
REMARK VINA RESULT:      -8.4      3.276      5.936
REMARK  Name = 
REMARK  7 active torsions:
REMARK  status: ('A' for Active; 'I' for Inactive)
REMARK    1  A    between atoms: C_2  and  O_3
REMARK    2  A    between atoms: C_2  and  C_4
REMARK    3  A    between atoms: C_4  and  N_5
REMARK    4  A    between atoms: N_10  and  C_11
REMARK    5  A    between atoms: C_11  and  C_12
REMARK    6  A    between atoms: C_21  and  C_23
REMARK    7  A    between atoms: C_26  and  C_27
REMARK                            x       y       z     vdW  Elec       q    Type
REMARK                         _______ _______ _______ _____ _____    ______ ____
ROOT
ATOM      1  N   UNL     1       1.439  15.096  18.552  0.00  0.00    +0.000 N 
ATOM      2  C   UNL     1       0.623  16.157  18.838  0.00  0.00    +0.000 A 
ATOM      3  N   UNL     1      -0.533  15.764  19.339  0.00  0.00    +0.000 NA
ATOM      4  C   UNL     1      -0.438  14.388  19.414  0.00  0.00    +0.000 A 
ATOM      5  C   UNL     1      -1.330  13.389  19.841  0.00  0.00    +0.000 A 
ATOM      6  N   UNL     1      -2.645  13.686  20.186  0.00  0.00    +0.000 N 
ATOM      7  N   UNL     1      -0.882  12.101  19.832  0.00  0.00    +0.000 NA
ATOM      8  C   UNL     1       0.344  11.819  19.340  0.00  0.00    +0.000 A 
ATOM      9  N   UNL     1       0.653  10.460  19.356  0.00  0.00    +0.000 N 
ATOM     10  C   UNL     1       1.742   9.896  18.738  0.00  0.00    +0.000 C 
ATOM     11  O   UNL     1       2.561  10.493  18.044  0.00  0.00    +0.000 OA
ATOM     12  N   UNL     1       1.237  12.706  18.876  0.00  0.00    +0.000 NA
ATOM     13  C   UNL     1       0.790  13.964  18.952  0.00  0.00    +0.000 A 
ATOM     14  H   UNL     1      -2.797  14.688  20.275  0.00  0.00    +0.000 HD
ATOM     15  H   UNL     1      -0.035   9.915  19.847  0.00  0.00    +0.000 HD
ENDROOT
BRANCH  10  16
ATOM     16  C   UNL     1       1.932   8.421  18.917  0.00  0.00    +0.000 A 
ATOM     17  C   UNL     1       2.419   7.572  17.922  0.00  0.00    +0.000 A 
ATOM     18  C   UNL     1       2.666   6.223  18.217  0.00  0.00    +0.000 A 
ATOM     19  C   UNL     1       2.464   5.697  19.508  0.00  0.00    +0.000 A 
ATOM     20  C   UNL     1       1.898   6.537  20.469  0.00  0.00    +0.000 A 
ATOM     21  C   UNL     1       1.650   7.884  20.181  0.00  0.00    +0.000 A 
BRANCH  19  22
ATOM     22  C   UNL     1       2.976   4.287  19.804  0.00  0.00    +0.000 C 
ATOM     23  C   UNL     1       1.951   3.532  20.675  0.00  0.00    +0.000 C 
ATOM     24  C   UNL     1       0.750   3.061  19.859  0.00  0.00    +0.000 C 
ATOM     25  C   UNL     1       1.193   2.095  18.769  0.00  0.00    +0.000 C 
ATOM     26  C   UNL     1       2.245   2.714  17.855  0.00  0.00    +0.000 C 
ATOM     27  C   UNL     1       3.394   3.389  18.614  0.00  0.00    +0.000 C 
ENDBRANCH  19  22
ENDBRANCH  10  16
BRANCH   1  28
ATOM     28  C   UNL     1       2.710  15.138  17.864  0.00  0.00    +0.000 C 
BRANCH  28  30
ATOM     29  O   UNL     1       3.689  17.334  17.998  0.00  0.00    +0.000 OA
ATOM     30  C   UNL     1       3.631  16.190  18.427  0.00  0.00    +0.000 C 
BRANCH  30  31
ATOM     31  O   UNL     1       4.429  15.762  19.430  0.00  0.00    +0.000 OA
ATOM     32  H   UNL     1       4.021  15.745  20.320  0.00  0.00    +0.000 HD
ENDBRANCH  30  31
ENDBRANCH  28  30
ENDBRANCH   1  28
BRANCH   6  33
ATOM     33  C   UNL     1      -3.291  12.865  21.188  0.00  0.00    +0.000 C 
BRANCH  33  34
ATOM     34  C   UNL     1      -4.787  12.862  20.961  0.00  0.00    +0.000 A 
ATOM     35  C   UNL     1      -5.305  12.613  19.680  0.00  0.00    +0.000 A 
ATOM     36  C   UNL     1      -6.681  12.562  19.462  0.00  0.00    +0.000 A 
ATOM     37  C   UNL     1      -7.561  12.759  20.522  0.00  0.00    +0.000 A 
ATOM     38  C   UNL     1      -7.063  13.012  21.801  0.00  0.00    +0.000 A 
ATOM     39  C   UNL     1      -5.684  13.066  22.022  0.00  0.00    +0.000 A 
ENDBRANCH  33  34
ENDBRANCH   6  33
TORSDOF 7
ENDMDL
MODEL 9
REMARK VINA RESULT:      -8.4      3.981     10.652
REMARK  Name = 
REMARK  7 active torsions:
REMARK  status: ('A' for Active; 'I' for Inactive)
REMARK    1  A    between atoms: C_2  and  O_3
REMARK    2  A    between atoms: C_2  and  C_4
REMARK    3  A    between atoms: C_4  and  N_5
REMARK    4  A    between atoms: N_10  and  C_11
REMARK    5  A    between atoms: C_11  and  C_12
REMARK    6  A    between atoms: C_21  and  C_23
REMARK    7  A    between atoms: C_26  and  C_27
REMARK                            x       y       z     vdW  Elec       q    Type
REMARK                         _______ _______ _______ _____ _____    ______ ____
ROOT
ATOM      1  N   UNL     1       3.471   3.120  20.490  0.00  0.00    +0.000 N 
ATOM      2  C   UNL     1       4.197   2.148  19.857  0.00  0.00    +0.000 A 
ATOM      3  N   UNL     1       4.598   2.538  18.662  0.00  0.00    +0.000 NA
ATOM      4  C   UNL     1       4.139   3.835  18.538  0.00  0.00    +0.000 A 
ATOM      5  C   UNL     1       4.223   4.786  17.507  0.00  0.00    +0.000 A 
ATOM      6  N   UNL     1       4.753   4.464  16.260  0.00  0.00    +0.000 N 
ATOM      7  N   UNL     1       3.694   6.019  17.745  0.00  0.00    +0.000 NA
ATOM      8  C   UNL     1       3.041   6.259  18.903  0.00  0.00    +0.000 A 
ATOM      9  N   UNL     1       2.519   7.548  18.992  0.00  0.00    +0.000 N 
ATOM     10  C   UNL     1       1.652   7.977  19.969  0.00  0.00    +0.000 C 
ATOM     11  O   UNL     1       1.177   7.280  20.861  0.00  0.00    +0.000 OA
ATOM     12  N   UNL     1       2.881   5.397  19.918  0.00  0.00    +0.000 NA
ATOM     13  C   UNL     1       3.460   4.216  19.677  0.00  0.00    +0.000 A 
ATOM     14  H   UNL     1       5.226   3.563  16.270  0.00  0.00    +0.000 HD
ATOM     15  H   UNL     1       2.817   8.138  18.235  0.00  0.00    +0.000 HD
ENDROOT
BRANCH  10  16
ATOM     16  C   UNL     1       1.246   9.418  19.925  0.00  0.00    +0.000 A 
ATOM     17  C   UNL     1       1.331  10.217  18.784  0.00  0.00    +0.000 A 
ATOM     18  C   UNL     1       0.826  11.525  18.809  0.00  0.00    +0.000 A 
ATOM     19  C   UNL     1       0.200  12.055  19.955  0.00  0.00    +0.000 A 
ATOM     20  C   UNL     1       0.198  11.276  21.112  0.00  0.00    +0.000 A 
ATOM     21  C   UNL     1       0.701   9.970  21.093  0.00  0.00    +0.000 A 
BRANCH  19  22
ATOM     22  C   UNL     1      -0.528  13.394  19.827  0.00  0.00    +0.000 C 
ATOM     23  C   UNL     1      -0.523  14.122  21.187  0.00  0.00    +0.000 C 
ATOM     24  C   UNL     1       0.836  14.747  21.491  0.00  0.00    +0.000 C 
ATOM     25  C   UNL     1       1.191  15.787  20.437  0.00  0.00    +0.000 C 
ATOM     26  C   UNL     1       1.181  15.197  19.031  0.00  0.00    +0.000 C 
ATOM     27  C   UNL     1      -0.077  14.377  18.720  0.00  0.00    +0.000 C 
ENDBRANCH  19  22
ENDBRANCH  10  16
BRANCH   1  28
ATOM     28  C   UNL     1       2.756   2.995  21.741  0.00  0.00    +0.000 C 
BRANCH  28  30
ATOM     29  O   UNL     1       0.713   2.843  20.476  0.00  0.00    +0.000 OA
ATOM     30  C   UNL     1       1.298   2.673  21.537  0.00  0.00    +0.000 C 
BRANCH  30  31
ATOM     31  O   UNL     1       0.663   2.213  22.638  0.00  0.00    +0.000 OA
ATOM     32  H   UNL     1      -0.291   2.423  22.698  0.00  0.00    +0.000 HD
ENDBRANCH  30  31
ENDBRANCH  28  30
ENDBRANCH   1  28
BRANCH   6  33
ATOM     33  C   UNL     1       5.416   5.508  15.509  0.00  0.00    +0.000 C 
BRANCH  33  34
ATOM     34  C   UNL     1       5.997   4.932  14.237  0.00  0.00    +0.000 A 
ATOM     35  C   UNL     1       7.250   5.367  13.775  0.00  0.00    +0.000 A 
ATOM     36  C   UNL     1       7.822   4.815  12.629  0.00  0.00    +0.000 A 
ATOM     37  C   UNL     1       7.149   3.818  11.927  0.00  0.00    +0.000 A 
ATOM     38  C   UNL     1       5.902   3.377  12.370  0.00  0.00    +0.000 A 
ATOM     39  C   UNL     1       5.325   3.931  13.517  0.00  0.00    +0.000 A 
ENDBRANCH  33  34
ENDBRANCH   6  33
TORSDOF 7
ENDMDL
