MODEL 1
REMARK VINA RESULT:      -7.5      0.000      0.000
REMARK  Name = 
REMARK  13 active torsions:
REMARK  status: ('A' for Active; 'I' for Inactive)
REMARK    1  A    between atoms: C_1  and  C_2
REMARK    2  A    between atoms: C_2  and  C_3
REMARK    3  A    between atoms: C_3  and  C_26
REMARK    4  A    between atoms: C_4  and  C_5
REMARK    5  A    between atoms: C_4  and  C_17
REMARK    6  A    between atoms: C_8  and  O_9
REMARK    7  A    between atoms: O_9  and  C_10
REMARK    8  A    between atoms: C_10  and  C_11
REMARK    9  A    between atoms: C_11  and  N_12
REMARK   10  A    between atoms: N_12  and  C_13
REMARK   11  A    between atoms: N_12  and  C_14
REMARK   12  A    between atoms: C_20  and  S_21
REMARK   13  A    between atoms: S_21  and  C_22
REMARK                            x       y       z     vdW  Elec       q    Type
REMARK                         _______ _______ _______ _____ _____    ______ ____
ROOT
ATOM      1  C   UNL     1       2.266   4.771  19.668  0.00  0.00    +0.000 C 
ATOM      2  C   UNL     1       2.851   5.957  19.338  0.00  0.00    +0.000 C 
ENDROOT
BRANCH   2   3
ATOM      3  C   UNL     1       4.030   5.976  18.433  0.00  0.00    +0.000 A 
ATOM      4  C   UNL     1       3.822   6.430  17.128  0.00  0.00    +0.000 A 
ATOM      5  C   UNL     1       4.869   6.473  16.214  0.00  0.00    +0.000 A 
ATOM      6  C   UNL     1       6.155   6.071  16.582  0.00  0.00    +0.000 A 
ATOM      7  C   UNL     1       6.373   5.629  17.891  0.00  0.00    +0.000 A 
ATOM      8  C   UNL     1       5.316   5.582  18.817  0.00  0.00    +0.000 A 
BRANCH   6   9
ATOM      9  O   UNL     1       7.245   6.078  15.738  0.00  0.00    +0.000 OA
BRANCH   9  10
ATOM     10  C   UNL     1       7.407   4.857  15.002  0.00  0.00    +0.000 C 
BRANCH  10  11
ATOM     11  C   UNL     1       6.128   4.415  14.282  0.00  0.00    +0.000 C 
BRANCH  11  12
ATOM     12  N   UNL     1       6.421   3.695  13.019  0.00  0.00    +0.000 NA
ATOM     13  C   UNL     1       5.211   3.386  12.251  0.00  0.00    +0.000 C 
ATOM     14  C   UNL     1       7.347   4.468  12.192  0.00  0.00    +0.000 C 
ENDBRANCH  11  12
ENDBRANCH  10  11
ENDBRANCH   9  10
ENDBRANCH   6   9
ENDBRANCH   2   3
BRANCH   2  15
ATOM     15  C   UNL     1       2.259   7.249  19.769  0.00  0.00    +0.000 A 
ATOM     16  C   UNL     1       2.018   8.244  18.814  0.00  0.00    +0.000 A 
ATOM     17  C   UNL     1       1.367   9.429  19.173  0.00  0.00    +0.000 A 
ATOM     18  C   UNL     1       0.931   9.628  20.487  0.00  0.00    +0.000 A 
ATOM     19  C   UNL     1       1.197   8.645  21.449  0.00  0.00    +0.000 A 
ATOM     20  C   UNL     1       1.855   7.463  21.091  0.00  0.00    +0.000 A 
BRANCH  18  21
ATOM     21  S   UNL     1       0.086  11.161  20.949  0.00  0.00    +0.000 S 
ATOM     22  C   UNL     1      -0.566  10.640  22.556  0.00  0.00    +0.000 C 
ATOM     23  O   UNL     1       1.196  12.239  21.222  0.00  0.00    +0.000 OA
ENDBRANCH  18  21
ENDBRANCH   2  15
BRANCH   1  24
ATOM     24  C   UNL     1       2.917   3.482  19.318  0.00  0.00    +0.000 A 
ATOM     25  C   UNL     1       3.769   2.860  20.240  0.00  0.00    +0.000 A 
ATOM     26  C   UNL     1       4.475   1.707  19.885  0.00  0.00    +0.000 A 
ATOM     27  C   UNL     1       4.331   1.167  18.608  0.00  0.00    +0.000 A 
ATOM     28  C   UNL     1       3.471   1.769  17.691  0.00  0.00    +0.000 A 
ATOM     29  C   UNL     1       2.761   2.919  18.046  0.00  0.00    +0.000 A 
ENDBRANCH   1  24
BRANCH   1  31
ATOM     30  C   UNL     1       0.376   3.199  20.412  0.00  0.00    +0.000 C 
ATOM     31  C   UNL     1       0.896   4.622  20.303  0.00  0.00    +0.000 C 
ENDBRANCH   1  31
TORSDOF 9
ENDMDL
MODEL 2
REMARK VINA RESULT:      -7.4      1.072      1.482
REMARK  Name = 
REMARK  13 active torsions:
REMARK  status: ('A' for Active; 'I' for Inactive)
REMARK    1  A    between atoms: C_1  and  C_2
REMARK    2  A    between atoms: C_2  and  C_3
REMARK    3  A    between atoms: C_3  and  C_26
REMARK    4  A    between atoms: C_4  and  C_5
REMARK    5  A    between atoms: C_4  and  C_17
REMARK    6  A    between atoms: C_8  and  O_9
REMARK    7  A    between atoms: O_9  and  C_10
REMARK    8  A    between atoms: C_10  and  C_11
REMARK    9  A    between atoms: C_11  and  N_12
REMARK   10  A    between atoms: N_12  and  C_13
REMARK   11  A    between atoms: N_12  and  C_14
REMARK   12  A    between atoms: C_20  and  S_21
REMARK   13  A    between atoms: S_21  and  C_22
REMARK                            x       y       z     vdW  Elec       q    Type
REMARK                         _______ _______ _______ _____ _____    ______ ____
ROOT
ATOM      1  C   UNL     1       2.541   4.747  19.539  0.00  0.00    +0.000 C 
ATOM      2  C   UNL     1       3.092   5.881  19.022  0.00  0.00    +0.000 C 
ENDROOT
BRANCH   2   3
ATOM      3  C   UNL     1       4.293   5.793  18.151  0.00  0.00    +0.000 A 
ATOM      4  C   UNL     1       4.076   5.757  16.771  0.00  0.00    +0.000 A 
ATOM      5  C   UNL     1       5.144   5.667  15.886  0.00  0.00    +0.000 A 
ATOM      6  C   UNL     1       6.459   5.619  16.355  0.00  0.00    +0.000 A 
ATOM      7  C   UNL     1       6.683   5.668  17.734  0.00  0.00    +0.000 A 
ATOM      8  C   UNL     1       5.605   5.757  18.633  0.00  0.00    +0.000 A 
BRANCH   6   9
ATOM      9  O   UNL     1       7.572   5.525  15.546  0.00  0.00    +0.000 OA
BRANCH   9  10
ATOM     10  C   UNL     1       7.261   5.241  14.174  0.00  0.00    +0.000 C 
BRANCH  10  11
ATOM     11  C   UNL     1       6.561   3.890  13.984  0.00  0.00    +0.000 C 
BRANCH  11  12
ATOM     12  N   UNL     1       6.544   3.467  12.563  0.00  0.00    +0.000 NA
ATOM     13  C   UNL     1       5.186   3.276  12.046  0.00  0.00    +0.000 C 
ATOM     14  C   UNL     1       7.256   4.438  11.732  0.00  0.00    +0.000 C 
ENDBRANCH  11  12
ENDBRANCH  10  11
ENDBRANCH   9  10
ENDBRANCH   6   9
ENDBRANCH   2   3
BRANCH   2  15
ATOM     15  C   UNL     1       2.441   7.203  19.211  0.00  0.00    +0.000 A 
ATOM     16  C   UNL     1       2.268   8.046  18.107  0.00  0.00    +0.000 A 
ATOM     17  C   UNL     1       1.566   9.249  18.236  0.00  0.00    +0.000 A 
ATOM     18  C   UNL     1       1.014   9.619  19.467  0.00  0.00    +0.000 A 
ATOM     19  C   UNL     1       1.211   8.790  20.578  0.00  0.00    +0.000 A 
ATOM     20  C   UNL     1       1.918   7.590  20.451  0.00  0.00    +0.000 A 
BRANCH  18  21
ATOM     21  S   UNL     1       0.104  11.176  19.631  0.00  0.00    +0.000 S 
ATOM     22  C   UNL     1       1.393  12.307  19.048  0.00  0.00    +0.000 C 
ATOM     23  O   UNL     1      -1.034  11.165  18.547  0.00  0.00    +0.000 OA
ENDBRANCH  18  21
ENDBRANCH   2  15
BRANCH   1  24
ATOM     24  C   UNL     1       3.248   3.445  19.430  0.00  0.00    +0.000 A 
ATOM     25  C   UNL     1       3.055   2.641  18.299  0.00  0.00    +0.000 A 
ATOM     26  C   UNL     1       3.624   1.366  18.232  0.00  0.00    +0.000 A 
ATOM     27  C   UNL     1       4.392   0.888  19.293  0.00  0.00    +0.000 A 
ATOM     28  C   UNL     1       4.603   1.689  20.414  0.00  0.00    +0.000 A 
ATOM     29  C   UNL     1       4.039   2.965  20.481  0.00  0.00    +0.000 A 
ENDBRANCH   1  24
BRANCH   1  31
ATOM     30  C   UNL     1       0.545   3.265  20.184  0.00  0.00    +0.000 C 
ATOM     31  C   UNL     1       1.162   4.653  20.163  0.00  0.00    +0.000 C 
ENDBRANCH   1  31
TORSDOF 9
ENDMDL
MODEL 3
REMARK VINA RESULT:      -7.4      0.748      1.146
REMARK  Name = 
REMARK  13 active torsions:
REMARK  status: ('A' for Active; 'I' for Inactive)
REMARK    1  A    between atoms: C_1  and  C_2
REMARK    2  A    between atoms: C_2  and  C_3
REMARK    3  A    between atoms: C_3  and  C_26
REMARK    4  A    between atoms: C_4  and  C_5
REMARK    5  A    between atoms: C_4  and  C_17
REMARK    6  A    between atoms: C_8  and  O_9
REMARK    7  A    between atoms: O_9  and  C_10
REMARK    8  A    between atoms: C_10  and  C_11
REMARK    9  A    between atoms: C_11  and  N_12
REMARK   10  A    between atoms: N_12  and  C_13
REMARK   11  A    between atoms: N_12  and  C_14
REMARK   12  A    between atoms: C_20  and  S_21
REMARK   13  A    between atoms: S_21  and  C_22
REMARK                            x       y       z     vdW  Elec       q    Type
REMARK                         _______ _______ _______ _____ _____    ______ ____
ROOT
ATOM      1  C   UNL     1       2.366   4.692  19.460  0.00  0.00    +0.000 C 
ATOM      2  C   UNL     1       2.938   5.842  19.004  0.00  0.00    +0.000 C 
ENDROOT
BRANCH   2   3
ATOM      3  C   UNL     1       4.163   5.779  18.164  0.00  0.00    +0.000 A 
ATOM      4  C   UNL     1       4.007   6.014  16.795  0.00  0.00    +0.000 A 
ATOM      5  C   UNL     1       5.100   5.966  15.937  0.00  0.00    +0.000 A 
ATOM      6  C   UNL     1       6.380   5.691  16.424  0.00  0.00    +0.000 A 
ATOM      7  C   UNL     1       6.544   5.469  17.795  0.00  0.00    +0.000 A 
ATOM      8  C   UNL     1       5.441   5.513  18.666  0.00  0.00    +0.000 A 
BRANCH   6   9
ATOM      9  O   UNL     1       7.513   5.622  15.642  0.00  0.00    +0.000 OA
BRANCH   9  10
ATOM     10  C   UNL     1       7.251   5.226  14.288  0.00  0.00    +0.000 C 
BRANCH  10  11
ATOM     11  C   UNL     1       6.434   3.932  14.187  0.00  0.00    +0.000 C 
BRANCH  11  12
ATOM     12  N   UNL     1       6.379   3.416  12.798  0.00  0.00    +0.000 NA
ATOM     13  C   UNL     1       5.013   3.360  12.269  0.00  0.00    +0.000 C 
ATOM     14  C   UNL     1       7.216   4.229  11.916  0.00  0.00    +0.000 C 
ENDBRANCH  11  12
ENDBRANCH  10  11
ENDBRANCH   9  10
ENDBRANCH   6   9
ENDBRANCH   2   3
BRANCH   2  15
ATOM     15  C   UNL     1       2.291   7.160  19.228  0.00  0.00    +0.000 A 
ATOM     16  C   UNL     1       1.886   7.513  20.520  0.00  0.00    +0.000 A 
ATOM     17  C   UNL     1       1.370   8.787  20.779  0.00  0.00    +0.000 A 
ATOM     18  C   UNL     1       1.267   9.732  19.753  0.00  0.00    +0.000 A 
ATOM     19  C   UNL     1       1.645   9.369  18.454  0.00  0.00    +0.000 A 
ATOM     20  C   UNL     1       2.156   8.093  18.194  0.00  0.00    +0.000 A 
BRANCH  18  21
ATOM     21  S   UNL     1       0.601  11.381  20.090  0.00  0.00    +0.000 S 
ATOM     22  C   UNL     1      -1.133  11.066  19.671  0.00  0.00    +0.000 C 
ATOM     23  O   UNL     1       0.674  11.602  21.644  0.00  0.00    +0.000 OA
ENDBRANCH  18  21
ENDBRANCH   2  15
BRANCH   1  24
ATOM     24  C   UNL     1       3.067   3.390  19.318  0.00  0.00    +0.000 A 
ATOM     25  C   UNL     1       3.923   2.946  20.335  0.00  0.00    +0.000 A 
ATOM     26  C   UNL     1       4.674   1.779  20.168  0.00  0.00    +0.000 A 
ATOM     27  C   UNL     1       4.572   1.047  18.986  0.00  0.00    +0.000 A 
ATOM     28  C   UNL     1       3.709   1.472  17.977  0.00  0.00    +0.000 A 
ATOM     29  C   UNL     1       2.955   2.635  18.144  0.00  0.00    +0.000 A 
ENDBRANCH   1  24
BRANCH   1  31
ATOM     30  C   UNL     1       0.638   3.262  20.711  0.00  0.00    +0.000 C 
ATOM     31  C   UNL     1       0.969   4.584  20.040  0.00  0.00    +0.000 C 
ENDBRANCH   1  31
TORSDOF 9
ENDMDL
MODEL 4
REMARK VINA RESULT:      -7.4      0.834      1.586
REMARK  Name = 
REMARK  13 active torsions:
REMARK  status: ('A' for Active; 'I' for Inactive)
REMARK    1  A    between atoms: C_1  and  C_2
REMARK    2  A    between atoms: C_2  and  C_3
REMARK    3  A    between atoms: C_3  and  C_26
REMARK    4  A    between atoms: C_4  and  C_5
REMARK    5  A    between atoms: C_4  and  C_17
REMARK    6  A    between atoms: C_8  and  O_9
REMARK    7  A    between atoms: O_9  and  C_10
REMARK    8  A    between atoms: C_10  and  C_11
REMARK    9  A    between atoms: C_11  and  N_12
REMARK   10  A    between atoms: N_12  and  C_13
REMARK   11  A    between atoms: N_12  and  C_14
REMARK   12  A    between atoms: C_20  and  S_21
REMARK   13  A    between atoms: S_21  and  C_22
REMARK                            x       y       z     vdW  Elec       q    Type
REMARK                         _______ _______ _______ _____ _____    ______ ____
ROOT
ATOM      1  C   UNL     1       2.349   4.835  19.614  0.00  0.00    +0.000 C 
ATOM      2  C   UNL     1       2.887   6.031  19.242  0.00  0.00    +0.000 C 
ENDROOT
BRANCH   2   3
ATOM      3  C   UNL     1       4.058   6.066  18.327  0.00  0.00    +0.000 A 
ATOM      4  C   UNL     1       5.312   5.814  18.890  0.00  0.00    +0.000 A 
ATOM      5  C   UNL     1       6.460   5.835  18.106  0.00  0.00    +0.000 A 
ATOM      6  C   UNL     1       6.386   6.101  16.737  0.00  0.00    +0.000 A 
ATOM      7  C   UNL     1       5.132   6.340  16.165  0.00  0.00    +0.000 A 
ATOM      8  C   UNL     1       3.969   6.322  16.955  0.00  0.00    +0.000 A 
BRANCH   6   9
ATOM      9  O   UNL     1       7.473   6.145  15.891  0.00  0.00    +0.000 OA
BRANCH   9  10
ATOM     10  C   UNL     1       7.644   4.950  15.115  0.00  0.00    +0.000 C 
BRANCH  10  11
ATOM     11  C   UNL     1       7.550   5.195  13.604  0.00  0.00    +0.000 C 
BRANCH  11  12
ATOM     12  N   UNL     1       6.469   4.397  12.978  0.00  0.00    +0.000 NA
ATOM     13  C   UNL     1       6.973   3.445  11.983  0.00  0.00    +0.000 C 
ATOM     14  C   UNL     1       5.701   3.684  13.998  0.00  0.00    +0.000 C 
ENDBRANCH  11  12
ENDBRANCH  10  11
ENDBRANCH   9  10
ENDBRANCH   6   9
ENDBRANCH   2   3
BRANCH   2  15
ATOM     15  C   UNL     1       2.248   7.313  19.637  0.00  0.00    +0.000 A 
ATOM     16  C   UNL     1       1.961   8.266  18.654  0.00  0.00    +0.000 A 
ATOM     17  C   UNL     1       1.267   9.436  18.980  0.00  0.00    +0.000 A 
ATOM     18  C   UNL     1       0.836   9.661  20.292  0.00  0.00    +0.000 A 
ATOM     19  C   UNL     1       1.148   8.721  21.282  0.00  0.00    +0.000 A 
ATOM     20  C   UNL     1       1.848   7.554  20.956  0.00  0.00    +0.000 A 
BRANCH  18  21
ATOM     21  S   UNL     1      -0.065  11.175  20.712  0.00  0.00    +0.000 S 
ATOM     22  C   UNL     1      -1.302  11.132  19.390  0.00  0.00    +0.000 C 
ATOM     23  O   UNL     1      -0.817  10.907  22.066  0.00  0.00    +0.000 OA
ENDBRANCH  18  21
ENDBRANCH   2  15
BRANCH   1  24
ATOM     24  C   UNL     1       3.047   3.561  19.299  0.00  0.00    +0.000 A 
ATOM     25  C   UNL     1       2.796   2.912  18.083  0.00  0.00    +0.000 A 
ATOM     26  C   UNL     1       3.357   1.660  17.820  0.00  0.00    +0.000 A 
ATOM     27  C   UNL     1       4.176   1.050  18.770  0.00  0.00    +0.000 A 
ATOM     28  C   UNL     1       4.445   1.697  19.975  0.00  0.00    +0.000 A 
ATOM     29  C   UNL     1       3.888   2.951  20.237  0.00  0.00    +0.000 A 
ENDBRANCH   1  24
BRANCH   1  31
ATOM     30  C   UNL     1       0.676   3.247  20.743  0.00  0.00    +0.000 C 
ATOM     31  C   UNL     1       0.991   4.654  20.264  0.00  0.00    +0.000 C 
ENDBRANCH   1  31
TORSDOF 9
ENDMDL
MODEL 5
REMARK VINA RESULT:      -7.4      1.000      1.247
REMARK  Name = 
REMARK  13 active torsions:
REMARK  status: ('A' for Active; 'I' for Inactive)
REMARK    1  A    between atoms: C_1  and  C_2
REMARK    2  A    between atoms: C_2  and  C_3
REMARK    3  A    between atoms: C_3  and  C_26
REMARK    4  A    between atoms: C_4  and  C_5
REMARK    5  A    between atoms: C_4  and  C_17
REMARK    6  A    between atoms: C_8  and  O_9
REMARK    7  A    between atoms: O_9  and  C_10
REMARK    8  A    between atoms: C_10  and  C_11
REMARK    9  A    between atoms: C_11  and  N_12
REMARK   10  A    between atoms: N_12  and  C_13
REMARK   11  A    between atoms: N_12  and  C_14
REMARK   12  A    between atoms: C_20  and  S_21
REMARK   13  A    between atoms: S_21  and  C_22
REMARK                            x       y       z     vdW  Elec       q    Type
REMARK                         _______ _______ _______ _____ _____    ______ ____
ROOT
ATOM      1  C   UNL     1       2.434   4.718  19.402  0.00  0.00    +0.000 C 
ATOM      2  C   UNL     1       3.030   5.837  18.902  0.00  0.00    +0.000 C 
ENDROOT
BRANCH   2   3
ATOM      3  C   UNL     1       4.242   5.715  18.051  0.00  0.00    +0.000 A 
ATOM      4  C   UNL     1       4.060   5.801  16.668  0.00  0.00    +0.000 A 
ATOM      5  C   UNL     1       5.140   5.689  15.800  0.00  0.00    +0.000 A 
ATOM      6  C   UNL     1       6.434   5.497  16.290  0.00  0.00    +0.000 A 
ATOM      7  C   UNL     1       6.625   5.423  17.674  0.00  0.00    +0.000 A 
ATOM      8  C   UNL     1       5.535   5.533  18.555  0.00  0.00    +0.000 A 
BRANCH   6   9
ATOM      9  O   UNL     1       7.556   5.372  15.500  0.00  0.00    +0.000 OA
BRANCH   9  10
ATOM     10  C   UNL     1       7.259   5.206  14.106  0.00  0.00    +0.000 C 
BRANCH  10  11
ATOM     11  C   UNL     1       6.559   3.877  13.794  0.00  0.00    +0.000 C 
BRANCH  11  12
ATOM     12  N   UNL     1       6.263   3.730  12.349  0.00  0.00    +0.000 NA
ATOM     13  C   UNL     1       7.112   2.729  11.696  0.00  0.00    +0.000 C 
ATOM     14  C   UNL     1       4.855   3.390  12.146  0.00  0.00    +0.000 C 
ENDBRANCH  11  12
ENDBRANCH  10  11
ENDBRANCH   9  10
ENDBRANCH   6   9
ENDBRANCH   2   3
BRANCH   2  15
ATOM     15  C   UNL     1       2.420   7.179  19.090  0.00  0.00    +0.000 A 
ATOM     16  C   UNL     1       2.217   8.000  17.975  0.00  0.00    +0.000 A 
ATOM     17  C   UNL     1       1.551   9.223  18.107  0.00  0.00    +0.000 A 
ATOM     18  C   UNL     1       1.063   9.634  19.352  0.00  0.00    +0.000 A 
ATOM     19  C   UNL     1       1.291   8.825  20.472  0.00  0.00    +0.000 A 
ATOM     20  C   UNL     1       1.963   7.605  20.342  0.00  0.00    +0.000 A 
BRANCH  18  21
ATOM     21  S   UNL     1       0.198  11.216  19.520  0.00  0.00    +0.000 S 
ATOM     22  C   UNL     1      -1.119  10.936  18.310  0.00  0.00    +0.000 C 
ATOM     23  O   UNL     1      -0.469  11.231  20.943  0.00  0.00    +0.000 OA
ENDBRANCH  18  21
ENDBRANCH   2  15
BRANCH   1  24
ATOM     24  C   UNL     1       3.099   3.394  19.296  0.00  0.00    +0.000 A 
ATOM     25  C   UNL     1       3.931   2.948  20.332  0.00  0.00    +0.000 A 
ATOM     26  C   UNL     1       4.651   1.758  20.199  0.00  0.00    +0.000 A 
ATOM     27  C   UNL     1       4.541   1.004  19.031  0.00  0.00    +0.000 A 
ATOM     28  C   UNL     1       3.703   1.431  18.003  0.00  0.00    +0.000 A 
ATOM     29  C   UNL     1       2.979   2.618  18.137  0.00  0.00    +0.000 A 
ENDBRANCH   1  24
BRANCH   1  31
ATOM     30  C   UNL     1       0.579   3.296  20.466  0.00  0.00    +0.000 C 
ATOM     31  C   UNL     1       1.041   4.666  20.001  0.00  0.00    +0.000 C 
ENDBRANCH   1  31
TORSDOF 9
ENDMDL
MODEL 6
REMARK VINA RESULT:      -7.3      0.654      1.634
REMARK  Name = 
REMARK  13 active torsions:
REMARK  status: ('A' for Active; 'I' for Inactive)
REMARK    1  A    between atoms: C_1  and  C_2
REMARK    2  A    between atoms: C_2  and  C_3
REMARK    3  A    between atoms: C_3  and  C_26
REMARK    4  A    between atoms: C_4  and  C_5
REMARK    5  A    between atoms: C_4  and  C_17
REMARK    6  A    between atoms: C_8  and  O_9
REMARK    7  A    between atoms: O_9  and  C_10
REMARK    8  A    between atoms: C_10  and  C_11
REMARK    9  A    between atoms: C_11  and  N_12
REMARK   10  A    between atoms: N_12  and  C_13
REMARK   11  A    between atoms: N_12  and  C_14
REMARK   12  A    between atoms: C_20  and  S_21
REMARK   13  A    between atoms: S_21  and  C_22
REMARK                            x       y       z     vdW  Elec       q    Type
REMARK                         _______ _______ _______ _____ _____    ______ ____
ROOT
ATOM      1  C   UNL     1       2.304   4.809  19.574  0.00  0.00    +0.000 C 
ATOM      2  C   UNL     1       2.812   6.012  19.181  0.00  0.00    +0.000 C 
ENDROOT
BRANCH   2   3
ATOM      3  C   UNL     1       3.977   6.061  18.260  0.00  0.00    +0.000 A 
ATOM      4  C   UNL     1       5.219   5.696  18.787  0.00  0.00    +0.000 A 
ATOM      5  C   UNL     1       6.362   5.721  17.996  0.00  0.00    +0.000 A 
ATOM      6  C   UNL     1       6.294   6.104  16.654  0.00  0.00    +0.000 A 
ATOM      7  C   UNL     1       5.051   6.456  16.117  0.00  0.00    +0.000 A 
ATOM      8  C   UNL     1       3.894   6.435  16.915  0.00  0.00    +0.000 A 
BRANCH   6   9
ATOM      9  O   UNL     1       7.377   6.160  15.803  0.00  0.00    +0.000 OA
BRANCH   9  10
ATOM     10  C   UNL     1       7.625   4.929  15.109  0.00  0.00    +0.000 C 
BRANCH  10  11
ATOM     11  C   UNL     1       6.406   4.422  14.329  0.00  0.00    +0.000 C 
BRANCH  11  12
ATOM     12  N   UNL     1       6.783   3.869  13.006  0.00  0.00    +0.000 NA
ATOM     13  C   UNL     1       5.634   3.335  12.269  0.00  0.00    +0.000 C 
ATOM     14  C   UNL     1       7.458   4.886  12.200  0.00  0.00    +0.000 C 
ENDBRANCH  11  12
ENDBRANCH  10  11
ENDBRANCH   9  10
ENDBRANCH   6   9
ENDBRANCH   2   3
BRANCH   2  15
ATOM     15  C   UNL     1       2.145   7.284  19.560  0.00  0.00    +0.000 A 
ATOM     16  C   UNL     1       1.816   7.512  20.902  0.00  0.00    +0.000 A 
ATOM     17  C   UNL     1       1.284   8.742  21.303  0.00  0.00    +0.000 A 
ATOM     18  C   UNL     1       1.087   9.766  20.371  0.00  0.00    +0.000 A 
ATOM     19  C   UNL     1       1.388   9.529  19.024  0.00  0.00    +0.000 A 
ATOM     20  C   UNL     1       1.915   8.296  18.622  0.00  0.00    +0.000 A 
BRANCH  18  21
ATOM     21  S   UNL     1       0.399  11.358  20.893  0.00  0.00    +0.000 S 
ATOM     22  C   UNL     1      -1.143  11.312  19.945  0.00  0.00    +0.000 C 
ATOM     23  O   UNL     1       0.019  11.224  22.412  0.00  0.00    +0.000 OA
ENDBRANCH  18  21
ENDBRANCH   2  15
BRANCH   1  24
ATOM     24  C   UNL     1       3.030   3.548  19.275  0.00  0.00    +0.000 A 
ATOM     25  C   UNL     1       2.786   2.873  18.071  0.00  0.00    +0.000 A 
ATOM     26  C   UNL     1       3.376   1.630  17.825  0.00  0.00    +0.000 A 
ATOM     27  C   UNL     1       4.216   1.056  18.778  0.00  0.00    +0.000 A 
ATOM     28  C   UNL     1       4.478   1.729  19.971  0.00  0.00    +0.000 A 
ATOM     29  C   UNL     1       3.893   2.973  20.216  0.00  0.00    +0.000 A 
ENDBRANCH   1  24
BRANCH   1  31
ATOM     30  C   UNL     1       0.721   3.233  20.840  0.00  0.00    +0.000 C 
ATOM     31  C   UNL     1       0.954   4.606  20.233  0.00  0.00    +0.000 C 
ENDBRANCH   1  31
TORSDOF 9
ENDMDL
MODEL 7
REMARK VINA RESULT:      -7.1      1.231      1.740
REMARK  Name = 
REMARK  13 active torsions:
REMARK  status: ('A' for Active; 'I' for Inactive)
REMARK    1  A    between atoms: C_1  and  C_2
REMARK    2  A    between atoms: C_2  and  C_3
REMARK    3  A    between atoms: C_3  and  C_26
REMARK    4  A    between atoms: C_4  and  C_5
REMARK    5  A    between atoms: C_4  and  C_17
REMARK    6  A    between atoms: C_8  and  O_9
REMARK    7  A    between atoms: O_9  and  C_10
REMARK    8  A    between atoms: C_10  and  C_11
REMARK    9  A    between atoms: C_11  and  N_12
REMARK   10  A    between atoms: N_12  and  C_13
REMARK   11  A    between atoms: N_12  and  C_14
REMARK   12  A    between atoms: C_20  and  S_21
REMARK   13  A    between atoms: S_21  and  C_22
REMARK                            x       y       z     vdW  Elec       q    Type
REMARK                         _______ _______ _______ _____ _____    ______ ____
ROOT
ATOM      1  C   UNL     1       2.486   4.593  19.550  0.00  0.00    +0.000 C 
ATOM      2  C   UNL     1       3.033   5.681  18.938  0.00  0.00    +0.000 C 
ENDROOT
BRANCH   2   3
ATOM      3  C   UNL     1       4.225   5.520  18.066  0.00  0.00    +0.000 A 
ATOM      4  C   UNL     1       3.999   5.099  16.752  0.00  0.00    +0.000 A 
ATOM      5  C   UNL     1       5.059   4.917  15.872  0.00  0.00    +0.000 A 
ATOM      6  C   UNL     1       6.374   5.158  16.277  0.00  0.00    +0.000 A 
ATOM      7  C   UNL     1       6.606   5.593  17.586  0.00  0.00    +0.000 A 
ATOM      8  C   UNL     1       5.536   5.776  18.480  0.00  0.00    +0.000 A 
BRANCH   6   9
ATOM      9  O   UNL     1       7.481   4.998  15.470  0.00  0.00    +0.000 OA
BRANCH   9  10
ATOM     10  C   UNL     1       7.166   4.951  14.071  0.00  0.00    +0.000 C 
BRANCH  10  11
ATOM     11  C   UNL     1       6.453   3.658  13.657  0.00  0.00    +0.000 C 
BRANCH  11  12
ATOM     12  N   UNL     1       6.228   3.591  12.193  0.00  0.00    +0.000 NA
ATOM     13  C   UNL     1       7.071   2.588  11.537  0.00  0.00    +0.000 C 
ATOM     14  C   UNL     1       4.820   3.317  11.904  0.00  0.00    +0.000 C 
ENDBRANCH  11  12
ENDBRANCH  10  11
ENDBRANCH   9  10
ENDBRANCH   6   9
ENDBRANCH   2   3
BRANCH   2  15
ATOM     15  C   UNL     1       2.385   7.015  19.028  0.00  0.00    +0.000 A 
ATOM     16  C   UNL     1       1.921   7.469  20.268  0.00  0.00    +0.000 A 
ATOM     17  C   UNL     1       1.403   8.761  20.402  0.00  0.00    +0.000 A 
ATOM     18  C   UNL     1       1.357   9.624  19.301  0.00  0.00    +0.000 A 
ATOM     19  C   UNL     1       1.795   9.160  18.055  0.00  0.00    +0.000 A 
ATOM     20  C   UNL     1       2.308   7.865  17.919  0.00  0.00    +0.000 A 
BRANCH  18  21
ATOM     21  S   UNL     1       0.688  11.297  19.477  0.00  0.00    +0.000 S 
ATOM     22  C   UNL     1       1.983  12.203  18.593  0.00  0.00    +0.000 C 
ATOM     23  O   UNL     1      -0.615  11.370  18.602  0.00  0.00    +0.000 OA
ENDBRANCH  18  21
ENDBRANCH   2  15
BRANCH   1  24
ATOM     24  C   UNL     1       3.189   3.284  19.539  0.00  0.00    +0.000 A 
ATOM     25  C   UNL     1       4.083   2.965  20.570  0.00  0.00    +0.000 A 
ATOM     26  C   UNL     1       4.835   1.789  20.516  0.00  0.00    +0.000 A 
ATOM     27  C   UNL     1       4.697   0.922  19.433  0.00  0.00    +0.000 A 
ATOM     28  C   UNL     1       3.797   1.223  18.411  0.00  0.00    +0.000 A 
ATOM     29  C   UNL     1       3.041   2.396  18.466  0.00  0.00    +0.000 A 
ENDBRANCH   1  24
BRANCH   1  31
ATOM     30  C   UNL     1       0.471   3.178  20.282  0.00  0.00    +0.000 C 
ATOM     31  C   UNL     1       1.112   4.552  20.193  0.00  0.00    +0.000 C 
ENDBRANCH   1  31
TORSDOF 9
ENDMDL
MODEL 8
REMARK VINA RESULT:      -7.1      1.046      1.506
REMARK  Name = 
REMARK  13 active torsions:
REMARK  status: ('A' for Active; 'I' for Inactive)
REMARK    1  A    between atoms: C_1  and  C_2
REMARK    2  A    between atoms: C_2  and  C_3
REMARK    3  A    between atoms: C_3  and  C_26
REMARK    4  A    between atoms: C_4  and  C_5
REMARK    5  A    between atoms: C_4  and  C_17
REMARK    6  A    between atoms: C_8  and  O_9
REMARK    7  A    between atoms: O_9  and  C_10
REMARK    8  A    between atoms: C_10  and  C_11
REMARK    9  A    between atoms: C_11  and  N_12
REMARK   10  A    between atoms: N_12  and  C_13
REMARK   11  A    between atoms: N_12  and  C_14
REMARK   12  A    between atoms: C_20  and  S_21
REMARK   13  A    between atoms: S_21  and  C_22
REMARK                            x       y       z     vdW  Elec       q    Type
REMARK                         _______ _______ _______ _____ _____    ______ ____
ROOT
ATOM      1  C   UNL     1       2.435   4.594  19.695  0.00  0.00    +0.000 C 
ATOM      2  C   UNL     1       2.951   5.733  19.153  0.00  0.00    +0.000 C 
ENDROOT
BRANCH   2   3
ATOM      3  C   UNL     1       4.064   5.650  18.172  0.00  0.00    +0.000 A 
ATOM      4  C   UNL     1       5.348   5.938  18.641  0.00  0.00    +0.000 A 
ATOM      5  C   UNL     1       6.444   5.891  17.787  0.00  0.00    +0.000 A 
ATOM      6  C   UNL     1       6.288   5.547  16.442  0.00  0.00    +0.000 A 
ATOM      7  C   UNL     1       5.007   5.245  15.969  0.00  0.00    +0.000 A 
ATOM      8  C   UNL     1       3.896   5.294  16.830  0.00  0.00    +0.000 A 
BRANCH   6   9
ATOM      9  O   UNL     1       7.319   5.482  15.529  0.00  0.00    +0.000 OA
BRANCH   9  10
ATOM     10  C   UNL     1       7.174   4.418  14.577  0.00  0.00    +0.000 C 
BRANCH  10  11
ATOM     11  C   UNL     1       7.420   4.867  13.131  0.00  0.00    +0.000 C 
BRANCH  11  12
ATOM     12  N   UNL     1       6.650   4.055  12.158  0.00  0.00    +0.000 NA
ATOM     13  C   UNL     1       7.408   2.906  11.655  0.00  0.00    +0.000 C 
ATOM     14  C   UNL     1       5.395   3.596  12.753  0.00  0.00    +0.000 C 
ENDBRANCH  11  12
ENDBRANCH  10  11
ENDBRANCH   9  10
ENDBRANCH   6   9
ENDBRANCH   2   3
BRANCH   2  15
ATOM     15  C   UNL     1       2.341   7.059  19.433  0.00  0.00    +0.000 A 
ATOM     16  C   UNL     1       2.182   7.974  18.386  0.00  0.00    +0.000 A 
ATOM     17  C   UNL     1       1.518   9.186  18.597  0.00  0.00    +0.000 A 
ATOM     18  C   UNL     1       0.987   9.493  19.855  0.00  0.00    +0.000 A 
ATOM     19  C   UNL     1       1.170   8.590  20.909  0.00  0.00    +0.000 A 
ATOM     20  C   UNL     1       1.841   7.381  20.699  0.00  0.00    +0.000 A 
BRANCH  18  21
ATOM     21  S   UNL     1       0.124  11.062  20.126  0.00  0.00    +0.000 S 
ATOM     22  C   UNL     1       1.260  12.155  19.234  0.00  0.00    +0.000 C 
ATOM     23  O   UNL     1      -1.213  11.004  19.303  0.00  0.00    +0.000 OA
ENDBRANCH  18  21
ENDBRANCH   2  15
BRANCH   1  24
ATOM     24  C   UNL     1       3.109   3.286  19.491  0.00  0.00    +0.000 A 
ATOM     25  C   UNL     1       4.133   2.888  20.361  0.00  0.00    +0.000 A 
ATOM     26  C   UNL     1       4.852   1.714  20.117  0.00  0.00    +0.000 A 
ATOM     27  C   UNL     1       4.549   0.929  19.006  0.00  0.00    +0.000 A 
ATOM     28  C   UNL     1       3.519   1.309  18.145  0.00  0.00    +0.000 A 
ATOM     29  C   UNL     1       2.798   2.479  18.390  0.00  0.00    +0.000 A 
ENDBRANCH   1  24
BRANCH   1  31
ATOM     30  C   UNL     1       0.884   3.208  21.200  0.00  0.00    +0.000 C 
ATOM     31  C   UNL     1       1.119   4.503  20.444  0.00  0.00    +0.000 C 
ENDBRANCH   1  31
TORSDOF 9
ENDMDL
MODEL 9
REMARK VINA RESULT:      -7.1      1.162      1.917
REMARK  Name = 
REMARK  13 active torsions:
REMARK  status: ('A' for Active; 'I' for Inactive)
REMARK    1  A    between atoms: C_1  and  C_2
REMARK    2  A    between atoms: C_2  and  C_3
REMARK    3  A    between atoms: C_3  and  C_26
REMARK    4  A    between atoms: C_4  and  C_5
REMARK    5  A    between atoms: C_4  and  C_17
REMARK    6  A    between atoms: C_8  and  O_9
REMARK    7  A    between atoms: O_9  and  C_10
REMARK    8  A    between atoms: C_10  and  C_11
REMARK    9  A    between atoms: C_11  and  N_12
REMARK   10  A    between atoms: N_12  and  C_13
REMARK   11  A    between atoms: N_12  and  C_14
REMARK   12  A    between atoms: C_20  and  S_21
REMARK   13  A    between atoms: S_21  and  C_22
REMARK                            x       y       z     vdW  Elec       q    Type
REMARK                         _______ _______ _______ _____ _____    ______ ____
ROOT
ATOM      1  C   UNL     1       2.562   4.693  19.326  0.00  0.00    +0.000 C 
ATOM      2  C   UNL     1       3.050   5.784  18.672  0.00  0.00    +0.000 C 
ENDROOT
BRANCH   2   3
ATOM      3  C   UNL     1       4.188   5.636  17.729  0.00  0.00    +0.000 A 
ATOM      4  C   UNL     1       5.366   6.321  18.041  0.00  0.00    +0.000 A 
ATOM      5  C   UNL     1       6.476   6.243  17.208  0.00  0.00    +0.000 A 
ATOM      6  C   UNL     1       6.443   5.472  16.044  0.00  0.00    +0.000 A 
ATOM      7  C   UNL     1       5.273   4.773  15.733  0.00  0.00    +0.000 A 
ATOM      8  C   UNL     1       4.147   4.852  16.572  0.00  0.00    +0.000 A 
BRANCH   6   9
ATOM      9  O   UNL     1       7.496   5.344  15.163  0.00  0.00    +0.000 OA
BRANCH   9  10
ATOM     10  C   UNL     1       7.084   5.147  13.803  0.00  0.00    +0.000 C 
BRANCH  10  11
ATOM     11  C   UNL     1       6.701   3.694  13.496  0.00  0.00    +0.000 C 
BRANCH  11  12
ATOM     12  N   UNL     1       6.296   3.513  12.081  0.00  0.00    +0.000 NA
ATOM     13  C   UNL     1       6.945   2.360  11.450  0.00  0.00    +0.000 C 
ATOM     14  C   UNL     1       4.843   3.378  11.977  0.00  0.00    +0.000 C 
ENDBRANCH  11  12
ENDBRANCH  10  11
ENDBRANCH   9  10
ENDBRANCH   6   9
ENDBRANCH   2   3
BRANCH   2  15
ATOM     15  C   UNL     1       2.386   7.108  18.791  0.00  0.00    +0.000 A 
ATOM     16  C   UNL     1       2.003   7.572  20.055  0.00  0.00    +0.000 A 
ATOM     17  C   UNL     1       1.471   8.856  20.208  0.00  0.00    +0.000 A 
ATOM     18  C   UNL     1       1.330   9.701  19.103  0.00  0.00    +0.000 A 
ATOM     19  C   UNL     1       1.686   9.228  17.834  0.00  0.00    +0.000 A 
ATOM     20  C   UNL     1       2.212   7.940  17.679  0.00  0.00    +0.000 A 
BRANCH  18  21
ATOM     21  S   UNL     1       0.644  11.365  19.304  0.00  0.00    +0.000 S 
ATOM     22  C   UNL     1      -1.100  10.979  18.999  0.00  0.00    +0.000 C 
ATOM     23  O   UNL     1       0.780  11.743  20.823  0.00  0.00    +0.000 OA
ENDBRANCH  18  21
ENDBRANCH   2  15
BRANCH   1  24
ATOM     24  C   UNL     1       3.287   3.397  19.282  0.00  0.00    +0.000 A 
ATOM     25  C   UNL     1       2.911   2.420  18.350  0.00  0.00    +0.000 A 
ATOM     26  C   UNL     1       3.508   1.157  18.369  0.00  0.00    +0.000 A 
ATOM     27  C   UNL     1       4.486   0.863  19.318  0.00  0.00    +0.000 A 
ATOM     28  C   UNL     1       4.878   1.834  20.238  0.00  0.00    +0.000 A 
ATOM     29  C   UNL     1       4.286   3.099  20.217  0.00  0.00    +0.000 A 
ENDBRANCH   1  24
BRANCH   1  31
ATOM     30  C   UNL     1       1.078   3.498  21.048  0.00  0.00    +0.000 C 
ATOM     31  C   UNL     1       1.231   4.635  20.053  0.00  0.00    +0.000 C 
ENDBRANCH   1  31
TORSDOF 9
ENDMDL
