MODEL 1
REMARK VINA RESULT:      -8.6      0.000      0.000
REMARK  Name = 
REMARK  10 active torsions:
REMARK  status: ('A' for Active; 'I' for Inactive)
REMARK    1  A    between atoms: C_1  and  C_2
REMARK    2  A    between atoms: C_2  and  O_3
REMARK    3  A    between atoms: O_3  and  C_4
REMARK    4  A    between atoms: C_9  and  N_10
REMARK    5  A    between atoms: N_13  and  C_14
REMARK    6  A    between atoms: N_22  and  C_23
REMARK    7  A    between atoms: C_23  and  C_24
REMARK    8  A    between atoms: N_28  and  C_29
REMARK    9  A    between atoms: C_29  and  C_30
REMARK   10  A    between atoms: C_30  and  C_31
REMARK                            x       y       z     vdW  Elec       q    Type
REMARK                         _______ _______ _______ _____ _____    ______ ____
ROOT
ATOM      1  C   UNL     1       2.428   6.078  20.044  0.00  0.00    +0.000 C 
ATOM      2  C   UNL     1       2.946   4.811  20.751  0.00  0.00    +0.000 C 
ATOM      3  C   UNL     1       3.430   3.666  19.837  0.00  0.00    +0.000 C 
ATOM      4  C   UNL     1       2.279   2.678  19.533  0.00  0.00    +0.000 C 
ATOM      5  C   UNL     1       1.417   3.005  18.313  0.00  0.00    +0.000 C 
ATOM      6  C   UNL     1       2.144   3.793  17.229  0.00  0.00    +0.000 C 
ATOM      7  C   UNL     1       3.108   4.854  17.791  0.00  0.00    +0.000 C 
ATOM      8  C   UNL     1       2.347   5.991  18.508  0.00  0.00    +0.000 C 
ATOM      9  N   UNL     1       4.082   4.098  18.585  0.00  0.00    +0.000 NA
ENDROOT
BRANCH   1  13
ATOM     10  N   UNL     1      -0.168   8.377  21.315  0.00  0.00    +0.000 N 
ATOM     11  C   UNL     1       1.111   7.936  21.001  0.00  0.00    +0.000 C 
ATOM     12  O   UNL     1       2.125   8.624  21.018  0.00  0.00    +0.000 OA
ATOM     13  N   UNL     1       1.179   6.598  20.628  0.00  0.00    +0.000 N 
ATOM     14  H   UNL     1      -0.826   7.706  21.683  0.00  0.00    +0.000 HD
ATOM     15  H   UNL     1       0.302   6.201  20.294  0.00  0.00    +0.000 HD
BRANCH  10  21
ATOM     16  C   UNL     1      -0.587  10.655  20.423  0.00  0.00    +0.000 A 
ATOM     17  C   UNL     1      -1.024  11.977  20.650  0.00  0.00    +0.000 A 
ATOM     18  C   UNL     1      -1.288  12.444  21.934  0.00  0.00    +0.000 A 
ATOM     19  C   UNL     1      -1.140  11.588  23.011  0.00  0.00    +0.000 A 
ATOM     20  C   UNL     1      -0.771  10.258  22.798  0.00  0.00    +0.000 A 
ATOM     21  C   UNL     1      -0.519   9.751  21.512  0.00  0.00    +0.000 A 
BRANCH  16  22
ATOM     22  O   UNL     1      -0.209  10.206  19.171  0.00  0.00    +0.000 OA
BRANCH  22  24
ATOM     23  C   UNL     1      -2.327   9.884  18.025  0.00  0.00    +0.000 C 
ATOM     24  C   UNL     1      -1.042  10.683  18.098  0.00  0.00    +0.000 C 
ENDBRANCH  22  24
ENDBRANCH  16  22
ENDBRANCH  10  21
ENDBRANCH   1  13
BRANCH   9  25
ATOM     25  C   UNL     1       5.391   4.748  18.787  0.00  0.00    +0.000 C 
BRANCH  25  26
ATOM     26  C   UNL     1       6.218   4.987  17.557  0.00  0.00    +0.000 A 
ATOM     27  N   UNL     1       6.147   4.236  16.470  0.00  0.00    +0.000 NA
ATOM     28  N   UNL     1       7.040   4.744  15.572  0.00  0.00    +0.000 NA
ATOM     29  N   UNL     1       7.665   5.792  16.076  0.00  0.00    +0.000 NA
ATOM     30  N   UNL     1       7.134   5.983  17.300  0.00  0.00    +0.000 N 
BRANCH  30  31
ATOM     31  C   UNL     1       7.626   7.092  18.087  0.00  0.00    +0.000 C 
BRANCH  31  32
ATOM     32  C   UNL     1       7.339   8.463  17.436  0.00  0.00    +0.000 C 
BRANCH  32  33
ATOM     33  C   UNL     1       8.193   9.566  18.018  0.00  0.00    +0.000 A 
ATOM     34  C   UNL     1       8.983   9.325  19.153  0.00  0.00    +0.000 A 
ATOM     35  C   UNL     1       9.695  10.364  19.755  0.00  0.00    +0.000 A 
ATOM     36  C   UNL     1       9.645  11.647  19.218  0.00  0.00    +0.000 A 
ATOM     37  C   UNL     1       8.912  11.884  18.055  0.00  0.00    +0.000 A 
ATOM     38  C   UNL     1       8.194  10.848  17.454  0.00  0.00    +0.000 A 
ENDBRANCH  32  33
ENDBRANCH  31  32
ENDBRANCH  30  31
ENDBRANCH  25  26
ENDBRANCH   9  25
TORSDOF 9
ENDMDL
MODEL 2
REMARK VINA RESULT:      -8.3      3.488      5.029
REMARK  Name = 
REMARK  10 active torsions:
REMARK  status: ('A' for Active; 'I' for Inactive)
REMARK    1  A    between atoms: C_1  and  C_2
REMARK    2  A    between atoms: C_2  and  O_3
REMARK    3  A    between atoms: O_3  and  C_4
REMARK    4  A    between atoms: C_9  and  N_10
REMARK    5  A    between atoms: N_13  and  C_14
REMARK    6  A    between atoms: N_22  and  C_23
REMARK    7  A    between atoms: C_23  and  C_24
REMARK    8  A    between atoms: N_28  and  C_29
REMARK    9  A    between atoms: C_29  and  C_30
REMARK   10  A    between atoms: C_30  and  C_31
REMARK                            x       y       z     vdW  Elec       q    Type
REMARK                         _______ _______ _______ _____ _____    ______ ____
ROOT
ATOM      1  C   UNL     1       2.592   6.477  18.551  0.00  0.00    +0.000 C 
ATOM      2  C   UNL     1       3.799   5.813  19.241  0.00  0.00    +0.000 C 
ATOM      3  C   UNL     1       3.851   4.272  19.198  0.00  0.00    +0.000 C 
ATOM      4  C   UNL     1       3.168   3.661  20.444  0.00  0.00    +0.000 C 
ATOM      5  C   UNL     1       1.665   3.404  20.329  0.00  0.00    +0.000 C 
ATOM      6  C   UNL     1       1.185   3.142  18.906  0.00  0.00    +0.000 C 
ATOM      7  C   UNL     1       1.895   4.014  17.854  0.00  0.00    +0.000 C 
ATOM      8  C   UNL     1       1.526   5.505  18.009  0.00  0.00    +0.000 C 
ATOM      9  N   UNL     1       3.314   3.662  17.966  0.00  0.00    +0.000 NA
ENDROOT
BRANCH   1  13
ATOM     10  N   UNL     1       1.040   9.685  19.520  0.00  0.00    +0.000 N 
ATOM     11  C   UNL     1       1.823   8.814  18.774  0.00  0.00    +0.000 C 
ATOM     12  O   UNL     1       2.337   9.068  17.691  0.00  0.00    +0.000 OA
ATOM     13  N   UNL     1       1.990   7.558  19.350  0.00  0.00    +0.000 N 
ATOM     14  H   UNL     1       1.026   9.571  20.523  0.00  0.00    +0.000 HD
ATOM     15  H   UNL     1       1.275   7.300  20.028  0.00  0.00    +0.000 HD
BRANCH  10  21
ATOM     16  C   UNL     1      -0.740  11.058  18.470  0.00  0.00    +0.000 A 
ATOM     17  C   UNL     1      -1.215  12.331  18.090  0.00  0.00    +0.000 A 
ATOM     18  C   UNL     1      -0.404  13.459  18.162  0.00  0.00    +0.000 A 
ATOM     19  C   UNL     1       0.891  13.336  18.637  0.00  0.00    +0.000 A 
ATOM     20  C   UNL     1       1.355  12.094  19.077  0.00  0.00    +0.000 A 
ATOM     21  C   UNL     1       0.553  10.941  19.038  0.00  0.00    +0.000 A 
BRANCH  16  22
ATOM     22  O   UNL     1      -1.489   9.908  18.297  0.00  0.00    +0.000 OA
BRANCH  22  24
ATOM     23  C   UNL     1      -2.734   9.751  16.217  0.00  0.00    +0.000 C 
ATOM     24  C   UNL     1      -2.773  10.128  17.684  0.00  0.00    +0.000 C 
ENDBRANCH  22  24
ENDBRANCH  16  22
ENDBRANCH  10  21
ENDBRANCH   1  13
BRANCH   9  25
ATOM     25  C   UNL     1       4.136   3.915  16.768  0.00  0.00    +0.000 C 
BRANCH  25  26
ATOM     26  C   UNL     1       5.581   4.250  17.004  0.00  0.00    +0.000 A 
ATOM     27  N   UNL     1       6.231   3.943  18.114  0.00  0.00    +0.000 NA
ATOM     28  N   UNL     1       7.506   4.407  17.974  0.00  0.00    +0.000 NA
ATOM     29  N   UNL     1       7.664   4.997  16.803  0.00  0.00    +0.000 NA
ATOM     30  N   UNL     1       6.482   4.870  16.167  0.00  0.00    +0.000 N 
BRANCH  30  31
ATOM     31  C   UNL     1       6.368   5.419  14.833  0.00  0.00    +0.000 C 
BRANCH  31  32
ATOM     32  C   UNL     1       7.215   4.649  13.795  0.00  0.00    +0.000 C 
BRANCH  32  33
ATOM     33  C   UNL     1       6.366   3.795  12.882  0.00  0.00    +0.000 A 
ATOM     34  C   UNL     1       6.952   2.758  12.138  0.00  0.00    +0.000 A 
ATOM     35  C   UNL     1       6.194   2.031  11.217  0.00  0.00    +0.000 A 
ATOM     36  C   UNL     1       4.842   2.316  11.046  0.00  0.00    +0.000 A 
ATOM     37  C   UNL     1       4.238   3.303  11.824  0.00  0.00    +0.000 A 
ATOM     38  C   UNL     1       4.994   4.036  12.741  0.00  0.00    +0.000 A 
ENDBRANCH  32  33
ENDBRANCH  31  32
ENDBRANCH  30  31
ENDBRANCH  25  26
ENDBRANCH   9  25
TORSDOF 9
ENDMDL
MODEL 3
REMARK VINA RESULT:      -8.2      2.950      5.208
REMARK  Name = 
REMARK  10 active torsions:
REMARK  status: ('A' for Active; 'I' for Inactive)
REMARK    1  A    between atoms: C_1  and  C_2
REMARK    2  A    between atoms: C_2  and  O_3
REMARK    3  A    between atoms: O_3  and  C_4
REMARK    4  A    between atoms: C_9  and  N_10
REMARK    5  A    between atoms: N_13  and  C_14
REMARK    6  A    between atoms: N_22  and  C_23
REMARK    7  A    between atoms: C_23  and  C_24
REMARK    8  A    between atoms: N_28  and  C_29
REMARK    9  A    between atoms: C_29  and  C_30
REMARK   10  A    between atoms: C_30  and  C_31
REMARK                            x       y       z     vdW  Elec       q    Type
REMARK                         _______ _______ _______ _____ _____    ______ ____
ROOT
ATOM      1  C   UNL     1       2.933   6.305  19.719  0.00  0.00    +0.000 C 
ATOM      2  C   UNL     1       3.188   5.028  20.542  0.00  0.00    +0.000 C 
ATOM      3  C   UNL     1       3.269   3.707  19.749  0.00  0.00    +0.000 C 
ATOM      4  C   UNL     1       1.883   3.029  19.662  0.00  0.00    +0.000 C 
ATOM      5  C   UNL     1       1.007   3.439  18.478  0.00  0.00    +0.000 C 
ATOM      6  C   UNL     1       1.789   3.892  17.250  0.00  0.00    +0.000 C 
ATOM      7  C   UNL     1       3.043   4.716  17.598  0.00  0.00    +0.000 C 
ATOM      8  C   UNL     1       2.672   6.081  18.217  0.00  0.00    +0.000 C 
ATOM      9  N   UNL     1       3.874   3.819  18.407  0.00  0.00    +0.000 NA
ENDROOT
BRANCH   1  13
ATOM     10  N   UNL     1       0.477   9.021  20.199  0.00  0.00    +0.000 N 
ATOM     11  C   UNL     1       1.595   8.381  19.680  0.00  0.00    +0.000 C 
ATOM     12  O   UNL     1       2.264   8.774  18.732  0.00  0.00    +0.000 OA
ATOM     13  N   UNL     1       1.923   7.192  20.322  0.00  0.00    +0.000 N 
ATOM     14  H   UNL     1       0.263   8.887  21.176  0.00  0.00    +0.000 HD
ATOM     15  H   UNL     1       1.157   6.754  20.832  0.00  0.00    +0.000 HD
BRANCH  10  21
ATOM     16  C   UNL     1      -0.136  11.425  20.151  0.00  0.00    +0.000 A 
ATOM     17  C   UNL     1      -0.715  12.509  19.458  0.00  0.00    +0.000 A 
ATOM     18  C   UNL     1      -1.417  12.319  18.271  0.00  0.00    +0.000 A 
ATOM     19  C   UNL     1      -1.532  11.042  17.747  0.00  0.00    +0.000 A 
ATOM     20  C   UNL     1      -0.909   9.968  18.387  0.00  0.00    +0.000 A 
ATOM     21  C   UNL     1      -0.176  10.132  19.574  0.00  0.00    +0.000 A 
BRANCH  16  22
ATOM     22  O   UNL     1       0.465  11.576  21.388  0.00  0.00    +0.000 OA
BRANCH  22  24
ATOM     23  C   UNL     1      -1.340  11.072  22.935  0.00  0.00    +0.000 C 
ATOM     24  C   UNL     1      -0.398  12.131  22.398  0.00  0.00    +0.000 C 
ENDBRANCH  22  24
ENDBRANCH  16  22
ENDBRANCH  10  21
ENDBRANCH   1  13
BRANCH   9  25
ATOM     25  C   UNL     1       5.317   4.121  18.426  0.00  0.00    +0.000 C 
BRANCH  25  26
ATOM     26  C   UNL     1       5.793   5.178  17.472  0.00  0.00    +0.000 A 
ATOM     27  N   UNL     1       6.005   6.437  17.819  0.00  0.00    +0.000 NA
ATOM     28  N   UNL     1       6.420   7.099  16.701  0.00  0.00    +0.000 NA
ATOM     29  N   UNL     1       6.470   6.281  15.665  0.00  0.00    +0.000 NA
ATOM     30  N   UNL     1       6.122   5.068  16.139  0.00  0.00    +0.000 N 
BRANCH  30  31
ATOM     31  C   UNL     1       6.107   3.957  15.211  0.00  0.00    +0.000 C 
BRANCH  31  32
ATOM     32  C   UNL     1       6.660   4.332  13.818  0.00  0.00    +0.000 C 
BRANCH  32  33
ATOM     33  C   UNL     1       6.003   3.545  12.708  0.00  0.00    +0.000 A 
ATOM     34  C   UNL     1       4.708   3.875  12.279  0.00  0.00    +0.000 A 
ATOM     35  C   UNL     1       4.056   3.091  11.325  0.00  0.00    +0.000 A 
ATOM     36  C   UNL     1       4.698   1.984  10.775  0.00  0.00    +0.000 A 
ATOM     37  C   UNL     1       6.007   1.684  11.150  0.00  0.00    +0.000 A 
ATOM     38  C   UNL     1       6.659   2.463  12.108  0.00  0.00    +0.000 A 
ENDBRANCH  32  33
ENDBRANCH  31  32
ENDBRANCH  30  31
ENDBRANCH  25  26
ENDBRANCH   9  25
TORSDOF 9
ENDMDL
MODEL 4
REMARK VINA RESULT:      -8.2      2.785      4.709
REMARK  Name = 
REMARK  10 active torsions:
REMARK  status: ('A' for Active; 'I' for Inactive)
REMARK    1  A    between atoms: C_1  and  C_2
REMARK    2  A    between atoms: C_2  and  O_3
REMARK    3  A    between atoms: O_3  and  C_4
REMARK    4  A    between atoms: C_9  and  N_10
REMARK    5  A    between atoms: N_13  and  C_14
REMARK    6  A    between atoms: N_22  and  C_23
REMARK    7  A    between atoms: C_23  and  C_24
REMARK    8  A    between atoms: N_28  and  C_29
REMARK    9  A    between atoms: C_29  and  C_30
REMARK   10  A    between atoms: C_30  and  C_31
REMARK                            x       y       z     vdW  Elec       q    Type
REMARK                         _______ _______ _______ _____ _____    ______ ____
ROOT
ATOM      1  C   UNL     1       2.343   5.717  19.855  0.00  0.00    +0.000 C 
ATOM      2  C   UNL     1       2.904   4.551  20.691  0.00  0.00    +0.000 C 
ATOM      3  C   UNL     1       3.433   3.334  19.904  0.00  0.00    +0.000 C 
ATOM      4  C   UNL     1       2.321   2.278  19.706  0.00  0.00    +0.000 C 
ATOM      5  C   UNL     1       1.452   2.443  18.458  0.00  0.00    +0.000 C 
ATOM      6  C   UNL     1       2.154   3.138  17.297  0.00  0.00    +0.000 C 
ATOM      7  C   UNL     1       3.077   4.287  17.744  0.00  0.00    +0.000 C 
ATOM      8  C   UNL     1       2.272   5.464  18.337  0.00  0.00    +0.000 C 
ATOM      9  N   UNL     1       4.075   3.655  18.614  0.00  0.00    +0.000 NA
ENDROOT
BRANCH   1  13
ATOM     10  N   UNL     1      -0.218   8.015  21.194  0.00  0.00    +0.000 N 
ATOM     11  C   UNL     1       1.055   7.518  20.949  0.00  0.00    +0.000 C 
ATOM     12  O   UNL     1       2.105   8.106  21.178  0.00  0.00    +0.000 OA
ATOM     13  N   UNL     1       1.074   6.249  20.380  0.00  0.00    +0.000 N 
ATOM     14  H   UNL     1      -0.958   7.355  21.382  0.00  0.00    +0.000 HD
ATOM     15  H   UNL     1       0.217   5.982  19.899  0.00  0.00    +0.000 HD
BRANCH  10  21
ATOM     16  C   UNL     1      -0.712  10.370  20.588  0.00  0.00    +0.000 A 
ATOM     17  C   UNL     1      -1.070  11.672  20.998  0.00  0.00    +0.000 A 
ATOM     18  C   UNL     1      -1.111  12.023  22.344  0.00  0.00    +0.000 A 
ATOM     19  C   UNL     1      -0.814  11.069  23.303  0.00  0.00    +0.000 A 
ATOM     20  C   UNL     1      -0.521   9.760  22.916  0.00  0.00    +0.000 A 
ATOM     21  C   UNL     1      -0.494   9.370  21.567  0.00  0.00    +0.000 A 
BRANCH  16  22
ATOM     22  O   UNL     1      -0.554  10.033  19.255  0.00  0.00    +0.000 OA
BRANCH  22  24
ATOM     23  C   UNL     1      -1.622   9.738  17.094  0.00  0.00    +0.000 C 
ATOM     24  C   UNL     1      -1.609  10.508  18.399  0.00  0.00    +0.000 C 
ENDBRANCH  22  24
ENDBRANCH  16  22
ENDBRANCH  10  21
ENDBRANCH   1  13
BRANCH   9  25
ATOM     25  C   UNL     1       5.358   4.370  18.746  0.00  0.00    +0.000 C 
BRANCH  25  26
ATOM     26  C   UNL     1       5.680   5.372  17.676  0.00  0.00    +0.000 A 
ATOM     27  N   UNL     1       5.730   6.677  17.886  0.00  0.00    +0.000 NA
ATOM     28  N   UNL     1       6.041   7.265  16.695  0.00  0.00    +0.000 NA
ATOM     29  N   UNL     1       6.186   6.356  15.748  0.00  0.00    +0.000 NA
ATOM     30  N   UNL     1       6.005   5.165  16.354  0.00  0.00    +0.000 N 
BRANCH  30  31
ATOM     31  C   UNL     1       6.125   3.969  15.547  0.00  0.00    +0.000 C 
BRANCH  31  32
ATOM     32  C   UNL     1       6.742   4.243  14.158  0.00  0.00    +0.000 C 
BRANCH  32  33
ATOM     33  C   UNL     1       5.977   3.564  13.045  0.00  0.00    +0.000 A 
ATOM     34  C   UNL     1       6.539   2.471  12.366  0.00  0.00    +0.000 A 
ATOM     35  C   UNL     1       5.884   1.903  11.272  0.00  0.00    +0.000 A 
ATOM     36  C   UNL     1       4.652   2.404  10.860  0.00  0.00    +0.000 A 
ATOM     37  C   UNL     1       4.057   3.450  11.565  0.00  0.00    +0.000 A 
ATOM     38  C   UNL     1       4.713   4.024  12.656  0.00  0.00    +0.000 A 
ENDBRANCH  32  33
ENDBRANCH  31  32
ENDBRANCH  30  31
ENDBRANCH  25  26
ENDBRANCH   9  25
TORSDOF 9
ENDMDL
MODEL 5
REMARK VINA RESULT:      -8.1      2.847      4.284
REMARK  Name = 
REMARK  10 active torsions:
REMARK  status: ('A' for Active; 'I' for Inactive)
REMARK    1  A    between atoms: C_1  and  C_2
REMARK    2  A    between atoms: C_2  and  O_3
REMARK    3  A    between atoms: O_3  and  C_4
REMARK    4  A    between atoms: C_9  and  N_10
REMARK    5  A    between atoms: N_13  and  C_14
REMARK    6  A    between atoms: N_22  and  C_23
REMARK    7  A    between atoms: C_23  and  C_24
REMARK    8  A    between atoms: N_28  and  C_29
REMARK    9  A    between atoms: C_29  and  C_30
REMARK   10  A    between atoms: C_30  and  C_31
REMARK                            x       y       z     vdW  Elec       q    Type
REMARK                         _______ _______ _______ _____ _____    ______ ____
ROOT
ATOM      1  C   UNL     1       2.156   6.999  19.965  0.00  0.00    +0.000 C 
ATOM      2  C   UNL     1       2.560   5.828  20.882  0.00  0.00    +0.000 C 
ATOM      3  C   UNL     1       3.130   4.576  20.185  0.00  0.00    +0.000 C 
ATOM      4  C   UNL     1       2.007   3.562  19.867  0.00  0.00    +0.000 C 
ATOM      5  C   UNL     1       1.305   3.735  18.520  0.00  0.00    +0.000 C 
ATOM      6  C   UNL     1       2.173   4.378  17.443  0.00  0.00    +0.000 C 
ATOM      7  C   UNL     1       3.082   5.498  17.983  0.00  0.00    +0.000 C 
ATOM      8  C   UNL     1       2.261   6.718  18.454  0.00  0.00    +0.000 C 
ATOM      9  N   UNL     1       3.938   4.844  18.979  0.00  0.00    +0.000 NA
ENDROOT
BRANCH   1  13
ATOM     10  N   UNL     1      -0.427   9.379  21.106  0.00  0.00    +0.000 N 
ATOM     11  C   UNL     1       0.828   8.790  21.028  0.00  0.00    +0.000 C 
ATOM     12  O   UNL     1       1.860   9.246  21.507  0.00  0.00    +0.000 OA
ATOM     13  N   UNL     1       0.856   7.592  20.322  0.00  0.00    +0.000 N 
ATOM     14  H   UNL     1      -1.237   8.777  21.080  0.00  0.00    +0.000 HD
ATOM     15  H   UNL     1       0.084   7.462  19.669  0.00  0.00    +0.000 HD
BRANCH  10  21
ATOM     16  C   UNL     1      -0.351  11.839  20.795  0.00  0.00    +0.000 A 
ATOM     17  C   UNL     1      -0.684  13.126  21.270  0.00  0.00    +0.000 A 
ATOM     18  C   UNL     1      -1.216  13.315  22.542  0.00  0.00    +0.000 A 
ATOM     19  C   UNL     1      -1.443  12.215  23.353  0.00  0.00    +0.000 A 
ATOM     20  C   UNL     1      -1.180  10.931  22.874  0.00  0.00    +0.000 A 
ATOM     21  C   UNL     1      -0.664  10.706  21.586  0.00  0.00    +0.000 A 
BRANCH  16  22
ATOM     22  O   UNL     1       0.283  11.641  19.583  0.00  0.00    +0.000 OA
BRANCH  22  24
ATOM     23  C   UNL     1       2.270  11.930  18.214  0.00  0.00    +0.000 C 
ATOM     24  C   UNL     1       1.479  12.424  19.408  0.00  0.00    +0.000 C 
ENDBRANCH  22  24
ENDBRANCH  16  22
ENDBRANCH  10  21
ENDBRANCH   1  13
BRANCH   9  25
ATOM     25  C   UNL     1       5.224   5.510  19.258  0.00  0.00    +0.000 C 
BRANCH  25  26
ATOM     26  C   UNL     1       6.402   5.060  18.444  0.00  0.00    +0.000 A 
ATOM     27  N   UNL     1       7.474   4.484  18.963  0.00  0.00    +0.000 NA
ATOM     28  N   UNL     1       8.330   4.224  17.933  0.00  0.00    +0.000 NA
ATOM     29  N   UNL     1       7.816   4.625  16.785  0.00  0.00    +0.000 NA
ATOM     30  N   UNL     1       6.594   5.112  17.081  0.00  0.00    +0.000 N 
BRANCH  30  31
ATOM     31  C   UNL     1       5.783   5.615  15.993  0.00  0.00    +0.000 C 
BRANCH  31  32
ATOM     32  C   UNL     1       5.071   4.491  15.207  0.00  0.00    +0.000 C 
BRANCH  32  33
ATOM     33  C   UNL     1       5.718   4.228  13.867  0.00  0.00    +0.000 A 
ATOM     34  C   UNL     1       5.134   3.325  12.966  0.00  0.00    +0.000 A 
ATOM     35  C   UNL     1       5.778   3.000  11.770  0.00  0.00    +0.000 A 
ATOM     36  C   UNL     1       6.998   3.591  11.452  0.00  0.00    +0.000 A 
ATOM     37  C   UNL     1       7.557   4.535  12.313  0.00  0.00    +0.000 A 
ATOM     38  C   UNL     1       6.918   4.857  13.512  0.00  0.00    +0.000 A 
ENDBRANCH  32  33
ENDBRANCH  31  32
ENDBRANCH  30  31
ENDBRANCH  25  26
ENDBRANCH   9  25
TORSDOF 9
ENDMDL
MODEL 6
REMARK VINA RESULT:      -8.0      1.401      2.302
REMARK  Name = 
REMARK  10 active torsions:
REMARK  status: ('A' for Active; 'I' for Inactive)
REMARK    1  A    between atoms: C_1  and  C_2
REMARK    2  A    between atoms: C_2  and  O_3
REMARK    3  A    between atoms: O_3  and  C_4
REMARK    4  A    between atoms: C_9  and  N_10
REMARK    5  A    between atoms: N_13  and  C_14
REMARK    6  A    between atoms: N_22  and  C_23
REMARK    7  A    between atoms: C_23  and  C_24
REMARK    8  A    between atoms: N_28  and  C_29
REMARK    9  A    between atoms: C_29  and  C_30
REMARK   10  A    between atoms: C_30  and  C_31
REMARK                            x       y       z     vdW  Elec       q    Type
REMARK                         _______ _______ _______ _____ _____    ______ ____
ROOT
ATOM      1  C   UNL     1       3.013   6.492  19.631  0.00  0.00    +0.000 C 
ATOM      2  C   UNL     1       3.286   5.238  20.483  0.00  0.00    +0.000 C 
ATOM      3  C   UNL     1       3.516   3.921  19.712  0.00  0.00    +0.000 C 
ATOM      4  C   UNL     1       2.188   3.152  19.522  0.00  0.00    +0.000 C 
ATOM      5  C   UNL     1       1.383   3.499  18.270  0.00  0.00    +0.000 C 
ATOM      6  C   UNL     1       2.228   3.997  17.103  0.00  0.00    +0.000 C 
ATOM      7  C   UNL     1       3.394   4.905  17.540  0.00  0.00    +0.000 C 
ATOM      8  C   UNL     1       2.886   6.244  18.115  0.00  0.00    +0.000 C 
ATOM      9  N   UNL     1       4.216   4.068  18.420  0.00  0.00    +0.000 NA
ENDROOT
BRANCH   1  13
ATOM     10  N   UNL     1       0.399   9.085  19.921  0.00  0.00    +0.000 N 
ATOM     11  C   UNL     1       1.596   8.512  19.511  0.00  0.00    +0.000 C 
ATOM     12  O   UNL     1       2.350   8.969  18.660  0.00  0.00    +0.000 OA
ATOM     13  N   UNL     1       1.903   7.312  20.145  0.00  0.00    +0.000 N 
ATOM     14  H   UNL     1       0.083   8.903  20.862  0.00  0.00    +0.000 HD
ATOM     15  H   UNL     1       1.104   6.824  20.548  0.00  0.00    +0.000 HD
BRANCH  10  21
ATOM     16  C   UNL     1       0.127  11.527  19.579  0.00  0.00    +0.000 A 
ATOM     17  C   UNL     1      -0.450  12.586  18.846  0.00  0.00    +0.000 A 
ATOM     18  C   UNL     1      -1.437  12.355  17.893  0.00  0.00    +0.000 A 
ATOM     19  C   UNL     1      -1.849  11.056  17.643  0.00  0.00    +0.000 A 
ATOM     20  C   UNL     1      -1.242   9.992  18.314  0.00  0.00    +0.000 A 
ATOM     21  C   UNL     1      -0.227  10.192  19.265  0.00  0.00    +0.000 A 
BRANCH  16  22
ATOM     22  O   UNL     1       1.024  11.745  20.609  0.00  0.00    +0.000 OA
BRANCH  22  24
ATOM     23  C   UNL     1       2.643  13.555  20.678  0.00  0.00    +0.000 C 
ATOM     24  C   UNL     1       1.212  13.133  20.943  0.00  0.00    +0.000 C 
ENDBRANCH  22  24
ENDBRANCH  16  22
ENDBRANCH  10  21
ENDBRANCH   1  13
BRANCH   9  25
ATOM     25  C   UNL     1       5.630   4.465  18.549  0.00  0.00    +0.000 C 
BRANCH  25  26
ATOM     26  C   UNL     1       6.337   4.849  17.281  0.00  0.00    +0.000 A 
ATOM     27  N   UNL     1       6.570   4.005  16.289  0.00  0.00    +0.000 NA
ATOM     28  N   UNL     1       7.232   4.699  15.318  0.00  0.00    +0.000 NA
ATOM     29  N   UNL     1       7.417   5.954  15.684  0.00  0.00    +0.000 NA
ATOM     30  N   UNL     1       6.827   6.075  16.890  0.00  0.00    +0.000 N 
BRANCH  30  31
ATOM     31  C   UNL     1       6.860   7.371  17.534  0.00  0.00    +0.000 C 
BRANCH  31  32
ATOM     32  C   UNL     1       8.202   7.651  18.246  0.00  0.00    +0.000 C 
BRANCH  32  33
ATOM     33  C   UNL     1       8.475   9.130  18.395  0.00  0.00    +0.000 A 
ATOM     34  C   UNL     1       7.948  10.043  17.469  0.00  0.00    +0.000 A 
ATOM     35  C   UNL     1       8.279  11.398  17.541  0.00  0.00    +0.000 A 
ATOM     36  C   UNL     1       9.119  11.858  18.552  0.00  0.00    +0.000 A 
ATOM     37  C   UNL     1       9.599  10.968  19.513  0.00  0.00    +0.000 A 
ATOM     38  C   UNL     1       9.275   9.612  19.439  0.00  0.00    +0.000 A 
ENDBRANCH  32  33
ENDBRANCH  31  32
ENDBRANCH  30  31
ENDBRANCH  25  26
ENDBRANCH   9  25
TORSDOF 9
ENDMDL
MODEL 7
REMARK VINA RESULT:      -8.0      2.813      8.017
REMARK  Name = 
REMARK  10 active torsions:
REMARK  status: ('A' for Active; 'I' for Inactive)
REMARK    1  A    between atoms: C_1  and  C_2
REMARK    2  A    between atoms: C_2  and  O_3
REMARK    3  A    between atoms: O_3  and  C_4
REMARK    4  A    between atoms: C_9  and  N_10
REMARK    5  A    between atoms: N_13  and  C_14
REMARK    6  A    between atoms: N_22  and  C_23
REMARK    7  A    between atoms: C_23  and  C_24
REMARK    8  A    between atoms: N_28  and  C_29
REMARK    9  A    between atoms: C_29  and  C_30
REMARK   10  A    between atoms: C_30  and  C_31
REMARK                            x       y       z     vdW  Elec       q    Type
REMARK                         _______ _______ _______ _____ _____    ______ ____
ROOT
ATOM      1  C   UNL     1       7.133   7.447  17.853  0.00  0.00    +0.000 C 
ATOM      2  C   UNL     1       5.633   7.320  17.527  0.00  0.00    +0.000 C 
ATOM      3  C   UNL     1       5.150   5.934  17.050  0.00  0.00    +0.000 C 
ATOM      4  C   UNL     1       5.200   5.834  15.507  0.00  0.00    +0.000 C 
ATOM      5  C   UNL     1       6.519   5.348  14.907  0.00  0.00    +0.000 C 
ATOM      6  C   UNL     1       7.323   4.434  15.826  0.00  0.00    +0.000 C 
ATOM      7  C   UNL     1       7.264   4.855  17.306  0.00  0.00    +0.000 C 
ATOM      8  C   UNL     1       7.984   6.200  17.543  0.00  0.00    +0.000 C 
ATOM      9  N   UNL     1       5.844   4.785  17.664  0.00  0.00    +0.000 NA
ENDROOT
BRANCH   1  13
ATOM     10  N   UNL     1       9.134  10.535  17.534  0.00  0.00    +0.000 N 
ATOM     11  C   UNL     1       8.400   9.544  18.172  0.00  0.00    +0.000 C 
ATOM     12  O   UNL     1       8.313   9.391  19.385  0.00  0.00    +0.000 OA
ATOM     13  N   UNL     1       7.742   8.673  17.309  0.00  0.00    +0.000 N 
ATOM     14  H   UNL     1       8.824  10.846  16.626  0.00  0.00    +0.000 HD
ATOM     15  H   UNL     1       8.131   8.628  16.368  0.00  0.00    +0.000 HD
BRANCH  10  21
ATOM     16  C   UNL     1       9.724  12.749  18.487  0.00  0.00    +0.000 A 
ATOM     17  C   UNL     1      10.629  13.543  19.221  0.00  0.00    +0.000 A 
ATOM     18  C   UNL     1      11.888  13.068  19.577  0.00  0.00    +0.000 A 
ATOM     19  C   UNL     1      12.253  11.781  19.222  0.00  0.00    +0.000 A 
ATOM     20  C   UNL     1      11.344  10.960  18.551  0.00  0.00    +0.000 A 
ATOM     21  C   UNL     1      10.059  11.403  18.198  0.00  0.00    +0.000 A 
BRANCH  16  22
ATOM     22  O   UNL     1       8.517  13.241  18.025  0.00  0.00    +0.000 OA
BRANCH  22  24
ATOM     23  C   UNL     1       6.954  15.101  18.050  0.00  0.00    +0.000 C 
ATOM     24  C   UNL     1       8.408  14.675  18.071  0.00  0.00    +0.000 C 
ENDBRANCH  22  24
ENDBRANCH  16  22
ENDBRANCH  10  21
ENDBRANCH   1  13
BRANCH   9  25
ATOM     25  C   UNL     1       5.549   4.606  19.098  0.00  0.00    +0.000 C 
BRANCH  25  26
ATOM     26  C   UNL     1       4.377   3.732  19.438  0.00  0.00    +0.000 A 
ATOM     27  N   UNL     1       4.493   2.473  19.829  0.00  0.00    +0.000 NA
ATOM     28  N   UNL     1       3.230   2.000  20.039  0.00  0.00    +0.000 NA
ATOM     29  N   UNL     1       2.332   2.935  19.787  0.00  0.00    +0.000 NA
ATOM     30  N   UNL     1       3.034   4.036  19.451  0.00  0.00    +0.000 N 
BRANCH  30  31
ATOM     31  C   UNL     1       2.296   5.240  19.135  0.00  0.00    +0.000 C 
BRANCH  31  32
ATOM     32  C   UNL     1       2.773   6.465  19.946  0.00  0.00    +0.000 C 
BRANCH  32  33
ATOM     33  C   UNL     1       2.054   7.734  19.548  0.00  0.00    +0.000 A 
ATOM     34  C   UNL     1       1.253   8.414  20.478  0.00  0.00    +0.000 A 
ATOM     35  C   UNL     1       0.506   9.528  20.090  0.00  0.00    +0.000 A 
ATOM     36  C   UNL     1       0.570   9.987  18.777  0.00  0.00    +0.000 A 
ATOM     37  C   UNL     1       1.409   9.355  17.861  0.00  0.00    +0.000 A 
ATOM     38  C   UNL     1       2.153   8.237  18.245  0.00  0.00    +0.000 A 
ENDBRANCH  32  33
ENDBRANCH  31  32
ENDBRANCH  30  31
ENDBRANCH  25  26
ENDBRANCH   9  25
TORSDOF 9
ENDMDL
MODEL 8
REMARK VINA RESULT:      -7.8      2.689      4.042
REMARK  Name = 
REMARK  10 active torsions:
REMARK  status: ('A' for Active; 'I' for Inactive)
REMARK    1  A    between atoms: C_1  and  C_2
REMARK    2  A    between atoms: C_2  and  O_3
REMARK    3  A    between atoms: O_3  and  C_4
REMARK    4  A    between atoms: C_9  and  N_10
REMARK    5  A    between atoms: N_13  and  C_14
REMARK    6  A    between atoms: N_22  and  C_23
REMARK    7  A    between atoms: C_23  and  C_24
REMARK    8  A    between atoms: N_28  and  C_29
REMARK    9  A    between atoms: C_29  and  C_30
REMARK   10  A    between atoms: C_30  and  C_31
REMARK                            x       y       z     vdW  Elec       q    Type
REMARK                         _______ _______ _______ _____ _____    ______ ____
ROOT
ATOM      1  C   UNL     1       2.185   6.089  20.330  0.00  0.00    +0.000 C 
ATOM      2  C   UNL     1       2.589   4.772  21.021  0.00  0.00    +0.000 C 
ATOM      3  C   UNL     1       3.069   3.633  20.098  0.00  0.00    +0.000 C 
ATOM      4  C   UNL     1       1.890   2.721  19.687  0.00  0.00    +0.000 C 
ATOM      5  C   UNL     1       1.126   3.134  18.430  0.00  0.00    +0.000 C 
ATOM      6  C   UNL     1       1.961   3.916  17.422  0.00  0.00    +0.000 C 
ATOM      7  C   UNL     1       2.942   4.904  18.081  0.00  0.00    +0.000 C 
ATOM      8  C   UNL     1       2.198   6.056  18.790  0.00  0.00    +0.000 C 
ATOM      9  N   UNL     1       3.822   4.070  18.905  0.00  0.00    +0.000 NA
ENDROOT
BRANCH   1  13
ATOM     10  N   UNL     1      -0.387   8.488  21.456  0.00  0.00    +0.000 N 
ATOM     11  C   UNL     1       0.889   8.003  21.201  0.00  0.00    +0.000 C 
ATOM     12  O   UNL     1       1.923   8.659  21.248  0.00  0.00    +0.000 OA
ATOM     13  N   UNL     1       0.931   6.656  20.854  0.00  0.00    +0.000 N 
ATOM     14  H   UNL     1      -1.080   7.844  21.807  0.00  0.00    +0.000 HD
ATOM     15  H   UNL     1       0.056   6.281  20.491  0.00  0.00    +0.000 HD
BRANCH  10  21
ATOM     16  C   UNL     1      -0.932  10.710  20.495  0.00  0.00    +0.000 A 
ATOM     17  C   UNL     1      -1.328  12.048  20.699  0.00  0.00    +0.000 A 
ATOM     18  C   UNL     1      -1.396  12.598  21.976  0.00  0.00    +0.000 A 
ATOM     19  C   UNL     1      -1.089  11.809  23.072  0.00  0.00    +0.000 A 
ATOM     20  C   UNL     1      -0.758  10.464  22.890  0.00  0.00    +0.000 A 
ATOM     21  C   UNL     1      -0.702   9.875  21.616  0.00  0.00    +0.000 A 
BRANCH  16  22
ATOM     22  O   UNL     1      -0.746  10.180  19.231  0.00  0.00    +0.000 OA
BRANCH  22  24
ATOM     23  C   UNL     1       1.511  10.747  18.535  0.00  0.00    +0.000 C 
ATOM     24  C   UNL     1       0.031  11.013  18.350  0.00  0.00    +0.000 C 
ENDBRANCH  22  24
ENDBRANCH  16  22
ENDBRANCH  10  21
ENDBRANCH   1  13
BRANCH   9  25
ATOM     25  C   UNL     1       5.147   4.640  19.212  0.00  0.00    +0.000 C 
BRANCH  25  26
ATOM     26  C   UNL     1       5.675   5.664  18.249  0.00  0.00    +0.000 A 
ATOM     27  N   UNL     1       5.464   6.964  18.376  0.00  0.00    +0.000 NA
ATOM     28  N   UNL     1       6.082   7.576  17.324  0.00  0.00    +0.000 NA
ATOM     29  N   UNL     1       6.671   6.686  16.546  0.00  0.00    +0.000 NA
ATOM     30  N   UNL     1       6.462   5.491  17.133  0.00  0.00    +0.000 N 
BRANCH  30  31
ATOM     31  C   UNL     1       7.020   4.317  16.497  0.00  0.00    +0.000 C 
BRANCH  31  32
ATOM     32  C   UNL     1       6.053   3.669  15.481  0.00  0.00    +0.000 C 
BRANCH  32  33
ATOM     33  C   UNL     1       6.455   3.941  14.050  0.00  0.00    +0.000 A 
ATOM     34  C   UNL     1       7.492   4.843  13.767  0.00  0.00    +0.000 A 
ATOM     35  C   UNL     1       7.801   5.176  12.446  0.00  0.00    +0.000 A 
ATOM     36  C   UNL     1       7.094   4.595  11.397  0.00  0.00    +0.000 A 
ATOM     37  C   UNL     1       6.102   3.653  11.666  0.00  0.00    +0.000 A 
ATOM     38  C   UNL     1       5.787   3.322  12.986  0.00  0.00    +0.000 A 
ENDBRANCH  32  33
ENDBRANCH  31  32
ENDBRANCH  30  31
ENDBRANCH  25  26
ENDBRANCH   9  25
TORSDOF 9
ENDMDL
MODEL 9
REMARK VINA RESULT:      -7.8      3.179      5.017
REMARK  Name = 
REMARK  10 active torsions:
REMARK  status: ('A' for Active; 'I' for Inactive)
REMARK    1  A    between atoms: C_1  and  C_2
REMARK    2  A    between atoms: C_2  and  O_3
REMARK    3  A    between atoms: O_3  and  C_4
REMARK    4  A    between atoms: C_9  and  N_10
REMARK    5  A    between atoms: N_13  and  C_14
REMARK    6  A    between atoms: N_22  and  C_23
REMARK    7  A    between atoms: C_23  and  C_24
REMARK    8  A    between atoms: N_28  and  C_29
REMARK    9  A    between atoms: C_29  and  C_30
REMARK   10  A    between atoms: C_30  and  C_31
REMARK                            x       y       z     vdW  Elec       q    Type
REMARK                         _______ _______ _______ _____ _____    ______ ____
ROOT
ATOM      1  C   UNL     1       2.750   6.389  19.487  0.00  0.00    +0.000 C 
ATOM      2  C   UNL     1       3.053   5.234  20.461  0.00  0.00    +0.000 C 
ATOM      3  C   UNL     1       3.199   3.831  19.837  0.00  0.00    +0.000 C 
ATOM      4  C   UNL     1       1.844   3.086  19.829  0.00  0.00    +0.000 C 
ATOM      5  C   UNL     1       0.961   3.310  18.600  0.00  0.00    +0.000 C 
ATOM      6  C   UNL     1       1.735   3.642  17.329  0.00  0.00    +0.000 C 
ATOM      7  C   UNL     1       2.948   4.558  17.577  0.00  0.00    +0.000 C 
ATOM      8  C   UNL     1       2.513   5.970  18.023  0.00  0.00    +0.000 C 
ATOM      9  N   UNL     1       3.810   3.804  18.494  0.00  0.00    +0.000 NA
ENDROOT
BRANCH   1  13
ATOM     10  N   UNL     1       0.503   9.298  19.831  0.00  0.00    +0.000 N 
ATOM     11  C   UNL     1       1.658   8.604  19.497  0.00  0.00    +0.000 C 
ATOM     12  O   UNL     1       2.587   9.046  18.833  0.00  0.00    +0.000 OA
ATOM     13  N   UNL     1       1.698   7.297  19.973  0.00  0.00    +0.000 N 
ATOM     14  H   UNL     1       0.025   9.045  20.684  0.00  0.00    +0.000 HD
ATOM     15  H   UNL     1       0.788   6.892  20.188  0.00  0.00    +0.000 HD
BRANCH  10  21
ATOM     16  C   UNL     1      -1.049  10.727  18.525  0.00  0.00    +0.000 A 
ATOM     17  C   UNL     1      -1.415  12.014  18.075  0.00  0.00    +0.000 A 
ATOM     18  C   UNL     1      -0.581  13.112  18.264  0.00  0.00    +0.000 A 
ATOM     19  C   UNL     1       0.623  12.945  18.926  0.00  0.00    +0.000 A 
ATOM     20  C   UNL     1       0.970  11.691  19.433  0.00  0.00    +0.000 A 
ATOM     21  C   UNL     1       0.140  10.568  19.279  0.00  0.00    +0.000 A 
BRANCH  16  22
ATOM     22  O   UNL     1      -1.808   9.605  18.247  0.00  0.00    +0.000 OA
BRANCH  22  24
ATOM     23  C   UNL     1      -2.793   9.799  16.035  0.00  0.00    +0.000 C 
ATOM     24  C   UNL     1      -3.026   9.879  17.530  0.00  0.00    +0.000 C 
ENDBRANCH  22  24
ENDBRANCH  16  22
ENDBRANCH  10  21
ENDBRANCH   1  13
BRANCH   9  25
ATOM     25  C   UNL     1       5.239   4.170  18.481  0.00  0.00    +0.000 C 
BRANCH  25  26
ATOM     26  C   UNL     1       5.658   5.197  17.469  0.00  0.00    +0.000 A 
ATOM     27  N   UNL     1       5.943   6.452  17.776  0.00  0.00    +0.000 NA
ATOM     28  N   UNL     1       6.273   7.085  16.613  0.00  0.00    +0.000 NA
ATOM     29  N   UNL     1       6.200   6.253  15.590  0.00  0.00    +0.000 NA
ATOM     30  N   UNL     1       5.858   5.059  16.114  0.00  0.00    +0.000 N 
BRANCH  30  31
ATOM     31  C   UNL     1       5.720   3.937  15.210  0.00  0.00    +0.000 C 
BRANCH  31  32
ATOM     32  C   UNL     1       5.276   4.361  13.792  0.00  0.00    +0.000 C 
BRANCH  32  33
ATOM     33  C   UNL     1       5.878   3.488  12.716  0.00  0.00    +0.000 A 
ATOM     34  C   UNL     1       5.094   2.518  12.073  0.00  0.00    +0.000 A 
ATOM     35  C   UNL     1       5.668   1.640  11.150  0.00  0.00    +0.000 A 
ATOM     36  C   UNL     1       7.023   1.738  10.844  0.00  0.00    +0.000 A 
ATOM     37  C   UNL     1       7.797   2.738  11.433  0.00  0.00    +0.000 A 
ATOM     38  C   UNL     1       7.227   3.613  12.360  0.00  0.00    +0.000 A 
ENDBRANCH  32  33
ENDBRANCH  31  32
ENDBRANCH  30  31
ENDBRANCH  25  26
ENDBRANCH   9  25
TORSDOF 9
ENDMDL
