MODEL 1
REMARK VINA RESULT:      -7.4      0.000      0.000
REMARK  Name = 
REMARK  4 active torsions:
REMARK  status: ('A' for Active; 'I' for Inactive)
REMARK    1  A    between atoms: N_1  and  S_2
REMARK    2  A    between atoms: S_2  and  C_5
REMARK    3  A    between atoms: C_8  and  C_9
REMARK    4  A    between atoms: C_9  and  N_10
REMARK                            x       y       z     vdW  Elec       q    Type
REMARK                         _______ _______ _______ _____ _____    ______ ____
ROOT
ATOM      1  C   UNL     1       5.651   5.343  17.259  0.00  0.00    +0.000 A 
ATOM      2  C   UNL     1       5.337   4.784  18.499  0.00  0.00    +0.000 A 
ATOM      3  C   UNL     1       4.271   5.311  19.234  0.00  0.00    +0.000 A 
ATOM      4  C   UNL     1       3.518   6.389  18.735  0.00  0.00    +0.000 A 
ATOM      5  C   UNL     1       3.872   6.957  17.501  0.00  0.00    +0.000 A 
ATOM      6  C   UNL     1       4.936   6.436  16.767  0.00  0.00    +0.000 A 
ENDROOT
BRANCH   1   7
ATOM      7  S   UNL     1       7.003   4.709  16.307  0.00  0.00    +0.000 S 
ATOM      8  O   UNL     1       8.024   4.208  17.194  0.00  0.00    +0.000 OA
ATOM      9  O   UNL     1       7.294   5.630  15.231  0.00  0.00    +0.000 OA
BRANCH   7  10
ATOM     10  N   UNL     1       6.305   3.368  15.576  0.00  0.00    +0.000 NA
ATOM     11  H   UNL     1       5.409   3.637  15.166  0.00  0.00    +0.000 HD
ATOM     12  H   UNL     1       6.237   2.597  16.239  0.00  0.00    +0.000 HD
ENDBRANCH   7  10
ENDBRANCH   1   7
BRANCH   4  13
ATOM     13  C   UNL     1       2.361   6.950  19.530  0.00  0.00    +0.000 C 
BRANCH  13  14
ATOM     14  N   UNL     1       2.034   8.272  19.034  0.00  0.00    +0.000 N 
ATOM     15  C   UNL     1       1.131   9.003  19.785  0.00  0.00    +0.000 A 
ATOM     16  N   UNL     1       1.061   8.828  21.095  0.00  0.00    +0.000 NA
ATOM     17  C   UNL     1       0.202   9.625  21.713  0.00  0.00    +0.000 A 
ATOM     18 CL   UNL     1       0.096   9.442  23.409  0.00  0.00    +0.000 Cl
ATOM     19  N   UNL     1      -0.585  10.541  21.178  0.00  0.00    +0.000 NA
ATOM     20  C   UNL     1      -0.422  10.600  19.875  0.00  0.00    +0.000 A 
ATOM     21 CL   UNL     1      -1.381  11.748  19.048  0.00  0.00    +0.000 Cl
ATOM     22  N   UNL     1       0.394   9.871  19.115  0.00  0.00    +0.000 NA
ATOM     23  H   UNL     1       1.762   8.316  18.058  0.00  0.00    +0.000 HD
ENDBRANCH  13  14
ENDBRANCH   4  13
TORSDOF 4
ENDMDL
MODEL 2
REMARK VINA RESULT:      -7.4      0.054      1.084
REMARK  Name = 
REMARK  4 active torsions:
REMARK  status: ('A' for Active; 'I' for Inactive)
REMARK    1  A    between atoms: N_1  and  S_2
REMARK    2  A    between atoms: S_2  and  C_5
REMARK    3  A    between atoms: C_8  and  C_9
REMARK    4  A    between atoms: C_9  and  N_10
REMARK                            x       y       z     vdW  Elec       q    Type
REMARK                         _______ _______ _______ _____ _____    ______ ____
ROOT
ATOM      1  C   UNL     1       5.678   5.381  17.240  0.00  0.00    +0.000 A 
ATOM      2  C   UNL     1       4.881   6.387  16.693  0.00  0.00    +0.000 A 
ATOM      3  C   UNL     1       3.815   6.896  17.442  0.00  0.00    +0.000 A 
ATOM      4  C   UNL     1       3.548   6.408  18.733  0.00  0.00    +0.000 A 
ATOM      5  C   UNL     1       4.342   5.373  19.251  0.00  0.00    +0.000 A 
ATOM      6  C   UNL     1       5.404   4.861  18.506  0.00  0.00    +0.000 A 
ENDROOT
BRANCH   1   7
ATOM      7  S   UNL     1       7.028   4.704  16.315  0.00  0.00    +0.000 S 
ATOM      8  O   UNL     1       8.032   4.206  17.223  0.00  0.00    +0.000 OA
ATOM      9  O   UNL     1       7.345   5.596  15.222  0.00  0.00    +0.000 OA
BRANCH   7  10
ATOM     10  N   UNL     1       6.315   3.359  15.607  0.00  0.00    +0.000 NA
ATOM     11  H   UNL     1       7.029   2.648  15.441  0.00  0.00    +0.000 HD
ATOM     12  H   UNL     1       5.802   3.628  14.769  0.00  0.00    +0.000 HD
ENDBRANCH   7  10
ENDBRANCH   1   7
BRANCH   4  13
ATOM     13  C   UNL     1       2.399   6.967  19.543  0.00  0.00    +0.000 C 
BRANCH  13  14
ATOM     14  N   UNL     1       2.056   8.283  19.043  0.00  0.00    +0.000 N 
ATOM     15  C   UNL     1       1.145   9.005  19.794  0.00  0.00    +0.000 A 
ATOM     16  N   UNL     1       1.079   8.833  21.105  0.00  0.00    +0.000 NA
ATOM     17  C   UNL     1       0.212   9.621  21.722  0.00  0.00    +0.000 A 
ATOM     18 CL   UNL     1       0.111   9.443  23.418  0.00  0.00    +0.000 Cl
ATOM     19  N   UNL     1      -0.587  10.526  21.185  0.00  0.00    +0.000 NA
ATOM     20  C   UNL     1      -0.426  10.583  19.882  0.00  0.00    +0.000 A 
ATOM     21 CL   UNL     1      -1.400  11.718  19.053  0.00  0.00    +0.000 Cl
ATOM     22  N   UNL     1       0.398   9.863  19.123  0.00  0.00    +0.000 NA
ATOM     23  H   UNL     1       1.783   8.321  18.067  0.00  0.00    +0.000 HD
ENDBRANCH  13  14
ENDBRANCH   4  13
TORSDOF 4
ENDMDL
MODEL 3
REMARK VINA RESULT:      -7.2      0.798      1.481
REMARK  Name = 
REMARK  4 active torsions:
REMARK  status: ('A' for Active; 'I' for Inactive)
REMARK    1  A    between atoms: N_1  and  S_2
REMARK    2  A    between atoms: S_2  and  C_5
REMARK    3  A    between atoms: C_8  and  C_9
REMARK    4  A    between atoms: C_9  and  N_10
REMARK                            x       y       z     vdW  Elec       q    Type
REMARK                         _______ _______ _______ _____ _____    ______ ____
ROOT
ATOM      1  C   UNL     1       5.607   5.235  17.318  0.00  0.00    +0.000 A 
ATOM      2  C   UNL     1       4.916   6.342  16.823  0.00  0.00    +0.000 A 
ATOM      3  C   UNL     1       3.868   6.884  17.573  0.00  0.00    +0.000 A 
ATOM      4  C   UNL     1       3.511   6.328  18.814  0.00  0.00    +0.000 A 
ATOM      5  C   UNL     1       4.198   5.195  19.278  0.00  0.00    +0.000 A 
ATOM      6  C   UNL     1       5.241   4.650  18.532  0.00  0.00    +0.000 A 
ENDROOT
BRANCH   1   7
ATOM      7  S   UNL     1       6.931   4.515  16.389  0.00  0.00    +0.000 S 
ATOM      8  O   UNL     1       6.397   3.547  15.461  0.00  0.00    +0.000 OA
ATOM      9  O   UNL     1       8.024   4.209  17.284  0.00  0.00    +0.000 OA
BRANCH   7  10
ATOM     10  N   UNL     1       7.451   5.821  15.470  0.00  0.00    +0.000 NA
ATOM     11  H   UNL     1       8.466   5.776  15.368  0.00  0.00    +0.000 HD
ATOM     12  H   UNL     1       7.118   6.695  15.875  0.00  0.00    +0.000 HD
ENDBRANCH   7  10
ENDBRANCH   1   7
BRANCH   4  13
ATOM     13  C   UNL     1       2.382   6.922  19.626  0.00  0.00    +0.000 C 
BRANCH  13  14
ATOM     14  N   UNL     1       2.058   8.236  19.107  0.00  0.00    +0.000 N 
ATOM     15  C   UNL     1       1.147   8.977  19.839  0.00  0.00    +0.000 A 
ATOM     16  N   UNL     1       1.065   8.821  21.151  0.00  0.00    +0.000 NA
ATOM     17  C   UNL     1       0.199   9.625  21.750  0.00  0.00    +0.000 A 
ATOM     18 CL   UNL     1       0.078   9.467  23.446  0.00  0.00    +0.000 Cl
ATOM     19  N   UNL     1      -0.584  10.532  21.193  0.00  0.00    +0.000 NA
ATOM     20  C   UNL     1      -0.409  10.572  19.892  0.00  0.00    +0.000 A 
ATOM     21 CL   UNL     1      -1.362  11.706  19.039  0.00  0.00    +0.000 Cl
ATOM     22  N   UNL     1       0.416   9.834  19.150  0.00  0.00    +0.000 NA
ATOM     23  H   UNL     1       1.796   8.265  18.128  0.00  0.00    +0.000 HD
ENDBRANCH  13  14
ENDBRANCH   4  13
TORSDOF 4
ENDMDL
MODEL 4
REMARK VINA RESULT:      -7.1      0.832      1.041
REMARK  Name = 
REMARK  4 active torsions:
REMARK  status: ('A' for Active; 'I' for Inactive)
REMARK    1  A    between atoms: N_1  and  S_2
REMARK    2  A    between atoms: S_2  and  C_5
REMARK    3  A    between atoms: C_8  and  C_9
REMARK    4  A    between atoms: C_9  and  N_10
REMARK                            x       y       z     vdW  Elec       q    Type
REMARK                         _______ _______ _______ _____ _____    ______ ____
ROOT
ATOM      1  C   UNL     1       5.553   5.329  17.510  0.00  0.00    +0.000 A 
ATOM      2  C   UNL     1       5.231   4.841  18.778  0.00  0.00    +0.000 A 
ATOM      3  C   UNL     1       4.158   5.406  19.473  0.00  0.00    +0.000 A 
ATOM      4  C   UNL     1       3.405   6.450  18.906  0.00  0.00    +0.000 A 
ATOM      5  C   UNL     1       3.766   6.947  17.644  0.00  0.00    +0.000 A 
ATOM      6  C   UNL     1       4.838   6.388  16.949  0.00  0.00    +0.000 A 
ENDROOT
BRANCH   1   7
ATOM      7  S   UNL     1       6.915   4.646  16.606  0.00  0.00    +0.000 S 
ATOM      8  O   UNL     1       6.423   3.687  15.647  0.00  0.00    +0.000 OA
ATOM      9  O   UNL     1       7.986   4.340  17.527  0.00  0.00    +0.000 OA
BRANCH   7  10
ATOM     10  N   UNL     1       7.441   5.975  15.726  0.00  0.00    +0.000 NA
ATOM     11  H   UNL     1       7.680   6.731  16.370  0.00  0.00    +0.000 HD
ATOM     12  H   UNL     1       6.747   6.236  15.027  0.00  0.00    +0.000 HD
ENDBRANCH   7  10
ENDBRANCH   1   7
BRANCH   4  13
ATOM     13  C   UNL     1       2.240   7.053  19.658  0.00  0.00    +0.000 C 
BRANCH  13  14
ATOM     14  N   UNL     1       1.978   8.384  19.151  0.00  0.00    +0.000 N 
ATOM     15  C   UNL     1       1.058   9.139  19.856  0.00  0.00    +0.000 A 
ATOM     16  N   UNL     1       0.913   8.963  21.160  0.00  0.00    +0.000 NA
ATOM     17  C   UNL     1       0.046   9.782  21.735  0.00  0.00    +0.000 A 
ATOM     18 CL   UNL     1      -0.155   9.599  23.422  0.00  0.00    +0.000 Cl
ATOM     19  N   UNL     1      -0.685  10.722  21.163  0.00  0.00    +0.000 NA
ATOM     20  C   UNL     1      -0.451  10.780  19.871  0.00  0.00    +0.000 A 
ATOM     21 CL   UNL     1      -1.331  11.958  18.999  0.00  0.00    +0.000 Cl
ATOM     22  N   UNL     1       0.384  10.031  19.153  0.00  0.00    +0.000 NA
ATOM     23  H   UNL     1       1.760   8.439  18.162  0.00  0.00    +0.000 HD
ENDBRANCH  13  14
ENDBRANCH   4  13
TORSDOF 4
ENDMDL
MODEL 5
REMARK VINA RESULT:      -6.9      5.370      7.441
REMARK  Name = 
REMARK  4 active torsions:
REMARK  status: ('A' for Active; 'I' for Inactive)
REMARK    1  A    between atoms: N_1  and  S_2
REMARK    2  A    between atoms: S_2  and  C_5
REMARK    3  A    between atoms: C_8  and  C_9
REMARK    4  A    between atoms: C_9  and  N_10
REMARK                            x       y       z     vdW  Elec       q    Type
REMARK                         _______ _______ _______ _____ _____    ______ ____
ROOT
ATOM      1  C   UNL     1       1.669   8.543  19.017  0.00  0.00    +0.000 A 
ATOM      2  C   UNL     1       1.495   7.931  20.259  0.00  0.00    +0.000 A 
ATOM      3  C   UNL     1       2.042   6.663  20.477  0.00  0.00    +0.000 A 
ATOM      4  C   UNL     1       2.762   6.007  19.464  0.00  0.00    +0.000 A 
ATOM      5  C   UNL     1       2.897   6.626  18.211  0.00  0.00    +0.000 A 
ATOM      6  C   UNL     1       2.351   7.890  17.988  0.00  0.00    +0.000 A 
ENDROOT
BRANCH   1   7
ATOM      7  S   UNL     1       0.980  10.143  18.701  0.00  0.00    +0.000 S 
ATOM      8  O   UNL     1       1.102  10.961  19.883  0.00  0.00    +0.000 OA
ATOM      9  O   UNL     1      -0.270   9.986  17.992  0.00  0.00    +0.000 OA
BRANCH   7  10
ATOM     10  N   UNL     1       2.062  10.764  17.576  0.00  0.00    +0.000 NA
ATOM     11  H   UNL     1       2.964  10.918  18.028  0.00  0.00    +0.000 HD
ATOM     12  H   UNL     1       1.676  11.597  17.135  0.00  0.00    +0.000 HD
ENDBRANCH   7  10
ENDBRANCH   1   7
BRANCH   4  13
ATOM     13  C   UNL     1       3.358   4.639  19.707  0.00  0.00    +0.000 C 
BRANCH  13  14
ATOM     14  N   UNL     1       3.807   4.080  18.448  0.00  0.00    +0.000 N 
ATOM     15  C   UNL     1       5.075   4.445  18.032  0.00  0.00    +0.000 A 
ATOM     16  N   UNL     1       6.012   4.725  18.924  0.00  0.00    +0.000 NA
ATOM     17  C   UNL     1       7.200   5.004  18.408  0.00  0.00    +0.000 A 
ATOM     18 CL   UNL     1       8.442   5.352  19.528  0.00  0.00    +0.000 Cl
ATOM     19  N   UNL     1       7.540   5.049  17.132  0.00  0.00    +0.000 NA
ATOM     20  C   UNL     1       6.515   4.764  16.360  0.00  0.00    +0.000 A 
ATOM     21 CL   UNL     1       6.812   4.784  14.677  0.00  0.00    +0.000 Cl
ATOM     22  N   UNL     1       5.269   4.465  16.726  0.00  0.00    +0.000 NA
ATOM     23  H   UNL     1       3.163   4.182  17.671  0.00  0.00    +0.000 HD
ENDBRANCH  13  14
ENDBRANCH   4  13
TORSDOF 4
ENDMDL
MODEL 6
REMARK VINA RESULT:      -6.9      5.373      7.476
REMARK  Name = 
REMARK  4 active torsions:
REMARK  status: ('A' for Active; 'I' for Inactive)
REMARK    1  A    between atoms: N_1  and  S_2
REMARK    2  A    between atoms: S_2  and  C_5
REMARK    3  A    between atoms: C_8  and  C_9
REMARK    4  A    between atoms: C_9  and  N_10
REMARK                            x       y       z     vdW  Elec       q    Type
REMARK                         _______ _______ _______ _____ _____    ______ ____
ROOT
ATOM      1  C   UNL     1       1.691   8.564  18.970  0.00  0.00    +0.000 A 
ATOM      2  C   UNL     1       2.282   7.853  17.924  0.00  0.00    +0.000 A 
ATOM      3  C   UNL     1       2.819   6.588  18.178  0.00  0.00    +0.000 A 
ATOM      4  C   UNL     1       2.765   6.030  19.468  0.00  0.00    +0.000 A 
ATOM      5  C   UNL     1       2.195   6.776  20.512  0.00  0.00    +0.000 A 
ATOM      6  C   UNL     1       1.661   8.039  20.263  0.00  0.00    +0.000 A 
ENDROOT
BRANCH   1   7
ATOM      7  S   UNL     1       1.012  10.175  18.688  0.00  0.00    +0.000 S 
ATOM      8  O   UNL     1       1.146  10.970  19.884  0.00  0.00    +0.000 OA
ATOM      9  O   UNL     1      -0.243  10.041  17.983  0.00  0.00    +0.000 OA
BRANCH   7  10
ATOM     10  N   UNL     1       2.092  10.809  17.569  0.00  0.00    +0.000 NA
ATOM     11  H   UNL     1       2.837  11.302  18.064  0.00  0.00    +0.000 HD
ATOM     12  H   UNL     1       1.600  11.386  16.888  0.00  0.00    +0.000 HD
ENDBRANCH   7  10
ENDBRANCH   1   7
BRANCH   4  13
ATOM     13  C   UNL     1       3.341   4.658  19.736  0.00  0.00    +0.000 C 
BRANCH  13  14
ATOM     14  N   UNL     1       3.807   4.082  18.491  0.00  0.00    +0.000 N 
ATOM     15  C   UNL     1       5.078   4.447  18.084  0.00  0.00    +0.000 A 
ATOM     16  N   UNL     1       6.004   4.746  18.983  0.00  0.00    +0.000 NA
ATOM     17  C   UNL     1       7.196   5.023  18.477  0.00  0.00    +0.000 A 
ATOM     18 CL   UNL     1       8.422   5.395  19.607  0.00  0.00    +0.000 Cl
ATOM     19  N   UNL     1       7.551   5.051  17.205  0.00  0.00    +0.000 NA
ATOM     20  C   UNL     1       6.537   4.748  16.426  0.00  0.00    +0.000 A 
ATOM     21 CL   UNL     1       6.854   4.743  14.746  0.00  0.00    +0.000 Cl
ATOM     22  N   UNL     1       5.288   4.448  16.780  0.00  0.00    +0.000 NA
ATOM     23  H   UNL     1       3.173   4.168  17.705  0.00  0.00    +0.000 HD
ENDBRANCH  13  14
ENDBRANCH   4  13
TORSDOF 4
ENDMDL
MODEL 7
REMARK VINA RESULT:      -6.9      5.975      7.162
REMARK  Name = 
REMARK  4 active torsions:
REMARK  status: ('A' for Active; 'I' for Inactive)
REMARK    1  A    between atoms: N_1  and  S_2
REMARK    2  A    between atoms: S_2  and  C_5
REMARK    3  A    between atoms: C_8  and  C_9
REMARK    4  A    between atoms: C_9  and  N_10
REMARK                            x       y       z     vdW  Elec       q    Type
REMARK                         _______ _______ _______ _____ _____    ______ ____
ROOT
ATOM      1  C   UNL     1       5.187   4.877  18.528  0.00  0.00    +0.000 A 
ATOM      2  C   UNL     1       6.397   4.965  19.218  0.00  0.00    +0.000 A 
ATOM      3  C   UNL     1       7.306   5.971  18.876  0.00  0.00    +0.000 A 
ATOM      4  C   UNL     1       7.009   6.889  17.852  0.00  0.00    +0.000 A 
ATOM      5  C   UNL     1       5.801   6.762  17.149  0.00  0.00    +0.000 A 
ATOM      6  C   UNL     1       4.893   5.758  17.486  0.00  0.00    +0.000 A 
ENDROOT
BRANCH   1   7
ATOM      7  S   UNL     1       4.018   3.608  18.927  0.00  0.00    +0.000 S 
ATOM      8  O   UNL     1       3.467   3.062  17.710  0.00  0.00    +0.000 OA
ATOM      9  O   UNL     1       3.187   4.059  20.020  0.00  0.00    +0.000 OA
BRANCH   7  10
ATOM     10  N   UNL     1       5.013   2.420  19.575  0.00  0.00    +0.000 NA
ATOM     11  H   UNL     1       5.903   2.418  19.074  0.00  0.00    +0.000 HD
ATOM     12  H   UNL     1       4.538   1.519  19.573  0.00  0.00    +0.000 HD
ENDBRANCH   7  10
ENDBRANCH   1   7
BRANCH   4  13
ATOM     13  C   UNL     1       7.991   7.980  17.491  0.00  0.00    +0.000 C 
BRANCH  13  14
ATOM     14  N   UNL     1       8.568   8.527  18.702  0.00  0.00    +0.000 N 
ATOM     15  C   UNL     1       8.910   9.867  18.668  0.00  0.00    +0.000 A 
ATOM     16  N   UNL     1       8.229  10.707  17.904  0.00  0.00    +0.000 NA
ATOM     17  C   UNL     1       8.610  11.972  17.999  0.00  0.00    +0.000 A 
ATOM     18 CL   UNL     1       7.743  13.091  17.042  0.00  0.00    +0.000 Cl
ATOM     19  N   UNL     1       9.582  12.474  18.741  0.00  0.00    +0.000 NA
ATOM     20  C   UNL     1      10.178  11.531  19.436  0.00  0.00    +0.000 A 
ATOM     21 CL   UNL     1      11.460  12.040  20.446  0.00  0.00    +0.000 Cl
ATOM     22  N   UNL     1       9.913  10.226  19.448  0.00  0.00    +0.000 NA
ATOM     23  H   UNL     1       9.341   8.000  19.093  0.00  0.00    +0.000 HD
ENDBRANCH  13  14
ENDBRANCH   4  13
TORSDOF 4
ENDMDL
MODEL 8
REMARK VINA RESULT:      -6.8      6.371      8.795
REMARK  Name = 
REMARK  4 active torsions:
REMARK  status: ('A' for Active; 'I' for Inactive)
REMARK    1  A    between atoms: N_1  and  S_2
REMARK    2  A    between atoms: S_2  and  C_5
REMARK    3  A    between atoms: C_8  and  C_9
REMARK    4  A    between atoms: C_9  and  N_10
REMARK                            x       y       z     vdW  Elec       q    Type
REMARK                         _______ _______ _______ _____ _____    ______ ____
ROOT
ATOM      1  C   UNL     1       3.016   4.504  19.612  0.00  0.00    +0.000 A 
ATOM      2  C   UNL     1       3.398   3.395  18.855  0.00  0.00    +0.000 A 
ATOM      3  C   UNL     1       4.404   3.539  17.895  0.00  0.00    +0.000 A 
ATOM      4  C   UNL     1       5.029   4.782  17.691  0.00  0.00    +0.000 A 
ATOM      5  C   UNL     1       4.607   5.891  18.441  0.00  0.00    +0.000 A 
ATOM      6  C   UNL     1       3.602   5.752  19.397  0.00  0.00    +0.000 A 
ENDROOT
BRANCH   1   7
ATOM      7  S   UNL     1       1.737   4.360  20.829  0.00  0.00    +0.000 S 
ATOM      8  O   UNL     1       1.066   5.630  20.974  0.00  0.00    +0.000 OA
ATOM      9  O   UNL     1       2.244   3.618  21.961  0.00  0.00    +0.000 OA
BRANCH   7  10
ATOM     10  N   UNL     1       0.652   3.332  20.063  0.00  0.00    +0.000 NA
ATOM     11  H   UNL     1       1.162   2.729  19.416  0.00  0.00    +0.000 HD
ATOM     12  H   UNL     1      -0.095   3.867  19.624  0.00  0.00    +0.000 HD
ENDBRANCH   7  10
ENDBRANCH   1   7
BRANCH   4  13
ATOM     13  C   UNL     1       6.122   4.932  16.657  0.00  0.00    +0.000 C 
BRANCH  13  14
ATOM     14  N   UNL     1       6.157   3.748  15.822  0.00  0.00    +0.000 N 
ATOM     15  C   UNL     1       6.457   3.949  14.486  0.00  0.00    +0.000 A 
ATOM     16  N   UNL     1       7.240   4.954  14.124  0.00  0.00    +0.000 NA
ATOM     17  C   UNL     1       7.502   5.009  12.827  0.00  0.00    +0.000 A 
ATOM     18 CL   UNL     1       8.525   6.281  12.322  0.00  0.00    +0.000 Cl
ATOM     19  N   UNL     1       7.066   4.203  11.875  0.00  0.00    +0.000 NA
ATOM     20  C   UNL     1       6.294   3.263  12.371  0.00  0.00    +0.000 A 
ATOM     21 CL   UNL     1       5.657   2.142  11.248  0.00  0.00    +0.000 Cl
ATOM     22  N   UNL     1       5.939   3.076  13.641  0.00  0.00    +0.000 NA
ATOM     23  H   UNL     1       5.347   3.142  15.890  0.00  0.00    +0.000 HD
ENDBRANCH  13  14
ENDBRANCH   4  13
TORSDOF 4
ENDMDL
MODEL 9
REMARK VINA RESULT:      -6.8      0.951      1.445
REMARK  Name = 
REMARK  4 active torsions:
REMARK  status: ('A' for Active; 'I' for Inactive)
REMARK    1  A    between atoms: N_1  and  S_2
REMARK    2  A    between atoms: S_2  and  C_5
REMARK    3  A    between atoms: C_8  and  C_9
REMARK    4  A    between atoms: C_9  and  N_10
REMARK                            x       y       z     vdW  Elec       q    Type
REMARK                         _______ _______ _______ _____ _____    ______ ____
ROOT
ATOM      1  C   UNL     1       4.958   5.355  16.316  0.00  0.00    +0.000 A 
ATOM      2  C   UNL     1       4.971   6.739  16.498  0.00  0.00    +0.000 A 
ATOM      3  C   UNL     1       4.114   7.310  17.443  0.00  0.00    +0.000 A 
ATOM      4  C   UNL     1       3.249   6.506  18.207  0.00  0.00    +0.000 A 
ATOM      5  C   UNL     1       3.228   5.121  17.984  0.00  0.00    +0.000 A 
ATOM      6  C   UNL     1       4.080   4.547  17.040  0.00  0.00    +0.000 A 
ENDROOT
BRANCH   1   7
ATOM      7  S   UNL     1       6.021   4.599  15.119  0.00  0.00    +0.000 S 
ATOM      8  O   UNL     1       7.296   5.275  15.111  0.00  0.00    +0.000 OA
ATOM      9  O   UNL     1       5.269   4.350  13.910  0.00  0.00    +0.000 OA
BRANCH   7  10
ATOM     10  N   UNL     1       6.286   3.089  15.805  0.00  0.00    +0.000 NA
ATOM     11  H   UNL     1       5.394   2.696  16.108  0.00  0.00    +0.000 HD
ATOM     12  H   UNL     1       6.980   3.154  16.548  0.00  0.00    +0.000 HD
ENDBRANCH   7  10
ENDBRANCH   1   7
BRANCH   4  13
ATOM     13  C   UNL     1       2.329   7.128  19.233  0.00  0.00    +0.000 C 
BRANCH  13  14
ATOM     14  N   UNL     1       1.956   8.459  18.800  0.00  0.00    +0.000 N 
ATOM     15  C   UNL     1       1.076   9.146  19.617  0.00  0.00    +0.000 A 
ATOM     16  N   UNL     1       1.069   8.924  20.922  0.00  0.00    +0.000 NA
ATOM     17  C   UNL     1       0.226   9.682  21.607  0.00  0.00    +0.000 A 
ATOM     18 CL   UNL     1       0.201   9.439  23.297  0.00  0.00    +0.000 Cl
ATOM     19  N   UNL     1      -0.601  10.601  21.140  0.00  0.00    +0.000 NA
ATOM     20  C   UNL     1      -0.499  10.709  19.835  0.00  0.00    +0.000 A 
ATOM     21 CL   UNL     1      -1.515  11.866  19.094  0.00  0.00    +0.000 Cl
ATOM     22  N   UNL     1       0.294  10.023  19.013  0.00  0.00    +0.000 NA
ATOM     23  H   UNL     1       1.639   8.533  17.839  0.00  0.00    +0.000 HD
ENDBRANCH  13  14
ENDBRANCH   4  13
TORSDOF 4
ENDMDL
