MODEL 1
REMARK VINA RESULT:      -6.6      0.000      0.000
REMARK  Name = 
REMARK  10 active torsions:
REMARK  status: ('A' for Active; 'I' for Inactive)
REMARK    1  A    between atoms: C_1  and  C_2
REMARK    2  A    between atoms: C_6  and  C_7
REMARK    3  A    between atoms: C_6  and  C_8
REMARK    4  A    between atoms: C_8  and  O_9
REMARK    5  A    between atoms: C_13  and  C_14
REMARK    6  A    between atoms: C_15  and  C_16
REMARK    7  A    between atoms: C_16  and  C_17
REMARK    8  A    between atoms: C_22  and  C_23
REMARK    9  A    between atoms: C_23  and  O_24
REMARK   10  A    between atoms: C_26  and  O_27
REMARK                            x       y       z     vdW  Elec       q    Type
REMARK                         _______ _______ _______ _____ _____    ______ ____
ROOT
ATOM      1  C   UNL     1      -0.953  12.985  19.272  0.00  0.00    +0.000 C 
ATOM      2  C   UNL     1      -0.783  12.757  20.983  0.00  0.00    +0.000 C 
ATOM      3  C   UNL     1      -0.618  12.535  22.318  0.00  0.00    +0.000 C 
ATOM      4  C   UNL     1      -1.750  12.925  23.339  0.00  0.00    +0.000 C 
ATOM      5  C   UNL     1      -3.116  12.739  22.627  0.00  0.00    +0.000 C 
ATOM      6  C   UNL     1      -4.487  13.386  23.239  0.00  0.00    +0.000 C 
ATOM      7  C   UNL     1      -4.292  14.796  23.857  0.00  0.00    +0.000 C 
ATOM      8  C   UNL     1      -5.528  13.376  22.083  0.00  0.00    +0.000 C 
ATOM      9  C   UNL     1      -4.983  14.047  20.864  0.00  0.00    +0.000 C 
ATOM     10  C   UNL     1      -4.046  13.028  20.196  0.00  0.00    +0.000 C 
ATOM     11  C   UNL     1      -2.748  12.970  21.024  0.00  0.00    +0.000 C 
ATOM     12  C   UNL     1      -2.189  14.664  20.737  0.00  0.00    +0.000 C 
ATOM     13  C   UNL     1      -1.535  11.547  20.611  0.00  0.00    +0.000 C 
ENDROOT
BRANCH   6  14
ATOM     14  C   UNL     1      -5.304  12.564  24.309  0.00  0.00    +0.000 C 
BRANCH  14  15
ATOM     15  O   UNL     1      -4.636  12.273  25.517  0.00  0.00    +0.000 OA
ATOM     16  H   UNL     1      -4.515  11.316  25.573  0.00  0.00    +0.000 HD
ENDBRANCH  14  15
ENDBRANCH   6  14
BRANCH  13  17
ATOM     17  C   UNL     1       0.248  11.187  20.140  0.00  0.00    +0.000 C 
BRANCH  17  18
ATOM     18  C   UNL     1       0.681   9.810  19.819  0.00  0.00    +0.000 C 
ATOM     19  O   UNL     1       0.202   9.323  18.572  0.00  0.00    +0.000 OA
ATOM     20  C   UNL     1       1.635   9.478  18.640  0.00  0.00    +0.000 C 
ATOM     21  C   UNL     1       2.354   8.163  18.597  0.00  0.00    +0.000 C 
ATOM     22  O   UNL     1       3.110   7.880  17.674  0.00  0.00    +0.000 OA
ATOM     23  C   UNL     1       2.108   7.228  19.732  0.00  0.00    +0.000 C 
ATOM     24  C   UNL     1       1.390   7.610  20.799  0.00  0.00    +0.000 C 
ATOM     25  C   UNL     1       0.771   8.927  21.002  0.00  0.00    +0.000 C 
BRANCH  25  26
ATOM     26  O   UNL     1       1.554   9.530  22.043  0.00  0.00    +0.000 OA
ATOM     27  H   UNL     1       2.418   9.801  21.685  0.00  0.00    +0.000 HD
ENDBRANCH  25  26
BRANCH  23  28
ATOM     28  C   UNL     1       2.707   5.864  19.684  0.00  0.00    +0.000 C 
BRANCH  28  29
ATOM     29  O   UNL     1       4.121   5.934  19.720  0.00  0.00    +0.000 OA
ATOM     30  H   UNL     1       4.369   6.683  19.144  0.00  0.00    +0.000 HD
ENDBRANCH  28  29
ENDBRANCH  23  28
ENDBRANCH  17  18
ENDBRANCH  13  17
TORSDOF 7
ENDMDL
MODEL 2
REMARK VINA RESULT:      -6.6      7.595     11.470
REMARK  Name = 
REMARK  10 active torsions:
REMARK  status: ('A' for Active; 'I' for Inactive)
REMARK    1  A    between atoms: C_1  and  C_2
REMARK    2  A    between atoms: C_6  and  C_7
REMARK    3  A    between atoms: C_6  and  C_8
REMARK    4  A    between atoms: C_8  and  O_9
REMARK    5  A    between atoms: C_13  and  C_14
REMARK    6  A    between atoms: C_15  and  C_16
REMARK    7  A    between atoms: C_16  and  C_17
REMARK    8  A    between atoms: C_22  and  C_23
REMARK    9  A    between atoms: C_23  and  O_24
REMARK   10  A    between atoms: C_26  and  O_27
REMARK                            x       y       z     vdW  Elec       q    Type
REMARK                         _______ _______ _______ _____ _____    ______ ____
ROOT
ATOM      1  C   UNL     1       7.933  16.772  18.936  0.00  0.00    +0.000 C 
ATOM      2  C   UNL     1       7.464  15.322  18.108  0.00  0.00    +0.000 C 
ATOM      3  C   UNL     1       7.043  14.195  17.468  0.00  0.00    +0.000 C 
ATOM      4  C   UNL     1       7.930  12.895  17.472  0.00  0.00    +0.000 C 
ATOM      5  C   UNL     1       8.698  12.848  18.820  0.00  0.00    +0.000 C 
ATOM      6  C   UNL     1       9.976  11.853  19.034  0.00  0.00    +0.000 C 
ATOM      7  C   UNL     1      10.894  11.736  17.788  0.00  0.00    +0.000 C 
ATOM      8  C   UNL     1      10.731  12.377  20.290  0.00  0.00    +0.000 C 
ATOM      9  C   UNL     1      11.056  13.829  20.153  0.00  0.00    +0.000 C 
ATOM     10  C   UNL     1       9.758  14.591  20.463  0.00  0.00    +0.000 C 
ATOM     11  C   UNL     1       8.828  14.450  19.242  0.00  0.00    +0.000 C 
ATOM     12  C   UNL     1       9.845  15.342  18.045  0.00  0.00    +0.000 C 
ATOM     13  C   UNL     1       7.016  15.022  19.478  0.00  0.00    +0.000 C 
ENDROOT
BRANCH   6  14
ATOM     14  C   UNL     1       9.715  10.371  19.509  0.00  0.00    +0.000 C 
BRANCH  14  15
ATOM     15  O   UNL     1       8.826   9.610  18.720  0.00  0.00    +0.000 OA
ATOM     16  H   UNL     1       7.932   9.953  18.855  0.00  0.00    +0.000 HD
ENDBRANCH  14  15
ENDBRANCH   6  14
BRANCH  13  17
ATOM     17  C   UNL     1       5.695  16.149  18.761  0.00  0.00    +0.000 C 
BRANCH  17  18
ATOM     18  C   UNL     1       4.274  15.983  19.138  0.00  0.00    +0.000 C 
ATOM     19  O   UNL     1       4.019  16.131  20.529  0.00  0.00    +0.000 OA
ATOM     20  C   UNL     1       3.409  17.143  19.702  0.00  0.00    +0.000 C 
ATOM     21  C   UNL     1       1.914  17.045  19.689  0.00  0.00    +0.000 C 
ATOM     22  O   UNL     1       1.212  17.949  20.130  0.00  0.00    +0.000 OA
ATOM     23  C   UNL     1       1.329  15.803  19.107  0.00  0.00    +0.000 C 
ATOM     24  C   UNL     1       2.105  14.891  18.503  0.00  0.00    +0.000 C 
ATOM     25  C   UNL     1       3.563  14.968  18.333  0.00  0.00    +0.000 C 
BRANCH  25  26
ATOM     26  O   UNL     1       3.743  15.199  16.928  0.00  0.00    +0.000 OA
ATOM     27  H   UNL     1       4.694  15.202  16.717  0.00  0.00    +0.000 HD
ENDBRANCH  25  26
BRANCH  23  28
ATOM     28  C   UNL     1      -0.147  15.604  19.171  0.00  0.00    +0.000 C 
BRANCH  28  29
ATOM     29  O   UNL     1      -0.819  16.563  18.375  0.00  0.00    +0.000 OA
ATOM     30  H   UNL     1      -1.691  16.697  18.794  0.00  0.00    +0.000 HD
ENDBRANCH  28  29
ENDBRANCH  23  28
ENDBRANCH  17  18
ENDBRANCH  13  17
TORSDOF 7
ENDMDL
MODEL 3
REMARK VINA RESULT:      -6.4      1.063      1.113
REMARK  Name = 
REMARK  10 active torsions:
REMARK  status: ('A' for Active; 'I' for Inactive)
REMARK    1  A    between atoms: C_1  and  C_2
REMARK    2  A    between atoms: C_6  and  C_7
REMARK    3  A    between atoms: C_6  and  C_8
REMARK    4  A    between atoms: C_8  and  O_9
REMARK    5  A    between atoms: C_13  and  C_14
REMARK    6  A    between atoms: C_15  and  C_16
REMARK    7  A    between atoms: C_16  and  C_17
REMARK    8  A    between atoms: C_22  and  C_23
REMARK    9  A    between atoms: C_23  and  O_24
REMARK   10  A    between atoms: C_26  and  O_27
REMARK                            x       y       z     vdW  Elec       q    Type
REMARK                         _______ _______ _______ _____ _____    ______ ____
ROOT
ATOM      1  C   UNL     1      -0.534  12.355  18.645  0.00  0.00    +0.000 C 
ATOM      2  C   UNL     1      -0.140  12.332  20.335  0.00  0.00    +0.000 C 
ATOM      3  C   UNL     1       0.202  12.270  21.653  0.00  0.00    +0.000 C 
ATOM      4  C   UNL     1      -0.812  12.734  22.763  0.00  0.00    +0.000 C 
ATOM      5  C   UNL     1      -2.245  12.420  22.259  0.00  0.00    +0.000 C 
ATOM      6  C   UNL     1      -3.560  13.083  22.970  0.00  0.00    +0.000 C 
ATOM      7  C   UNL     1      -3.358  14.561  23.400  0.00  0.00    +0.000 C 
ATOM      8  C   UNL     1      -4.735  12.903  21.967  0.00  0.00    +0.000 C 
ATOM      9  C   UNL     1      -4.381  13.449  20.621  0.00  0.00    +0.000 C 
ATOM     10  C   UNL     1      -3.485  12.394  19.952  0.00  0.00    +0.000 C 
ATOM     11  C   UNL     1      -2.092  12.478  20.606  0.00  0.00    +0.000 C 
ATOM     12  C   UNL     1      -1.659  14.147  20.066  0.00  0.00    +0.000 C 
ATOM     13  C   UNL     1      -0.871  11.061  20.197  0.00  0.00    +0.000 C 
ENDROOT
BRANCH   6  14
ATOM     14  C   UNL     1      -4.194  12.360  24.220  0.00  0.00    +0.000 C 
BRANCH  14  15
ATOM     15  O   UNL     1      -5.597  12.214  24.213  0.00  0.00    +0.000 OA
ATOM     16  H   UNL     1      -5.820  11.454  23.659  0.00  0.00    +0.000 HD
ENDBRANCH  14  15
ENDBRANCH   6  14
BRANCH  13  17
ATOM     17  C   UNL     1       0.855  10.712  19.540  0.00  0.00    +0.000 C 
BRANCH  17  18
ATOM     18  C   UNL     1       1.269   9.334  19.199  0.00  0.00    +0.000 C 
ATOM     19  O   UNL     1       0.892   8.919  17.893  0.00  0.00    +0.000 OA
ATOM     20  C   UNL     1       2.317   9.016  18.098  0.00  0.00    +0.000 C 
ATOM     21  C   UNL     1       2.991   7.679  18.062  0.00  0.00    +0.000 C 
ATOM     22  O   UNL     1       3.820   7.406  17.200  0.00  0.00    +0.000 OA
ATOM     23  C   UNL     1       2.610   6.707  19.126  0.00  0.00    +0.000 C 
ATOM     24  C   UNL     1       1.810   7.071  20.140  0.00  0.00    +0.000 C 
ATOM     25  C   UNL     1       1.219   8.401  20.344  0.00  0.00    +0.000 C 
BRANCH  25  26
ATOM     26  O   UNL     1       1.923   8.930  21.478  0.00  0.00    +0.000 OA
ATOM     27  H   UNL     1       1.378   9.611  21.911  0.00  0.00    +0.000 HD
ENDBRANCH  25  26
BRANCH  23  28
ATOM     28  C   UNL     1       3.166   5.325  19.073  0.00  0.00    +0.000 C 
BRANCH  28  29
ATOM     29  O   UNL     1       2.880   4.716  17.827  0.00  0.00    +0.000 OA
ATOM     30  H   UNL     1       3.093   3.769  17.935  0.00  0.00    +0.000 HD
ENDBRANCH  28  29
ENDBRANCH  23  28
ENDBRANCH  17  18
ENDBRANCH  13  17
TORSDOF 7
ENDMDL
MODEL 4
REMARK VINA RESULT:      -6.3      7.485     11.112
REMARK  Name = 
REMARK  10 active torsions:
REMARK  status: ('A' for Active; 'I' for Inactive)
REMARK    1  A    between atoms: C_1  and  C_2
REMARK    2  A    between atoms: C_6  and  C_7
REMARK    3  A    between atoms: C_6  and  C_8
REMARK    4  A    between atoms: C_8  and  O_9
REMARK    5  A    between atoms: C_13  and  C_14
REMARK    6  A    between atoms: C_15  and  C_16
REMARK    7  A    between atoms: C_16  and  C_17
REMARK    8  A    between atoms: C_22  and  C_23
REMARK    9  A    between atoms: C_23  and  O_24
REMARK   10  A    between atoms: C_26  and  O_27
REMARK                            x       y       z     vdW  Elec       q    Type
REMARK                         _______ _______ _______ _____ _____    ______ ____
ROOT
ATOM      1  C   UNL     1       7.945  16.887  18.769  0.00  0.00    +0.000 C 
ATOM      2  C   UNL     1       7.547  15.393  17.981  0.00  0.00    +0.000 C 
ATOM      3  C   UNL     1       7.181  14.232  17.367  0.00  0.00    +0.000 C 
ATOM      4  C   UNL     1       8.060  12.936  17.521  0.00  0.00    +0.000 C 
ATOM      5  C   UNL     1       8.705  12.963  18.931  0.00  0.00    +0.000 C 
ATOM      6  C   UNL     1       9.956  11.983  19.312  0.00  0.00    +0.000 C 
ATOM      7  C   UNL     1      10.980  11.800  18.161  0.00  0.00    +0.000 C 
ATOM      8  C   UNL     1      10.598  12.575  20.600  0.00  0.00    +0.000 C 
ATOM      9  C   UNL     1      10.938  14.018  20.415  0.00  0.00    +0.000 C 
ATOM     10  C   UNL     1       9.620  14.793  20.566  0.00  0.00    +0.000 C 
ATOM     11  C   UNL     1       8.802  14.585  19.277  0.00  0.00    +0.000 C 
ATOM     12  C   UNL     1       9.924  15.414  18.129  0.00  0.00    +0.000 C 
ATOM     13  C   UNL     1       6.978  15.167  19.320  0.00  0.00    +0.000 C 
ENDROOT
BRANCH   6  14
ATOM     14  C   UNL     1       9.648  10.528  19.840  0.00  0.00    +0.000 C 
BRANCH  14  15
ATOM     15  O   UNL     1       9.352  10.412  21.214  0.00  0.00    +0.000 OA
ATOM     16  H   UNL     1       8.556  10.929  21.398  0.00  0.00    +0.000 HD
ENDBRANCH  14  15
ENDBRANCH   6  14
BRANCH  13  17
ATOM     17  C   UNL     1       5.729  16.251  18.429  0.00  0.00    +0.000 C 
BRANCH  17  18
ATOM     18  C   UNL     1       4.282  15.953  18.500  0.00  0.00    +0.000 C 
ATOM     19  O   UNL     1       3.700  15.588  17.256  0.00  0.00    +0.000 OA
ATOM     20  C   UNL     1       3.699  14.537  18.244  0.00  0.00    +0.000 C 
ATOM     21  C   UNL     1       2.317  14.193  18.710  0.00  0.00    +0.000 C 
ATOM     22  O   UNL     1       1.837  13.082  18.516  0.00  0.00    +0.000 OA
ATOM     23  C   UNL     1       1.566  15.265  19.425  0.00  0.00    +0.000 C 
ATOM     24  C   UNL     1       2.158  16.424  19.751  0.00  0.00    +0.000 C 
ATOM     25  C   UNL     1       3.551  16.795  19.470  0.00  0.00    +0.000 C 
BRANCH  25  26
ATOM     26  O   UNL     1       4.188  16.780  20.757  0.00  0.00    +0.000 OA
ATOM     27  H   UNL     1       3.733  17.401  21.353  0.00  0.00    +0.000 HD
ENDBRANCH  25  26
BRANCH  23  28
ATOM     28  C   UNL     1       0.148  15.015  19.811  0.00  0.00    +0.000 C 
BRANCH  28  29
ATOM     29  O   UNL     1      -0.646  14.751  18.669  0.00  0.00    +0.000 OA
ATOM     30  H   UNL     1      -1.136  15.575  18.485  0.00  0.00    +0.000 HD
ENDBRANCH  28  29
ENDBRANCH  23  28
ENDBRANCH  17  18
ENDBRANCH  13  17
TORSDOF 7
ENDMDL
MODEL 5
REMARK VINA RESULT:      -6.3      1.953      3.475
REMARK  Name = 
REMARK  10 active torsions:
REMARK  status: ('A' for Active; 'I' for Inactive)
REMARK    1  A    between atoms: C_1  and  C_2
REMARK    2  A    between atoms: C_6  and  C_7
REMARK    3  A    between atoms: C_6  and  C_8
REMARK    4  A    between atoms: C_8  and  O_9
REMARK    5  A    between atoms: C_13  and  C_14
REMARK    6  A    between atoms: C_15  and  C_16
REMARK    7  A    between atoms: C_16  and  C_17
REMARK    8  A    between atoms: C_22  and  C_23
REMARK    9  A    between atoms: C_23  and  O_24
REMARK   10  A    between atoms: C_26  and  O_27
REMARK                            x       y       z     vdW  Elec       q    Type
REMARK                         _______ _______ _______ _____ _____    ______ ____
ROOT
ATOM      1  C   UNL     1      -2.666  15.434  21.008  0.00  0.00    +0.000 C 
ATOM      2  C   UNL     1      -2.927  14.329  22.320  0.00  0.00    +0.000 C 
ATOM      3  C   UNL     1      -3.087  13.434  23.335  0.00  0.00    +0.000 C 
ATOM      4  C   UNL     1      -4.525  13.073  23.863  0.00  0.00    +0.000 C 
ATOM      5  C   UNL     1      -5.506  13.155  22.664  0.00  0.00    +0.000 C 
ATOM      6  C   UNL     1      -7.124  13.204  22.892  0.00  0.00    +0.000 C 
ATOM      7  C   UNL     1      -7.557  14.058  24.113  0.00  0.00    +0.000 C 
ATOM      8  C   UNL     1      -7.737  13.710  21.555  0.00  0.00    +0.000 C 
ATOM      9  C   UNL     1      -7.104  14.994  21.126  0.00  0.00    +0.000 C 
ATOM     10  C   UNL     1      -5.749  14.619  20.506  0.00  0.00    +0.000 C 
ATOM     11  C   UNL     1      -4.787  14.264  21.656  0.00  0.00    +0.000 C 
ATOM     12  C   UNL     1      -4.723  15.889  22.442  0.00  0.00    +0.000 C 
ATOM     13  C   UNL     1      -3.129  13.443  21.161  0.00  0.00    +0.000 C 
ENDROOT
BRANCH   6  14
ATOM     14  C   UNL     1      -7.914  11.845  23.023  0.00  0.00    +0.000 C 
BRANCH  14  15
ATOM     15  O   UNL     1      -7.455  10.948  24.010  0.00  0.00    +0.000 OA
ATOM     16  H   UNL     1      -7.806  10.070  23.808  0.00  0.00    +0.000 HD
ENDBRANCH  14  15
ENDBRANCH   6  14
BRANCH  13  17
ATOM     17  C   UNL     1      -1.266  13.602  21.343  0.00  0.00    +0.000 C 
BRANCH  17  18
ATOM     18  C   UNL     1      -0.365  12.551  20.823  0.00  0.00    +0.000 C 
ATOM     19  O   UNL     1       0.591  12.084  21.766  0.00  0.00    +0.000 OA
ATOM     20  C   UNL     1      -0.373  11.093  21.354  0.00  0.00    +0.000 C 
ATOM     21  C   UNL     1       0.248   9.992  20.549  0.00  0.00    +0.000 C 
ATOM     22  O   UNL     1       0.254   8.833  20.951  0.00  0.00    +0.000 OA
ATOM     23  C   UNL     1       0.847  10.376  19.239  0.00  0.00    +0.000 C 
ATOM     24  C   UNL     1       0.707  11.619  18.753  0.00  0.00    +0.000 C 
ATOM     25  C   UNL     1      -0.012  12.726  19.398  0.00  0.00    +0.000 C 
BRANCH  25  26
ATOM     26  O   UNL     1      -1.185  12.905  18.590  0.00  0.00    +0.000 OA
ATOM     27  H   UNL     1      -1.090  12.402  17.761  0.00  0.00    +0.000 HD
ENDBRANCH  25  26
BRANCH  23  28
ATOM     28  C   UNL     1       1.576   9.343  18.449  0.00  0.00    +0.000 C 
BRANCH  28  29
ATOM     29  O   UNL     1       2.086   9.894  17.249  0.00  0.00    +0.000 OA
ATOM     30  H   UNL     1       1.658   9.401  16.523  0.00  0.00    +0.000 HD
ENDBRANCH  28  29
ENDBRANCH  23  28
ENDBRANCH  17  18
ENDBRANCH  13  17
TORSDOF 7
ENDMDL
MODEL 6
REMARK VINA RESULT:      -6.3      3.170      9.330
REMARK  Name = 
REMARK  10 active torsions:
REMARK  status: ('A' for Active; 'I' for Inactive)
REMARK    1  A    between atoms: C_1  and  C_2
REMARK    2  A    between atoms: C_6  and  C_7
REMARK    3  A    between atoms: C_6  and  C_8
REMARK    4  A    between atoms: C_8  and  O_9
REMARK    5  A    between atoms: C_13  and  C_14
REMARK    6  A    between atoms: C_15  and  C_16
REMARK    7  A    between atoms: C_16  and  C_17
REMARK    8  A    between atoms: C_22  and  C_23
REMARK    9  A    between atoms: C_23  and  O_24
REMARK   10  A    between atoms: C_26  and  O_27
REMARK                            x       y       z     vdW  Elec       q    Type
REMARK                         _______ _______ _______ _____ _____    ______ ____
ROOT
ATOM      1  C   UNL     1       4.062   7.555  17.444  0.00  0.00    +0.000 C 
ATOM      2  C   UNL     1       2.586   6.659  17.611  0.00  0.00    +0.000 C 
ATOM      3  C   UNL     1       1.401   6.001  17.756  0.00  0.00    +0.000 C 
ATOM      4  C   UNL     1       1.373   4.497  18.218  0.00  0.00    +0.000 C 
ATOM      5  C   UNL     1       2.573   4.273  19.176  0.00  0.00    +0.000 C 
ATOM      6  C   UNL     1       3.079   2.768  19.565  0.00  0.00    +0.000 C 
ATOM      7  C   UNL     1       3.030   1.767  18.380  0.00  0.00    +0.000 C 
ATOM      8  C   UNL     1       4.508   2.928  20.159  0.00  0.00    +0.000 C 
ATOM      9  C   UNL     1       5.394   3.689  19.227  0.00  0.00    +0.000 C 
ATOM     10  C   UNL     1       5.023   5.171  19.396  0.00  0.00    +0.000 C 
ATOM     11  C   UNL     1       3.681   5.405  18.676  0.00  0.00    +0.000 C 
ATOM     12  C   UNL     1       4.233   5.053  16.992  0.00  0.00    +0.000 C 
ATOM     13  C   UNL     1       2.818   7.083  19.002  0.00  0.00    +0.000 C 
ENDROOT
BRANCH   6  14
ATOM     14  C   UNL     1       2.394   2.025  20.776  0.00  0.00    +0.000 C 
BRANCH  14  15
ATOM     15  O   UNL     1       2.579   2.602  22.049  0.00  0.00    +0.000 OA
ATOM     16  H   UNL     1       2.335   1.948  22.717  0.00  0.00    +0.000 HD
ENDBRANCH  14  15
ENDBRANCH   6  14
BRANCH  13  17
ATOM     17  C   UNL     1       2.093   8.587  18.141  0.00  0.00    +0.000 C 
BRANCH  17  18
ATOM     18  C   UNL     1       1.257   9.554  18.885  0.00  0.00    +0.000 C 
ATOM     19  O   UNL     1       0.136   8.973  19.538  0.00  0.00    +0.000 OA
ATOM     20  C   UNL     1       1.119   9.535  20.431  0.00  0.00    +0.000 C 
ATOM     21  C   UNL     1       0.607  10.741  21.158  0.00  0.00    +0.000 C 
ATOM     22  O   UNL     1       0.489  10.747  22.379  0.00  0.00    +0.000 OA
ATOM     23  C   UNL     1       0.259  11.928  20.326  0.00  0.00    +0.000 C 
ATOM     24  C   UNL     1       0.527  11.952  19.011  0.00  0.00    +0.000 C 
ATOM     25  C   UNL     1       1.164  10.879  18.236  0.00  0.00    +0.000 C 
BRANCH  25  26
ATOM     26  O   UNL     1       2.465  11.395  17.918  0.00  0.00    +0.000 OA
ATOM     27  H   UNL     1       2.408  12.356  17.771  0.00  0.00    +0.000 HD
ENDBRANCH  25  26
BRANCH  23  28
ATOM     28  C   UNL     1      -0.360  13.113  20.984  0.00  0.00    +0.000 C 
BRANCH  28  29
ATOM     29  O   UNL     1       0.390  13.507  22.119  0.00  0.00    +0.000 OA
ATOM     30  H   UNL     1       0.827  14.345  21.875  0.00  0.00    +0.000 HD
ENDBRANCH  28  29
ENDBRANCH  23  28
ENDBRANCH  17  18
ENDBRANCH  13  17
TORSDOF 7
ENDMDL
MODEL 7
REMARK VINA RESULT:      -6.1      7.353     11.071
REMARK  Name = 
REMARK  10 active torsions:
REMARK  status: ('A' for Active; 'I' for Inactive)
REMARK    1  A    between atoms: C_1  and  C_2
REMARK    2  A    between atoms: C_6  and  C_7
REMARK    3  A    between atoms: C_6  and  C_8
REMARK    4  A    between atoms: C_8  and  O_9
REMARK    5  A    between atoms: C_13  and  C_14
REMARK    6  A    between atoms: C_15  and  C_16
REMARK    7  A    between atoms: C_16  and  C_17
REMARK    8  A    between atoms: C_22  and  C_23
REMARK    9  A    between atoms: C_23  and  O_24
REMARK   10  A    between atoms: C_26  and  O_27
REMARK                            x       y       z     vdW  Elec       q    Type
REMARK                         _______ _______ _______ _____ _____    ______ ____
ROOT
ATOM      1  C   UNL     1       7.290  16.848  19.206  0.00  0.00    +0.000 C 
ATOM      2  C   UNL     1       7.090  15.389  18.289  0.00  0.00    +0.000 C 
ATOM      3  C   UNL     1       6.879  14.243  17.581  0.00  0.00    +0.000 C 
ATOM      4  C   UNL     1       8.018  13.165  17.448  0.00  0.00    +0.000 C 
ATOM      5  C   UNL     1       8.854  13.194  18.755  0.00  0.00    +0.000 C 
ATOM      6  C   UNL     1      10.323  12.482  18.839  0.00  0.00    +0.000 C 
ATOM      7  C   UNL     1      11.172  12.647  17.551  0.00  0.00    +0.000 C 
ATOM      8  C   UNL     1      11.021  13.071  20.099  0.00  0.00    +0.000 C 
ATOM      9  C   UNL     1      11.026  14.564  20.062  0.00  0.00    +0.000 C 
ATOM     10  C   UNL     1       9.616  15.009  20.483  0.00  0.00    +0.000 C 
ATOM     11  C   UNL     1       8.669  14.755  19.294  0.00  0.00    +0.000 C 
ATOM     12  C   UNL     1       9.406  15.922  18.129  0.00  0.00    +0.000 C 
ATOM     13  C   UNL     1       6.793  14.910  19.649  0.00  0.00    +0.000 C 
ENDROOT
BRANCH   6  14
ATOM     14  C   UNL     1      10.406  10.951  19.208  0.00  0.00    +0.000 C 
BRANCH  14  15
ATOM     15  O   UNL     1       9.175  10.278  19.362  0.00  0.00    +0.000 OA
ATOM     16  H   UNL     1       8.660  10.738  20.038  0.00  0.00    +0.000 HD
ENDBRANCH  14  15
ENDBRANCH   6  14
BRANCH  13  17
ATOM     17  C   UNL     1       5.226  15.774  19.077  0.00  0.00    +0.000 C 
BRANCH  17  18
ATOM     18  C   UNL     1       3.898  15.175  19.328  0.00  0.00    +0.000 C 
ATOM     19  O   UNL     1       3.648  14.863  20.693  0.00  0.00    +0.000 OA
ATOM     20  C   UNL     1       2.792  15.890  20.150  0.00  0.00    +0.000 C 
ATOM     21  C   UNL     1       1.365  15.444  20.042  0.00  0.00    +0.000 C 
ATOM     22  O   UNL     1       0.475  15.994  20.684  0.00  0.00    +0.000 OA
ATOM     23  C   UNL     1       1.085  14.311  19.115  0.00  0.00    +0.000 C 
ATOM     24  C   UNL     1       2.045  13.817  18.318  0.00  0.00    +0.000 C 
ATOM     25  C   UNL     1       3.435  14.285  18.242  0.00  0.00    +0.000 C 
BRANCH  25  26
ATOM     26  O   UNL     1       3.521  14.934  16.965  0.00  0.00    +0.000 OA
ATOM     27  H   UNL     1       4.391  15.361  16.873  0.00  0.00    +0.000 HD
ENDBRANCH  25  26
BRANCH  23  28
ATOM     28  C   UNL     1      -0.297  13.755  19.054  0.00  0.00    +0.000 C 
BRANCH  28  29
ATOM     29  O   UNL     1      -0.498  13.038  17.849  0.00  0.00    +0.000 OA
ATOM     30  H   UNL     1      -1.170  12.359  18.049  0.00  0.00    +0.000 HD
ENDBRANCH  28  29
ENDBRANCH  23  28
ENDBRANCH  17  18
ENDBRANCH  13  17
TORSDOF 7
ENDMDL
MODEL 8
REMARK VINA RESULT:      -6.1      2.559      9.307
REMARK  Name = 
REMARK  10 active torsions:
REMARK  status: ('A' for Active; 'I' for Inactive)
REMARK    1  A    between atoms: C_1  and  C_2
REMARK    2  A    between atoms: C_6  and  C_7
REMARK    3  A    between atoms: C_6  and  C_8
REMARK    4  A    between atoms: C_8  and  O_9
REMARK    5  A    between atoms: C_13  and  C_14
REMARK    6  A    between atoms: C_15  and  C_16
REMARK    7  A    between atoms: C_16  and  C_17
REMARK    8  A    between atoms: C_22  and  C_23
REMARK    9  A    between atoms: C_23  and  O_24
REMARK   10  A    between atoms: C_26  and  O_27
REMARK                            x       y       z     vdW  Elec       q    Type
REMARK                         _______ _______ _______ _____ _____    ______ ____
ROOT
ATOM      1  C   UNL     1       3.864   8.018  17.810  0.00  0.00    +0.000 C 
ATOM      2  C   UNL     1       2.451   7.016  17.708  0.00  0.00    +0.000 C 
ATOM      3  C   UNL     1       1.313   6.269  17.647  0.00  0.00    +0.000 C 
ATOM      4  C   UNL     1       1.367   4.710  17.849  0.00  0.00    +0.000 C 
ATOM      5  C   UNL     1       2.513   4.400  18.848  0.00  0.00    +0.000 C 
ATOM      6  C   UNL     1       3.104   2.885  19.019  0.00  0.00    +0.000 C 
ATOM      7  C   UNL     1       3.210   2.101  17.684  0.00  0.00    +0.000 C 
ATOM      8  C   UNL     1       4.474   3.031  19.743  0.00  0.00    +0.000 C 
ATOM      9  C   UNL     1       5.360   3.995  19.024  0.00  0.00    +0.000 C 
ATOM     10  C   UNL     1       4.868   5.399  19.407  0.00  0.00    +0.000 C 
ATOM     11  C   UNL     1       3.564   5.668  18.632  0.00  0.00    +0.000 C 
ATOM     12  C   UNL     1       4.253   5.646  16.962  0.00  0.00    +0.000 C 
ATOM     13  C   UNL     1       2.557   7.208  19.164  0.00  0.00    +0.000 C 
ENDROOT
BRANCH   6  14
ATOM     14  C   UNL     1       2.397   1.904  20.032  0.00  0.00    +0.000 C 
BRANCH  14  15
ATOM     15  O   UNL     1       1.348   2.448  20.801  0.00  0.00    +0.000 OA
ATOM     16  H   UNL     1       1.448   2.141  21.712  0.00  0.00    +0.000 HD
ENDBRANCH  14  15
ENDBRANCH   6  14
BRANCH  13  17
ATOM     17  C   UNL     1       1.780   8.789  18.511  0.00  0.00    +0.000 C 
BRANCH  17  18
ATOM     18  C   UNL     1       0.852   9.578  19.350  0.00  0.00    +0.000 C 
ATOM     19  O   UNL     1       0.986   9.342  20.746  0.00  0.00    +0.000 OA
ATOM     20  C   UNL     1       1.333  10.680  20.332  0.00  0.00    +0.000 C 
ATOM     21  C   UNL     1       0.368  11.705  20.847  0.00  0.00    +0.000 C 
ATOM     22  O   UNL     1       0.726  12.583  21.625  0.00  0.00    +0.000 OA
ATOM     23  C   UNL     1      -1.038  11.605  20.361  0.00  0.00    +0.000 C 
ATOM     24  C   UNL     1      -1.378  10.728  19.405  0.00  0.00    +0.000 C 
ATOM     25  C   UNL     1      -0.474   9.785  18.732  0.00  0.00    +0.000 C 
BRANCH  25  26
ATOM     26  O   UNL     1      -0.352  10.302  17.399  0.00  0.00    +0.000 OA
ATOM     27  H   UNL     1       0.561  10.605  17.248  0.00  0.00    +0.000 HD
ENDBRANCH  25  26
BRANCH  23  28
ATOM     28  C   UNL     1      -2.062  12.529  20.927  0.00  0.00    +0.000 C 
BRANCH  28  29
ATOM     29  O   UNL     1      -2.127  12.407  22.336  0.00  0.00    +0.000 OA
ATOM     30  H   UNL     1      -1.203  12.348  22.644  0.00  0.00    +0.000 HD
ENDBRANCH  28  29
ENDBRANCH  23  28
ENDBRANCH  17  18
ENDBRANCH  13  17
TORSDOF 7
ENDMDL
MODEL 9
REMARK VINA RESULT:      -6.1      8.795     11.454
REMARK  Name = 
REMARK  10 active torsions:
REMARK  status: ('A' for Active; 'I' for Inactive)
REMARK    1  A    between atoms: C_1  and  C_2
REMARK    2  A    between atoms: C_6  and  C_7
REMARK    3  A    between atoms: C_6  and  C_8
REMARK    4  A    between atoms: C_8  and  O_9
REMARK    5  A    between atoms: C_13  and  C_14
REMARK    6  A    between atoms: C_15  and  C_16
REMARK    7  A    between atoms: C_16  and  C_17
REMARK    8  A    between atoms: C_22  and  C_23
REMARK    9  A    between atoms: C_23  and  O_24
REMARK   10  A    between atoms: C_26  and  O_27
REMARK                            x       y       z     vdW  Elec       q    Type
REMARK                         _______ _______ _______ _____ _____    ______ ____
ROOT
ATOM      1  C   UNL     1       9.314  11.673  21.496  0.00  0.00    +0.000 C 
ATOM      2  C   UNL     1       9.383  13.255  22.203  0.00  0.00    +0.000 C 
ATOM      3  C   UNL     1       9.403  14.481  22.798  0.00  0.00    +0.000 C 
ATOM      4  C   UNL     1       9.589  15.785  21.937  0.00  0.00    +0.000 C 
ATOM      5  C   UNL     1       8.924  15.541  20.556  0.00  0.00    +0.000 C 
ATOM      6  C   UNL     1       9.229  16.518  19.282  0.00  0.00    +0.000 C 
ATOM      7  C   UNL     1      10.707  16.983  19.191  0.00  0.00    +0.000 C 
ATOM      8  C   UNL     1       8.763  15.744  18.017  0.00  0.00    +0.000 C 
ATOM      9  C   UNL     1       9.387  14.388  17.956  0.00  0.00    +0.000 C 
ATOM     10  C   UNL     1       8.597  13.507  18.938  0.00  0.00    +0.000 C 
ATOM     11  C   UNL     1       9.028  13.893  20.367  0.00  0.00    +0.000 C 
ATOM     12  C   UNL     1      10.755  13.373  20.259  0.00  0.00    +0.000 C 
ATOM     13  C   UNL     1       7.968  13.188  21.798  0.00  0.00    +0.000 C 
ENDROOT
BRANCH   6  14
ATOM     14  C   UNL     1       8.363  17.824  19.102  0.00  0.00    +0.000 C 
BRANCH  14  15
ATOM     15  O   UNL     1       7.053  17.643  18.611  0.00  0.00    +0.000 OA
ATOM     16  H   UNL     1       6.433  17.981  19.270  0.00  0.00    +0.000 HD
ENDBRANCH  14  15
ENDBRANCH   6  14
BRANCH  13  17
ATOM     17  C   UNL     1       8.072  12.204  23.394  0.00  0.00    +0.000 C 
BRANCH  17  18
ATOM     18  C   UNL     1       7.032  12.343  24.436  0.00  0.00    +0.000 C 
ATOM     19  O   UNL     1       5.705  12.412  23.930  0.00  0.00    +0.000 OA
ATOM     20  C   UNL     1       5.977  11.241  24.728  0.00  0.00    +0.000 C 
ATOM     21  C   UNL     1       5.221  11.244  26.022  0.00  0.00    +0.000 C 
ATOM     22  O   UNL     1       4.382  10.384  26.272  0.00  0.00    +0.000 OA
ATOM     23  C   UNL     1       5.545  12.334  26.985  0.00  0.00    +0.000 C 
ATOM     24  C   UNL     1       6.562  13.180  26.756  0.00  0.00    +0.000 C 
ATOM     25  C   UNL     1       7.456  13.165  25.590  0.00  0.00    +0.000 C 
BRANCH  25  26
ATOM     26  O   UNL     1       8.714  12.716  26.114  0.00  0.00    +0.000 OA
ATOM     27  H   UNL     1       9.281  12.409  25.385  0.00  0.00    +0.000 HD
ENDBRANCH  25  26
BRANCH  23  28
ATOM     28  C   UNL     1       4.745  12.450  28.238  0.00  0.00    +0.000 C 
BRANCH  28  29
ATOM     29  O   UNL     1       3.366  12.270  27.973  0.00  0.00    +0.000 OA
ATOM     30  H   UNL     1       3.056  13.108  27.580  0.00  0.00    +0.000 HD
ENDBRANCH  28  29
ENDBRANCH  23  28
ENDBRANCH  17  18
ENDBRANCH  13  17
TORSDOF 7
ENDMDL
