MODEL 1
REMARK VINA RESULT:      -8.0      0.000      0.000
REMARK  Name = 
REMARK  9 active torsions:
REMARK  status: ('A' for Active; 'I' for Inactive)
REMARK    1  A    between atoms: C_1  and  C_2
REMARK    2  A    between atoms: C_2  and  C_3
REMARK    3  A    between atoms: C_3  and  C_4
REMARK    4  A    between atoms: C_4  and  C_5
REMARK    5  A    between atoms: C_5  and  C_6
REMARK    6  A    between atoms: C_12  and  C_13
REMARK    7  A    between atoms: C_12  and  C_20
REMARK    8  A    between atoms: C_16  and  O_17
REMARK    9  A    between atoms: C_23  and  O_24
REMARK                            x       y       z     vdW  Elec       q    Type
REMARK                         _______ _______ _______ _____ _____    ______ ____
ROOT
ATOM      1  C   UNL     1       4.847   6.051  17.623  0.00  0.00    +0.000 C 
ATOM      2  C   UNL     1       3.609   5.967  18.202  0.00  0.00    +0.000 C 
ENDROOT
BRANCH   2   3
ATOM      3  C   UNL     1       2.850   7.196  18.540  0.00  0.00    +0.000 A 
ATOM      4  C   UNL     1       2.294   7.361  19.816  0.00  0.00    +0.000 A 
ATOM      5  C   UNL     1       1.515   8.483  20.105  0.00  0.00    +0.000 A 
ATOM      6  C   UNL     1       1.297   9.437  19.115  0.00  0.00    +0.000 A 
ATOM      7  C   UNL     1       1.878   9.310  17.860  0.00  0.00    +0.000 A 
ATOM      8  C   UNL     1       2.672   8.197  17.576  0.00  0.00    +0.000 A 
BRANCH   6   9
ATOM      9  O   UNL     1       0.496  10.518  19.337  0.00  0.00    +0.000 OA
ATOM     10  H   UNL     1       0.315  10.947  18.485  0.00  0.00    +0.000 HD
ENDBRANCH   6   9
ENDBRANCH   2   3
BRANCH   2  11
ATOM     11  C   UNL     1       2.983   4.643  18.469  0.00  0.00    +0.000 A 
ATOM     12  C   UNL     1       3.485   3.802  19.472  0.00  0.00    +0.000 A 
ATOM     13  C   UNL     1       2.862   2.580  19.750  0.00  0.00    +0.000 A 
ATOM     14  C   UNL     1       1.735   2.204  19.025  0.00  0.00    +0.000 A 
ATOM     15  C   UNL     1       1.223   3.027  18.030  0.00  0.00    +0.000 A 
ATOM     16  C   UNL     1       1.844   4.247  17.752  0.00  0.00    +0.000 A 
BRANCH  14  17
ATOM     17  O   UNL     1       1.095   1.026  19.273  0.00  0.00    +0.000 OA
ATOM     18  H   UNL     1       1.105   0.491  18.462  0.00  0.00    +0.000 HD
ENDBRANCH  14  17
ENDBRANCH   2  11
BRANCH   1  20
ATOM     19  C   UNL     1       6.993   7.531  17.446  0.00  0.00    +0.000 C 
ATOM     20  C   UNL     1       5.493   7.391  17.241  0.00  0.00    +0.000 C 
ENDBRANCH   1  20
BRANCH   1  21
ATOM     21  C   UNL     1       5.591   4.765  17.217  0.00  0.00    +0.000 C 
BRANCH  21  22
ATOM     22  C   UNL     1       5.130   3.988  15.972  0.00  0.00    +0.000 C 
BRANCH  22  23
ATOM     23  C   UNL     1       5.989   4.269  14.765  0.00  0.00    +0.000 A 
ATOM     24  C   UNL     1       5.718   3.683  13.525  0.00  0.00    +0.000 A 
ATOM     25  C   UNL     1       6.536   3.965  12.435  0.00  0.00    +0.000 A 
ATOM     26  C   UNL     1       7.606   4.823  12.622  0.00  0.00    +0.000 A 
ATOM     27  N   UNL     1       7.904   5.405  13.803  0.00  0.00    +0.000 NA
ATOM     28  C   UNL     1       7.092   5.113  14.846  0.00  0.00    +0.000 A 
ENDBRANCH  22  23
ENDBRANCH  21  22
ENDBRANCH   1  21
TORSDOF 8
ENDMDL
MODEL 2
REMARK VINA RESULT:      -7.8      0.199      1.356
REMARK  Name = 
REMARK  9 active torsions:
REMARK  status: ('A' for Active; 'I' for Inactive)
REMARK    1  A    between atoms: C_1  and  C_2
REMARK    2  A    between atoms: C_2  and  C_3
REMARK    3  A    between atoms: C_3  and  C_4
REMARK    4  A    between atoms: C_4  and  C_5
REMARK    5  A    between atoms: C_5  and  C_6
REMARK    6  A    between atoms: C_12  and  C_13
REMARK    7  A    between atoms: C_12  and  C_20
REMARK    8  A    between atoms: C_16  and  O_17
REMARK    9  A    between atoms: C_23  and  O_24
REMARK                            x       y       z     vdW  Elec       q    Type
REMARK                         _______ _______ _______ _____ _____    ______ ____
ROOT
ATOM      1  C   UNL     1       4.663   6.122  17.683  0.00  0.00    +0.000 C 
ATOM      2  C   UNL     1       3.421   6.047  18.254  0.00  0.00    +0.000 C 
ENDROOT
BRANCH   2   3
ATOM      3  C   UNL     1       2.649   7.281  18.545  0.00  0.00    +0.000 A 
ATOM      4  C   UNL     1       2.433   8.237  17.543  0.00  0.00    +0.000 A 
ATOM      5  C   UNL     1       1.775   9.432  17.840  0.00  0.00    +0.000 A 
ATOM      6  C   UNL     1       1.334   9.664  19.139  0.00  0.00    +0.000 A 
ATOM      7  C   UNL     1       1.501   8.707  20.133  0.00  0.00    +0.000 A 
ATOM      8  C   UNL     1       2.143   7.505  19.832  0.00  0.00    +0.000 A 
BRANCH   6   9
ATOM      9  O   UNL     1       0.737  10.840  19.486  0.00  0.00    +0.000 OA
ATOM     10  H   UNL     1       0.644  10.865  20.452  0.00  0.00    +0.000 HD
ENDBRANCH   6   9
ENDBRANCH   2   3
BRANCH   2  11
ATOM     11  C   UNL     1       2.802   4.727  18.558  0.00  0.00    +0.000 A 
ATOM     12  C   UNL     1       1.686   4.278  17.840  0.00  0.00    +0.000 A 
ATOM     13  C   UNL     1       1.138   3.016  18.097  0.00  0.00    +0.000 A 
ATOM     14  C   UNL     1       1.712   2.205  19.071  0.00  0.00    +0.000 A 
ATOM     15  C   UNL     1       2.820   2.634  19.790  0.00  0.00    +0.000 A 
ATOM     16  C   UNL     1       3.368   3.893  19.534  0.00  0.00    +0.000 A 
BRANCH  14  17
ATOM     17  O   UNL     1       1.213   0.966  19.345  0.00  0.00    +0.000 OA
ATOM     18  H   UNL     1       1.110   0.482  18.509  0.00  0.00    +0.000 HD
ENDBRANCH  14  17
ENDBRANCH   2  11
BRANCH   1  20
ATOM     19  C   UNL     1       6.809   7.586  17.409  0.00  0.00    +0.000 C 
ATOM     20  C   UNL     1       5.301   7.454  17.263  0.00  0.00    +0.000 C 
ENDBRANCH   1  20
BRANCH   1  21
ATOM     21  C   UNL     1       5.420   4.830  17.325  0.00  0.00    +0.000 C 
BRANCH  21  22
ATOM     22  C   UNL     1       4.996   4.026  16.084  0.00  0.00    +0.000 C 
BRANCH  22  23
ATOM     23  C   UNL     1       5.888   4.286  14.896  0.00  0.00    +0.000 A 
ATOM     24  C   UNL     1       5.624   3.717  13.647  0.00  0.00    +0.000 A 
ATOM     25  C   UNL     1       6.473   3.977  12.576  0.00  0.00    +0.000 A 
ATOM     26  C   UNL     1       7.566   4.800  12.789  0.00  0.00    +0.000 A 
ATOM     27  N   UNL     1       7.858   5.365  13.980  0.00  0.00    +0.000 NA
ATOM     28  C   UNL     1       7.017   5.093  15.004  0.00  0.00    +0.000 A 
ENDBRANCH  22  23
ENDBRANCH  21  22
ENDBRANCH   1  21
TORSDOF 8
ENDMDL
MODEL 3
REMARK VINA RESULT:      -7.7      3.646      7.266
REMARK  Name = 
REMARK  9 active torsions:
REMARK  status: ('A' for Active; 'I' for Inactive)
REMARK    1  A    between atoms: C_1  and  C_2
REMARK    2  A    between atoms: C_2  and  C_3
REMARK    3  A    between atoms: C_3  and  C_4
REMARK    4  A    between atoms: C_4  and  C_5
REMARK    5  A    between atoms: C_5  and  C_6
REMARK    6  A    between atoms: C_12  and  C_13
REMARK    7  A    between atoms: C_12  and  C_20
REMARK    8  A    between atoms: C_16  and  O_17
REMARK    9  A    between atoms: C_23  and  O_24
REMARK                            x       y       z     vdW  Elec       q    Type
REMARK                         _______ _______ _______ _____ _____    ______ ____
ROOT
ATOM      1  C   UNL     1       2.327   7.313  18.612  0.00  0.00    +0.000 C 
ATOM      2  C   UNL     1       2.873   6.058  18.622  0.00  0.00    +0.000 C 
ENDROOT
BRANCH   2   3
ATOM      3  C   UNL     1       3.999   5.718  17.717  0.00  0.00    +0.000 A 
ATOM      4  C   UNL     1       3.992   4.517  16.994  0.00  0.00    +0.000 A 
ATOM      5  C   UNL     1       5.088   4.164  16.204  0.00  0.00    +0.000 A 
ATOM      6  C   UNL     1       6.186   5.017  16.140  0.00  0.00    +0.000 A 
ATOM      7  C   UNL     1       6.189   6.231  16.815  0.00  0.00    +0.000 A 
ATOM      8  C   UNL     1       5.086   6.592  17.590  0.00  0.00    +0.000 A 
BRANCH   6   9
ATOM      9  O   UNL     1       7.300   4.686  15.426  0.00  0.00    +0.000 OA
ATOM     10  H   UNL     1       7.536   5.437  14.857  0.00  0.00    +0.000 HD
ENDBRANCH   6   9
ENDBRANCH   2   3
BRANCH   2  11
ATOM     11  C   UNL     1       2.378   5.021  19.569  0.00  0.00    +0.000 A 
ATOM     12  C   UNL     1       1.345   4.149  19.198  0.00  0.00    +0.000 A 
ATOM     13  C   UNL     1       0.915   3.145  20.073  0.00  0.00    +0.000 A 
ATOM     14  C   UNL     1       1.525   3.014  21.317  0.00  0.00    +0.000 A 
ATOM     15  C   UNL     1       2.552   3.867  21.699  0.00  0.00    +0.000 A 
ATOM     16  C   UNL     1       2.981   4.870  20.826  0.00  0.00    +0.000 A 
BRANCH  14  17
ATOM     17  O   UNL     1       1.142   2.043  22.194  0.00  0.00    +0.000 OA
ATOM     18  H   UNL     1       1.494   2.261  23.073  0.00  0.00    +0.000 HD
ENDBRANCH  14  17
ENDBRANCH   2  11
BRANCH   1  20
ATOM     19  C   UNL     1       2.085   9.746  17.691  0.00  0.00    +0.000 C 
ATOM     20  C   UNL     1       2.868   8.443  17.724  0.00  0.00    +0.000 C 
ENDBRANCH   1  20
BRANCH   1  21
ATOM     21  C   UNL     1       1.206   7.669  19.606  0.00  0.00    +0.000 C 
BRANCH  21  22
ATOM     22  C   UNL     1       1.576   8.148  21.020  0.00  0.00    +0.000 C 
BRANCH  22  23
ATOM     23  C   UNL     1       0.662   9.240  21.517  0.00  0.00    +0.000 A 
ATOM     24  C   UNL     1       0.045  10.131  20.634  0.00  0.00    +0.000 A 
ATOM     25  C   UNL     1      -0.790  11.128  21.131  0.00  0.00    +0.000 A 
ATOM     26  C   UNL     1      -0.979  11.203  22.501  0.00  0.00    +0.000 A 
ATOM     27  N   UNL     1      -0.399  10.365  23.386  0.00  0.00    +0.000 NA
ATOM     28  C   UNL     1       0.409   9.407  22.875  0.00  0.00    +0.000 A 
ENDBRANCH  22  23
ENDBRANCH  21  22
ENDBRANCH   1  21
TORSDOF 8
ENDMDL
MODEL 4
REMARK VINA RESULT:      -7.7      3.601      7.124
REMARK  Name = 
REMARK  9 active torsions:
REMARK  status: ('A' for Active; 'I' for Inactive)
REMARK    1  A    between atoms: C_1  and  C_2
REMARK    2  A    between atoms: C_2  and  C_3
REMARK    3  A    between atoms: C_3  and  C_4
REMARK    4  A    between atoms: C_4  and  C_5
REMARK    5  A    between atoms: C_5  and  C_6
REMARK    6  A    between atoms: C_12  and  C_13
REMARK    7  A    between atoms: C_12  and  C_20
REMARK    8  A    between atoms: C_16  and  O_17
REMARK    9  A    between atoms: C_23  and  O_24
REMARK                            x       y       z     vdW  Elec       q    Type
REMARK                         _______ _______ _______ _____ _____    ______ ____
ROOT
ATOM      1  C   UNL     1       2.497   7.157  18.570  0.00  0.00    +0.000 C 
ATOM      2  C   UNL     1       3.050   5.906  18.637  0.00  0.00    +0.000 C 
ENDROOT
BRANCH   2   3
ATOM      3  C   UNL     1       4.229   5.558  17.806  0.00  0.00    +0.000 A 
ATOM      4  C   UNL     1       5.479   6.135  18.068  0.00  0.00    +0.000 A 
ATOM      5  C   UNL     1       6.568   5.865  17.236  0.00  0.00    +0.000 A 
ATOM      6  C   UNL     1       6.400   5.017  16.145  0.00  0.00    +0.000 A 
ATOM      7  C   UNL     1       5.178   4.403  15.898  0.00  0.00    +0.000 A 
ATOM      8  C   UNL     1       4.095   4.658  16.740  0.00  0.00    +0.000 A 
BRANCH   6   9
ATOM      9  O   UNL     1       7.420   4.771  15.274  0.00  0.00    +0.000 OA
ATOM     10  H   UNL     1       7.041   4.591  14.399  0.00  0.00    +0.000 HD
ENDBRANCH   6   9
ENDBRANCH   2   3
BRANCH   2  11
ATOM     11  C   UNL     1       2.507   4.884  19.574  0.00  0.00    +0.000 A 
ATOM     12  C   UNL     1       3.072   4.706  20.844  0.00  0.00    +0.000 A 
ATOM     13  C   UNL     1       2.527   3.778  21.738  0.00  0.00    +0.000 A 
ATOM     14  C   UNL     1       1.415   3.032  21.359  0.00  0.00    +0.000 A 
ATOM     15  C   UNL     1       0.842   3.198  20.105  0.00  0.00    +0.000 A 
ATOM     16  C   UNL     1       1.385   4.125  19.212  0.00  0.00    +0.000 A 
BRANCH  14  17
ATOM     17  O   UNL     1       0.850   2.124  22.205  0.00  0.00    +0.000 OA
ATOM     18  H   UNL     1       1.559   1.660  22.681  0.00  0.00    +0.000 HD
ENDBRANCH  14  17
ENDBRANCH   2  11
BRANCH   1  20
ATOM     19  C   UNL     1       2.357   9.611  17.684  0.00  0.00    +0.000 C 
ATOM     20  C   UNL     1       3.081   8.274  17.692  0.00  0.00    +0.000 C 
ENDBRANCH   1  20
BRANCH   1  21
ATOM     21  C   UNL     1       1.318   7.523  19.490  0.00  0.00    +0.000 C 
BRANCH  21  22
ATOM     22  C   UNL     1       1.595   7.916  20.951  0.00  0.00    +0.000 C 
BRANCH  22  23
ATOM     23  C   UNL     1       0.730   9.061  21.415  0.00  0.00    +0.000 A 
ATOM     24  C   UNL     1       0.087   9.904  20.504  0.00  0.00    +0.000 A 
ATOM     25  C   UNL     1      -0.701  10.952  20.970  0.00  0.00    +0.000 A 
ATOM     26  C   UNL     1      -0.817  11.127  22.339  0.00  0.00    +0.000 A 
ATOM     27  N   UNL     1      -0.210  10.338  23.250  0.00  0.00    +0.000 NA
ATOM     28  C   UNL     1       0.550   9.327  22.769  0.00  0.00    +0.000 A 
ENDBRANCH  22  23
ENDBRANCH  21  22
ENDBRANCH   1  21
TORSDOF 8
ENDMDL
MODEL 5
REMARK VINA RESULT:      -7.5      3.496      7.210
REMARK  Name = 
REMARK  9 active torsions:
REMARK  status: ('A' for Active; 'I' for Inactive)
REMARK    1  A    between atoms: C_1  and  C_2
REMARK    2  A    between atoms: C_2  and  C_3
REMARK    3  A    between atoms: C_3  and  C_4
REMARK    4  A    between atoms: C_4  and  C_5
REMARK    5  A    between atoms: C_5  and  C_6
REMARK    6  A    between atoms: C_12  and  C_13
REMARK    7  A    between atoms: C_12  and  C_20
REMARK    8  A    between atoms: C_16  and  O_17
REMARK    9  A    between atoms: C_23  and  O_24
REMARK                            x       y       z     vdW  Elec       q    Type
REMARK                         _______ _______ _______ _____ _____    ______ ____
ROOT
ATOM      1  C   UNL     1       2.366   7.258  18.611  0.00  0.00    +0.000 C 
ATOM      2  C   UNL     1       2.929   6.010  18.620  0.00  0.00    +0.000 C 
ENDROOT
BRANCH   2   3
ATOM      3  C   UNL     1       4.072   5.692  17.729  0.00  0.00    +0.000 A 
ATOM      4  C   UNL     1       4.001   4.610  16.840  0.00  0.00    +0.000 A 
ATOM      5  C   UNL     1       5.107   4.266  16.060  0.00  0.00    +0.000 A 
ATOM      6  C   UNL     1       6.279   5.008  16.171  0.00  0.00    +0.000 A 
ATOM      7  C   UNL     1       6.349   6.110  17.014  0.00  0.00    +0.000 A 
ATOM      8  C   UNL     1       5.239   6.465  17.781  0.00  0.00    +0.000 A 
BRANCH   6   9
ATOM      9  O   UNL     1       7.400   4.673  15.470  0.00  0.00    +0.000 OA
ATOM     10  H   UNL     1       7.172   3.966  14.845  0.00  0.00    +0.000 HD
ENDBRANCH   6   9
ENDBRANCH   2   3
BRANCH   2  11
ATOM     11  C   UNL     1       2.433   4.959  19.551  0.00  0.00    +0.000 A 
ATOM     12  C   UNL     1       3.002   4.803  20.822  0.00  0.00    +0.000 A 
ATOM     13  C   UNL     1       2.501   3.846  21.711  0.00  0.00    +0.000 A 
ATOM     14  C   UNL     1       1.426   3.050  21.326  0.00  0.00    +0.000 A 
ATOM     15  C   UNL     1       0.848   3.194  20.072  0.00  0.00    +0.000 A 
ATOM     16  C   UNL     1       1.348   4.149  19.184  0.00  0.00    +0.000 A 
BRANCH  14  17
ATOM     17  O   UNL     1       0.903   2.113  22.168  0.00  0.00    +0.000 OA
ATOM     18  H   UNL     1       1.249   1.241  21.915  0.00  0.00    +0.000 HD
ENDBRANCH  14  17
ENDBRANCH   2  11
BRANCH   1  20
ATOM     19  C   UNL     1       2.095   9.688  17.689  0.00  0.00    +0.000 C 
ATOM     20  C   UNL     1       2.905   8.402  17.738  0.00  0.00    +0.000 C 
ENDBRANCH   1  20
BRANCH   1  21
ATOM     21  C   UNL     1       1.226   7.591  19.590  0.00  0.00    +0.000 C 
BRANCH  21  22
ATOM     22  C   UNL     1       1.568   8.110  20.997  0.00  0.00    +0.000 C 
BRANCH  22  23
ATOM     23  C   UNL     1       0.629   9.196  21.456  0.00  0.00    +0.000 A 
ATOM     24  C   UNL     1       0.163   9.249  22.773  0.00  0.00    +0.000 A 
ATOM     25  C   UNL     1      -0.705  10.266  23.159  0.00  0.00    +0.000 A 
ATOM     26  C   UNL     1      -1.086  11.199  22.209  0.00  0.00    +0.000 A 
ATOM     27  N   UNL     1      -0.663  11.180  20.927  0.00  0.00    +0.000 NA
ATOM     28  C   UNL     1       0.180  10.180  20.580  0.00  0.00    +0.000 A 
ENDBRANCH  22  23
ENDBRANCH  21  22
ENDBRANCH   1  21
TORSDOF 8
ENDMDL
MODEL 6
REMARK VINA RESULT:      -7.4      0.610      1.350
REMARK  Name = 
REMARK  9 active torsions:
REMARK  status: ('A' for Active; 'I' for Inactive)
REMARK    1  A    between atoms: C_1  and  C_2
REMARK    2  A    between atoms: C_2  and  C_3
REMARK    3  A    between atoms: C_3  and  C_4
REMARK    4  A    between atoms: C_4  and  C_5
REMARK    5  A    between atoms: C_5  and  C_6
REMARK    6  A    between atoms: C_12  and  C_13
REMARK    7  A    between atoms: C_12  and  C_20
REMARK    8  A    between atoms: C_16  and  O_17
REMARK    9  A    between atoms: C_23  and  O_24
REMARK                            x       y       z     vdW  Elec       q    Type
REMARK                         _______ _______ _______ _____ _____    ______ ____
ROOT
ATOM      1  C   UNL     1       4.748   6.099  17.620  0.00  0.00    +0.000 C 
ATOM      2  C   UNL     1       3.516   6.045  18.216  0.00  0.00    +0.000 C 
ENDROOT
BRANCH   2   3
ATOM      3  C   UNL     1       2.781   7.293  18.541  0.00  0.00    +0.000 A 
ATOM      4  C   UNL     1       2.244   7.489  19.821  0.00  0.00    +0.000 A 
ATOM      5  C   UNL     1       1.487   8.628  20.101  0.00  0.00    +0.000 A 
ATOM      6  C   UNL     1       1.272   9.568  19.097  0.00  0.00    +0.000 A 
ATOM      7  C   UNL     1       1.835   9.410  17.837  0.00  0.00    +0.000 A 
ATOM      8  C   UNL     1       2.607   8.280  17.562  0.00  0.00    +0.000 A 
BRANCH   6   9
ATOM      9  O   UNL     1       0.492  10.667  19.310  0.00  0.00    +0.000 OA
ATOM     10  H   UNL     1       0.844  11.151  20.075  0.00  0.00    +0.000 HD
ENDBRANCH   6   9
ENDBRANCH   2   3
BRANCH   2  11
ATOM     11  C   UNL     1       2.871   4.737  18.512  0.00  0.00    +0.000 A 
ATOM     12  C   UNL     1       1.762   4.302  17.772  0.00  0.00    +0.000 A 
ATOM     13  C   UNL     1       1.189   3.050  18.022  0.00  0.00    +0.000 A 
ATOM     14  C   UNL     1       1.731   2.234  19.011  0.00  0.00    +0.000 A 
ATOM     15  C   UNL     1       2.831   2.648  19.751  0.00  0.00    +0.000 A 
ATOM     16  C   UNL     1       3.403   3.898  19.501  0.00  0.00    +0.000 A 
BRANCH  14  17
ATOM     17  O   UNL     1       1.207   1.004  19.278  0.00  0.00    +0.000 OA
ATOM     18  H   UNL     1       1.833   0.327  18.972  0.00  0.00    +0.000 HD
ENDBRANCH  14  17
ENDBRANCH   2  11
BRANCH   1  20
ATOM     19  C   UNL     1       6.924   7.513  17.324  0.00  0.00    +0.000 C 
ATOM     20  C   UNL     1       5.411   7.421  17.209  0.00  0.00    +0.000 C 
ENDBRANCH   1  20
BRANCH   1  21
ATOM     21  C   UNL     1       5.465   4.794  17.228  0.00  0.00    +0.000 C 
BRANCH  21  22
ATOM     22  C   UNL     1       4.947   3.980  16.030  0.00  0.00    +0.000 C 
BRANCH  22  23
ATOM     23  C   UNL     1       5.790   4.172  14.794  0.00  0.00    +0.000 A 
ATOM     24  C   UNL     1       6.953   4.947  14.818  0.00  0.00    +0.000 A 
ATOM     25  C   UNL     1       7.704   5.103  13.657  0.00  0.00    +0.000 A 
ATOM     26  C   UNL     1       7.263   4.479  12.502  0.00  0.00    +0.000 A 
ATOM     27  N   UNL     1       6.145   3.726  12.436  0.00  0.00    +0.000 NA
ATOM     28  C   UNL     1       5.434   3.592  13.580  0.00  0.00    +0.000 A 
ENDBRANCH  22  23
ENDBRANCH  21  22
ENDBRANCH   1  21
TORSDOF 8
ENDMDL
MODEL 7
REMARK VINA RESULT:      -7.3      3.514      7.256
REMARK  Name = 
REMARK  9 active torsions:
REMARK  status: ('A' for Active; 'I' for Inactive)
REMARK    1  A    between atoms: C_1  and  C_2
REMARK    2  A    between atoms: C_2  and  C_3
REMARK    3  A    between atoms: C_3  and  C_4
REMARK    4  A    between atoms: C_4  and  C_5
REMARK    5  A    between atoms: C_5  and  C_6
REMARK    6  A    between atoms: C_12  and  C_13
REMARK    7  A    between atoms: C_12  and  C_20
REMARK    8  A    between atoms: C_16  and  O_17
REMARK    9  A    between atoms: C_23  and  O_24
REMARK                            x       y       z     vdW  Elec       q    Type
REMARK                         _______ _______ _______ _____ _____    ______ ____
ROOT
ATOM      1  C   UNL     1       2.469   7.235  18.668  0.00  0.00    +0.000 C 
ATOM      2  C   UNL     1       3.021   5.985  18.749  0.00  0.00    +0.000 C 
ENDROOT
BRANCH   2   3
ATOM      3  C   UNL     1       4.227   5.640  17.956  0.00  0.00    +0.000 A 
ATOM      4  C   UNL     1       4.101   5.119  16.661  0.00  0.00    +0.000 A 
ATOM      5  C   UNL     1       5.235   4.724  15.948  0.00  0.00    +0.000 A 
ATOM      6  C   UNL     1       6.490   4.853  16.534  0.00  0.00    +0.000 A 
ATOM      7  C   UNL     1       6.634   5.409  17.800  0.00  0.00    +0.000 A 
ATOM      8  C   UNL     1       5.503   5.821  18.505  0.00  0.00    +0.000 A 
BRANCH   6   9
ATOM      9  O   UNL     1       7.618   4.427  15.897  0.00  0.00    +0.000 OA
ATOM     10  H   UNL     1       7.567   4.699  14.966  0.00  0.00    +0.000 HD
ENDBRANCH   6   9
ENDBRANCH   2   3
BRANCH   2  11
ATOM     11  C   UNL     1       2.448   4.958  19.663  0.00  0.00    +0.000 A 
ATOM     12  C   UNL     1       1.430   4.099  19.227  0.00  0.00    +0.000 A 
ATOM     13  C   UNL     1       0.929   3.105  20.074  0.00  0.00    +0.000 A 
ATOM     14  C   UNL     1       1.452   2.971  21.357  0.00  0.00    +0.000 A 
ATOM     15  C   UNL     1       2.463   3.811  21.804  0.00  0.00    +0.000 A 
ATOM     16  C   UNL     1       2.964   4.804  20.958  0.00  0.00    +0.000 A 
BRANCH  14  17
ATOM     17  O   UNL     1       0.997   2.009  22.209  0.00  0.00    +0.000 OA
ATOM     18  H   UNL     1       0.793   2.422  23.064  0.00  0.00    +0.000 HD
ENDBRANCH  14  17
ENDBRANCH   2  11
BRANCH   1  20
ATOM     19  C   UNL     1       2.291   9.649  17.684  0.00  0.00    +0.000 C 
ATOM     20  C   UNL     1       3.080   8.355  17.814  0.00  0.00    +0.000 C 
ENDBRANCH   1  20
BRANCH   1  21
ATOM     21  C   UNL     1       1.259   7.596  19.549  0.00  0.00    +0.000 C 
BRANCH  21  22
ATOM     22  C   UNL     1       1.479   7.918  21.037  0.00  0.00    +0.000 C 
BRANCH  22  23
ATOM     23  C   UNL     1       0.670   9.105  21.497  0.00  0.00    +0.000 A 
ATOM     24  C   UNL     1      -0.042   9.079  22.699  0.00  0.00    +0.000 A 
ATOM     25  C   UNL     1      -0.781  10.193  23.088  0.00  0.00    +0.000 A 
ATOM     26  C   UNL     1      -0.785  11.300  22.256  0.00  0.00    +0.000 A 
ATOM     27  N   UNL     1      -0.115  11.363  21.087  0.00  0.00    +0.000 NA
ATOM     28  C   UNL     1       0.593  10.266  20.733  0.00  0.00    +0.000 A 
ENDBRANCH  22  23
ENDBRANCH  21  22
ENDBRANCH   1  21
TORSDOF 8
ENDMDL
MODEL 8
REMARK VINA RESULT:      -7.3      1.263      1.326
REMARK  Name = 
REMARK  9 active torsions:
REMARK  status: ('A' for Active; 'I' for Inactive)
REMARK    1  A    between atoms: C_1  and  C_2
REMARK    2  A    between atoms: C_2  and  C_3
REMARK    3  A    between atoms: C_3  and  C_4
REMARK    4  A    between atoms: C_4  and  C_5
REMARK    5  A    between atoms: C_5  and  C_6
REMARK    6  A    between atoms: C_12  and  C_13
REMARK    7  A    between atoms: C_12  and  C_20
REMARK    8  A    between atoms: C_16  and  O_17
REMARK    9  A    between atoms: C_23  and  O_24
REMARK                            x       y       z     vdW  Elec       q    Type
REMARK                         _______ _______ _______ _____ _____    ______ ____
ROOT
ATOM      1  C   UNL     1       4.093   6.050  18.063  0.00  0.00    +0.000 C 
ATOM      2  C   UNL     1       2.992   6.219  18.859  0.00  0.00    +0.000 C 
ENDROOT
BRANCH   2   3
ATOM      3  C   UNL     1       2.296   7.528  18.915  0.00  0.00    +0.000 A 
ATOM      4  C   UNL     1       1.795   8.015  20.131  0.00  0.00    +0.000 A 
ATOM      5  C   UNL     1       1.074   9.210  20.167  0.00  0.00    +0.000 A 
ATOM      6  C   UNL     1       0.858   9.913  18.985  0.00  0.00    +0.000 A 
ATOM      7  C   UNL     1       1.386   9.466  17.780  0.00  0.00    +0.000 A 
ATOM      8  C   UNL     1       2.123   8.282  17.747  0.00  0.00    +0.000 A 
BRANCH   6   9
ATOM      9  O   UNL     1       0.111  11.054  18.965  0.00  0.00    +0.000 OA
ATOM     10  H   UNL     1      -0.351  11.135  19.815  0.00  0.00    +0.000 HD
ENDBRANCH   6   9
ENDBRANCH   2   3
BRANCH   2  11
ATOM     11  C   UNL     1       2.445   5.083  19.652  0.00  0.00    +0.000 A 
ATOM     12  C   UNL     1       2.899   4.836  20.955  0.00  0.00    +0.000 A 
ATOM     13  C   UNL     1       2.347   3.797  21.713  0.00  0.00    +0.000 A 
ATOM     14  C   UNL     1       1.339   3.010  21.165  0.00  0.00    +0.000 A 
ATOM     15  C   UNL     1       0.876   3.243  19.876  0.00  0.00    +0.000 A 
ATOM     16  C   UNL     1       1.426   4.280  19.119  0.00  0.00    +0.000 A 
BRANCH  14  17
ATOM     17  O   UNL     1       0.770   1.994  21.874  0.00  0.00    +0.000 OA
ATOM     18  H   UNL     1       0.072   1.590  21.333  0.00  0.00    +0.000 HD
ENDBRANCH  14  17
ENDBRANCH   2  11
BRANCH   1  20
ATOM     19  C   UNL     1       6.094   7.560  17.326  0.00  0.00    +0.000 C 
ATOM     20  C   UNL     1       4.636   7.163  17.155  0.00  0.00    +0.000 C 
ENDBRANCH   1  20
BRANCH   1  21
ATOM     21  C   UNL     1       4.762   4.666  17.965  0.00  0.00    +0.000 C 
BRANCH  21  22
ATOM     22  C   UNL     1       4.553   3.817  16.698  0.00  0.00    +0.000 C 
BRANCH  22  23
ATOM     23  C   UNL     1       5.543   4.151  15.611  0.00  0.00    +0.000 A 
ATOM     24  C   UNL     1       5.267   3.885  14.267  0.00  0.00    +0.000 A 
ATOM     25  C   UNL     1       6.207   4.204  13.292  0.00  0.00    +0.000 A 
ATOM     26  C   UNL     1       7.401   4.777  13.695  0.00  0.00    +0.000 A 
ATOM     27  N   UNL     1       7.708   5.046  14.982  0.00  0.00    +0.000 NA
ATOM     28  C   UNL     1       6.776   4.725  15.908  0.00  0.00    +0.000 A 
ENDBRANCH  22  23
ENDBRANCH  21  22
ENDBRANCH   1  21
TORSDOF 8
ENDMDL
MODEL 9
REMARK VINA RESULT:      -7.0      5.274     10.214
REMARK  Name = 
REMARK  9 active torsions:
REMARK  status: ('A' for Active; 'I' for Inactive)
REMARK    1  A    between atoms: C_1  and  C_2
REMARK    2  A    between atoms: C_2  and  C_3
REMARK    3  A    between atoms: C_3  and  C_4
REMARK    4  A    between atoms: C_4  and  C_5
REMARK    5  A    between atoms: C_5  and  C_6
REMARK    6  A    between atoms: C_12  and  C_13
REMARK    7  A    between atoms: C_12  and  C_20
REMARK    8  A    between atoms: C_16  and  O_17
REMARK    9  A    between atoms: C_23  and  O_24
REMARK                            x       y       z     vdW  Elec       q    Type
REMARK                         _______ _______ _______ _____ _____    ______ ____
ROOT
ATOM      1  C   UNL     1      -0.701  11.034  18.607  0.00  0.00    +0.000 C 
ATOM      2  C   UNL     1       0.617  10.889  18.951  0.00  0.00    +0.000 C 
ENDROOT
BRANCH   2   3
ATOM      3  C   UNL     1       1.240   9.543  18.995  0.00  0.00    +0.000 A 
ATOM      4  C   UNL     1       1.229   8.793  20.179  0.00  0.00    +0.000 A 
ATOM      5  C   UNL     1       1.884   7.561  20.239  0.00  0.00    +0.000 A 
ATOM      6  C   UNL     1       2.546   7.084  19.112  0.00  0.00    +0.000 A 
ATOM      7  C   UNL     1       2.528   7.795  17.918  0.00  0.00    +0.000 A 
ATOM      8  C   UNL     1       1.858   9.018  17.853  0.00  0.00    +0.000 A 
BRANCH   6   9
ATOM      9  O   UNL     1       3.246   5.914  19.143  0.00  0.00    +0.000 OA
ATOM     10  H   UNL     1       3.544   5.710  18.241  0.00  0.00    +0.000 HD
ENDBRANCH   6   9
ENDBRANCH   2   3
BRANCH   2  11
ATOM     11  C   UNL     1       1.461  12.079  19.247  0.00  0.00    +0.000 A 
ATOM     12  C   UNL     1       1.566  12.574  20.554  0.00  0.00    +0.000 A 
ATOM     13  C   UNL     1       2.399  13.663  20.834  0.00  0.00    +0.000 A 
ATOM     14  C   UNL     1       3.128  14.251  19.805  0.00  0.00    +0.000 A 
ATOM     15  C   UNL     1       3.038  13.771  18.505  0.00  0.00    +0.000 A 
ATOM     16  C   UNL     1       2.207  12.684  18.224  0.00  0.00    +0.000 A 
BRANCH  14  17
ATOM     17  O   UNL     1       3.957  15.308  20.040  0.00  0.00    +0.000 OA
ATOM     18  H   UNL     1       4.873  15.025  19.883  0.00  0.00    +0.000 HD
ENDBRANCH  14  17
ENDBRANCH   2  11
BRANCH   1  20
ATOM     19  C   UNL     1      -2.205   9.876  16.811  0.00  0.00    +0.000 C 
ATOM     20  C   UNL     1      -1.585   9.847  18.200  0.00  0.00    +0.000 C 
ENDBRANCH   1  20
BRANCH   1  21
ATOM     21  C   UNL     1      -1.313  12.443  18.499  0.00  0.00    +0.000 C 
BRANCH  21  22
ATOM     22  C   UNL     1      -2.456  12.843  19.449  0.00  0.00    +0.000 C 
BRANCH  22  23
ATOM     23  C   UNL     1      -1.963  13.187  20.832  0.00  0.00    +0.000 A 
ATOM     24  C   UNL     1      -1.880  12.220  21.837  0.00  0.00    +0.000 A 
ATOM     25  C   UNL     1      -1.423  12.577  23.103  0.00  0.00    +0.000 A 
ATOM     26  C   UNL     1      -1.067  13.897  23.323  0.00  0.00    +0.000 A 
ATOM     27  N   UNL     1      -1.136  14.861  22.381  0.00  0.00    +0.000 NA
ATOM     28  C   UNL     1      -1.585  14.485  21.160  0.00  0.00    +0.000 A 
ENDBRANCH  22  23
ENDBRANCH  21  22
ENDBRANCH   1  21
TORSDOF 8
ENDMDL
