MODEL 1
REMARK VINA RESULT:      -7.2      0.000      0.000
REMARK  Name = 
REMARK  11 active torsions:
REMARK  status: ('A' for Active; 'I' for Inactive)
REMARK    1  A    between atoms: C_1  and  C_2
REMARK    2  A    between atoms: C_2  and  C_3
REMARK    3  A    between atoms: C_3  and  S_4
REMARK    4  A    between atoms: S_4  and  C_5
REMARK    5  A    between atoms: N_14  and  C_15
REMARK    6  A    between atoms: N_16  and  C_17
REMARK    7  A    between atoms: C_17  and  C_18
REMARK    8  A    between atoms: C_18  and  O_19
REMARK    9  A    between atoms: C_18  and  C_20
REMARK   10  A    between atoms: C_20  and  O_21
REMARK   11  A    between atoms: O_21  and  C_22
REMARK                            x       y       z     vdW  Elec       q    Type
REMARK                         _______ _______ _______ _____ _____    ______ ____
ROOT
ATOM      1  C   UNL     1       3.546   4.098  17.292  0.00  0.00    +0.000 A 
ATOM      2  N   UNL     1       4.084   3.732  16.148  0.00  0.00    +0.000 NA
ATOM      3  C   UNL     1       5.198   4.505  16.031  0.00  0.00    +0.000 A 
ATOM      4  C   UNL     1       5.378   5.312  17.121  0.00  0.00    +0.000 A 
ATOM      5  C   UNL     1       6.493   6.184  17.240  0.00  0.00    +0.000 A 
ATOM      6  O   UNL     1       6.803   6.797  18.254  0.00  0.00    +0.000 OA
ATOM      7  N   UNL     1       7.251   6.241  16.093  0.00  0.00    +0.000 N 
ATOM      8  C   UNL     1       7.157   5.403  15.000  0.00  0.00    +0.000 A 
ATOM      9  O   UNL     1       8.019   5.478  14.125  0.00  0.00    +0.000 OA
ATOM     10  N   UNL     1       6.091   4.510  14.977  0.00  0.00    +0.000 N 
ATOM     11  C   UNL     1       5.943   3.583  13.873  0.00  0.00    +0.000 C 
ATOM     12  N   UNL     1       4.302   5.062  17.936  0.00  0.00    +0.000 N 
ATOM     13  H   UNL     1       8.065   6.837  16.115  0.00  0.00    +0.000 HD
ENDROOT
BRANCH   1  14
ATOM     14  S   UNL     1       2.063   3.500  17.960  0.00  0.00    +0.000 S 
BRANCH  14  15
ATOM     15  C   UNL     1       2.598   2.291  19.195  0.00  0.00    +0.000 C 
BRANCH  15  17
ATOM     16  C   UNL     1       0.952   3.806  20.378  0.00  0.00    +0.000 C 
ATOM     17  C   UNL     1       1.909   2.633  20.518  0.00  0.00    +0.000 C 
ENDBRANCH  15  17
ENDBRANCH  14  15
ENDBRANCH   1  14
BRANCH  12  18
ATOM     18  C   UNL     1       3.956   5.785  19.152  0.00  0.00    +0.000 C 
BRANCH  18  19
ATOM     19  C   UNL     1       2.737   6.713  19.050  0.00  0.00    +0.000 C 
BRANCH  19  20
ATOM     20  O   UNL     1       2.339   7.178  20.345  0.00  0.00    +0.000 OA
ATOM     21  H   UNL     1       2.750   6.607  21.022  0.00  0.00    +0.000 HD
ENDBRANCH  19  20
BRANCH  19  22
ATOM     22  C   UNL     1       2.944   7.883  18.085  0.00  0.00    +0.000 C 
BRANCH  22  23
ATOM     23  O   UNL     1       1.656   8.360  17.684  0.00  0.00    +0.000 OA
BRANCH  23  24
ATOM     24  C   UNL     1       1.361   9.648  18.026  0.00  0.00    +0.000 A 
ATOM     25  C   UNL     1       0.018   9.883  18.329  0.00  0.00    +0.000 A 
ATOM     26  C   UNL     1      -0.409  11.156  18.707  0.00  0.00    +0.000 A 
ATOM     27  C   UNL     1       0.512  12.194  18.802  0.00  0.00    +0.000 A 
ATOM     28  C   UNL     1       1.858  11.964  18.518  0.00  0.00    +0.000 A 
ATOM     29  C   UNL     1       2.284  10.690  18.127  0.00  0.00    +0.000 A 
ENDBRANCH  23  24
ENDBRANCH  22  23
ENDBRANCH  19  22
ENDBRANCH  18  19
ENDBRANCH  12  18
TORSDOF 9
ENDMDL
MODEL 2
REMARK VINA RESULT:      -7.1      1.038      1.301
REMARK  Name = 
REMARK  11 active torsions:
REMARK  status: ('A' for Active; 'I' for Inactive)
REMARK    1  A    between atoms: C_1  and  C_2
REMARK    2  A    between atoms: C_2  and  C_3
REMARK    3  A    between atoms: C_3  and  S_4
REMARK    4  A    between atoms: S_4  and  C_5
REMARK    5  A    between atoms: N_14  and  C_15
REMARK    6  A    between atoms: N_16  and  C_17
REMARK    7  A    between atoms: C_17  and  C_18
REMARK    8  A    between atoms: C_18  and  O_19
REMARK    9  A    between atoms: C_18  and  C_20
REMARK   10  A    between atoms: C_20  and  O_21
REMARK   11  A    between atoms: O_21  and  C_22
REMARK                            x       y       z     vdW  Elec       q    Type
REMARK                         _______ _______ _______ _____ _____    ______ ____
ROOT
ATOM      1  C   UNL     1       3.407   4.104  17.394  0.00  0.00    +0.000 A 
ATOM      2  N   UNL     1       3.895   3.858  16.197  0.00  0.00    +0.000 NA
ATOM      3  C   UNL     1       5.086   4.516  16.171  0.00  0.00    +0.000 A 
ATOM      4  C   UNL     1       5.359   5.126  17.365  0.00  0.00    +0.000 A 
ATOM      5  C   UNL     1       6.564   5.846  17.587  0.00  0.00    +0.000 A 
ATOM      6  O   UNL     1       6.945   6.263  18.675  0.00  0.00    +0.000 OA
ATOM      7  N   UNL     1       7.317   5.992  16.446  0.00  0.00    +0.000 N 
ATOM      8  C   UNL     1       7.126   5.343  15.243  0.00  0.00    +0.000 A 
ATOM      9  O   UNL     1       7.986   5.456  14.370  0.00  0.00    +0.000 OA
ATOM     10  N   UNL     1       5.968   4.583  15.110  0.00  0.00    +0.000 N 
ATOM     11  C   UNL     1       5.713   3.854  13.884  0.00  0.00    +0.000 C 
ATOM     12  N   UNL     1       4.268   4.874  18.158  0.00  0.00    +0.000 N 
ATOM     13  H   UNL     1       8.191   6.488  16.538  0.00  0.00    +0.000 HD
ENDROOT
BRANCH   1  14
ATOM     14  S   UNL     1       1.871   3.575  17.998  0.00  0.00    +0.000 S 
BRANCH  14  15
ATOM     15  C   UNL     1       2.292   2.244  19.150  0.00  0.00    +0.000 C 
BRANCH  15  17
ATOM     16  C   UNL     1       2.420   2.653  21.644  0.00  0.00    +0.000 C 
ATOM     17  C   UNL     1       1.506   2.476  20.443  0.00  0.00    +0.000 C 
ENDBRANCH  15  17
ENDBRANCH  14  15
ENDBRANCH   1  14
BRANCH  12  18
ATOM     18  C   UNL     1       4.010   5.438  19.475  0.00  0.00    +0.000 C 
BRANCH  18  19
ATOM     19  C   UNL     1       2.603   6.018  19.686  0.00  0.00    +0.000 C 
BRANCH  19  20
ATOM     20  O   UNL     1       2.221   5.940  21.064  0.00  0.00    +0.000 OA
ATOM     21  H   UNL     1       2.752   5.246  21.497  0.00  0.00    +0.000 HD
ENDBRANCH  19  20
BRANCH  19  22
ATOM     22  C   UNL     1       2.447   7.444  19.151  0.00  0.00    +0.000 C 
BRANCH  22  23
ATOM     23  O   UNL     1       1.929   8.260  20.205  0.00  0.00    +0.000 OA
BRANCH  23  24
ATOM     24  C   UNL     1       1.007   9.198  19.840  0.00  0.00    +0.000 A 
ATOM     25  C   UNL     1       0.326   9.798  20.901  0.00  0.00    +0.000 A 
ATOM     26  C   UNL     1      -0.632  10.782  20.660  0.00  0.00    +0.000 A 
ATOM     27  C   UNL     1      -0.897  11.183  19.354  0.00  0.00    +0.000 A 
ATOM     28  C   UNL     1      -0.209  10.602  18.289  0.00  0.00    +0.000 A 
ATOM     29  C   UNL     1       0.743   9.606  18.531  0.00  0.00    +0.000 A 
ENDBRANCH  23  24
ENDBRANCH  22  23
ENDBRANCH  19  22
ENDBRANCH  18  19
ENDBRANCH  12  18
TORSDOF 9
ENDMDL
MODEL 3
REMARK VINA RESULT:      -7.0      3.254      6.313
REMARK  Name = 
REMARK  11 active torsions:
REMARK  status: ('A' for Active; 'I' for Inactive)
REMARK    1  A    between atoms: C_1  and  C_2
REMARK    2  A    between atoms: C_2  and  C_3
REMARK    3  A    between atoms: C_3  and  S_4
REMARK    4  A    between atoms: S_4  and  C_5
REMARK    5  A    between atoms: N_14  and  C_15
REMARK    6  A    between atoms: N_16  and  C_17
REMARK    7  A    between atoms: C_17  and  C_18
REMARK    8  A    between atoms: C_18  and  O_19
REMARK    9  A    between atoms: C_18  and  C_20
REMARK   10  A    between atoms: C_20  and  O_21
REMARK   11  A    between atoms: O_21  and  C_22
REMARK                            x       y       z     vdW  Elec       q    Type
REMARK                         _______ _______ _______ _____ _____    ______ ____
ROOT
ATOM      1  C   UNL     1       4.947   4.122  16.561  0.00  0.00    +0.000 A 
ATOM      2  N   UNL     1       4.181   3.284  17.225  0.00  0.00    +0.000 NA
ATOM      3  C   UNL     1       3.426   4.077  18.033  0.00  0.00    +0.000 A 
ATOM      4  C   UNL     1       3.686   5.406  17.833  0.00  0.00    +0.000 A 
ATOM      5  C   UNL     1       2.994   6.425  18.539  0.00  0.00    +0.000 A 
ATOM      6  O   UNL     1       3.054   7.623  18.286  0.00  0.00    +0.000 OA
ATOM      7  N   UNL     1       2.181   5.930  19.532  0.00  0.00    +0.000 N 
ATOM      8  C   UNL     1       1.829   4.610  19.728  0.00  0.00    +0.000 A 
ATOM      9  O   UNL     1       0.959   4.349  20.558  0.00  0.00    +0.000 OA
ATOM     10  N   UNL     1       2.480   3.659  18.949  0.00  0.00    +0.000 N 
ATOM     11  C   UNL     1       2.144   2.255  19.082  0.00  0.00    +0.000 C 
ATOM     12  N   UNL     1       4.682   5.440  16.889  0.00  0.00    +0.000 N 
ATOM     13  H   UNL     1       1.653   6.604  20.067  0.00  0.00    +0.000 HD
ENDROOT
BRANCH   1  14
ATOM     14  S   UNL     1       6.172   3.694  15.412  0.00  0.00    +0.000 S 
BRANCH  14  15
ATOM     15  C   UNL     1       5.520   4.294  13.835  0.00  0.00    +0.000 C 
BRANCH  15  17
ATOM     16  C   UNL     1       5.267   2.766  11.833  0.00  0.00    +0.000 C 
ATOM     17  C   UNL     1       6.237   3.538  12.712  0.00  0.00    +0.000 C 
ENDBRANCH  15  17
ENDBRANCH  14  15
ENDBRANCH   1  14
BRANCH  12  18
ATOM     18  C   UNL     1       5.411   6.621  16.448  0.00  0.00    +0.000 C 
BRANCH  18  19
ATOM     19  C   UNL     1       6.770   6.855  17.125  0.00  0.00    +0.000 C 
BRANCH  19  20
ATOM     20  O   UNL     1       7.845   6.505  16.247  0.00  0.00    +0.000 OA
ATOM     21  H   UNL     1       8.283   7.324  15.947  0.00  0.00    +0.000 HD
ENDBRANCH  19  20
BRANCH  19  22
ATOM     22  C   UNL     1       6.942   8.277  17.667  0.00  0.00    +0.000 C 
BRANCH  22  23
ATOM     23  O   UNL     1       8.284   8.411  18.142  0.00  0.00    +0.000 OA
BRANCH  23  24
ATOM     24  C   UNL     1       8.680   9.676  18.469  0.00  0.00    +0.000 A 
ATOM     25  C   UNL     1       8.289  10.666  17.566  0.00  0.00    +0.000 A 
ATOM     26  C   UNL     1       8.620  12.002  17.794  0.00  0.00    +0.000 A 
ATOM     27  C   UNL     1       9.329  12.352  18.940  0.00  0.00    +0.000 A 
ATOM     28  C   UNL     1       9.707  11.371  19.856  0.00  0.00    +0.000 A 
ATOM     29  C   UNL     1       9.385  10.030  19.620  0.00  0.00    +0.000 A 
ENDBRANCH  23  24
ENDBRANCH  22  23
ENDBRANCH  19  22
ENDBRANCH  18  19
ENDBRANCH  12  18
TORSDOF 9
ENDMDL
MODEL 4
REMARK VINA RESULT:      -7.0      0.989      1.158
REMARK  Name = 
REMARK  11 active torsions:
REMARK  status: ('A' for Active; 'I' for Inactive)
REMARK    1  A    between atoms: C_1  and  C_2
REMARK    2  A    between atoms: C_2  and  C_3
REMARK    3  A    between atoms: C_3  and  S_4
REMARK    4  A    between atoms: S_4  and  C_5
REMARK    5  A    between atoms: N_14  and  C_15
REMARK    6  A    between atoms: N_16  and  C_17
REMARK    7  A    between atoms: C_17  and  C_18
REMARK    8  A    between atoms: C_18  and  O_19
REMARK    9  A    between atoms: C_18  and  C_20
REMARK   10  A    between atoms: C_20  and  O_21
REMARK   11  A    between atoms: O_21  and  C_22
REMARK                            x       y       z     vdW  Elec       q    Type
REMARK                         _______ _______ _______ _____ _____    ______ ____
ROOT
ATOM      1  C   UNL     1       3.626   3.985  17.289  0.00  0.00    +0.000 A 
ATOM      2  N   UNL     1       4.139   3.680  16.116  0.00  0.00    +0.000 NA
ATOM      3  C   UNL     1       5.258   4.449  16.021  0.00  0.00    +0.000 A 
ATOM      4  C   UNL     1       5.466   5.191  17.152  0.00  0.00    +0.000 A 
ATOM      5  C   UNL     1       6.591   6.045  17.297  0.00  0.00    +0.000 A 
ATOM      6  O   UNL     1       6.926   6.598  18.339  0.00  0.00    +0.000 OA
ATOM      7  N   UNL     1       7.328   6.160  16.142  0.00  0.00    +0.000 N 
ATOM      8  C   UNL     1       7.205   5.387  15.005  0.00  0.00    +0.000 A 
ATOM      9  O   UNL     1       8.052   5.504  14.119  0.00  0.00    +0.000 OA
ATOM     10  N   UNL     1       6.131   4.506  14.952  0.00  0.00    +0.000 N 
ATOM     11  C   UNL     1       5.952   3.644  13.800  0.00  0.00    +0.000 C 
ATOM     12  N   UNL     1       4.403   4.905  17.972  0.00  0.00    +0.000 N 
ATOM     13  H   UNL     1       8.148   6.748  16.181  0.00  0.00    +0.000 HD
ENDROOT
BRANCH   1  14
ATOM     14  S   UNL     1       2.150   3.363  17.951  0.00  0.00    +0.000 S 
BRANCH  14  15
ATOM     15  C   UNL     1       2.695   2.053  19.073  0.00  0.00    +0.000 C 
BRANCH  15  17
ATOM     16  C   UNL     1       1.161   3.042  20.827  0.00  0.00    +0.000 C 
ATOM     17  C   UNL     1       2.573   2.580  20.506  0.00  0.00    +0.000 C 
ENDBRANCH  15  17
ENDBRANCH  14  15
ENDBRANCH   1  14
BRANCH  12  18
ATOM     18  C   UNL     1       4.087   5.560  19.233  0.00  0.00    +0.000 C 
BRANCH  18  19
ATOM     19  C   UNL     1       2.674   6.153  19.339  0.00  0.00    +0.000 C 
BRANCH  19  20
ATOM     20  O   UNL     1       2.383   6.541  20.687  0.00  0.00    +0.000 OA
ATOM     21  H   UNL     1       3.127   6.271  21.257  0.00  0.00    +0.000 HD
ENDBRANCH  19  20
BRANCH  19  22
ATOM     22  C   UNL     1       2.426   7.309  18.367  0.00  0.00    +0.000 C 
BRANCH  22  23
ATOM     23  O   UNL     1       2.438   8.529  19.115  0.00  0.00    +0.000 OA
BRANCH  23  24
ATOM     24  C   UNL     1       1.258   9.212  19.167  0.00  0.00    +0.000 A 
ATOM     25  C   UNL     1       0.651   9.431  17.928  0.00  0.00    +0.000 A 
ATOM     26  C   UNL     1      -0.567  10.106  17.847  0.00  0.00    +0.000 A 
ATOM     27  C   UNL     1      -1.191  10.546  19.011  0.00  0.00    +0.000 A 
ATOM     28  C   UNL     1      -0.601  10.316  20.253  0.00  0.00    +0.000 A 
ATOM     29  C   UNL     1       0.627   9.650  20.332  0.00  0.00    +0.000 A 
ENDBRANCH  23  24
ENDBRANCH  22  23
ENDBRANCH  19  22
ENDBRANCH  18  19
ENDBRANCH  12  18
TORSDOF 9
ENDMDL
MODEL 5
REMARK VINA RESULT:      -6.9      1.680      1.944
REMARK  Name = 
REMARK  11 active torsions:
REMARK  status: ('A' for Active; 'I' for Inactive)
REMARK    1  A    between atoms: C_1  and  C_2
REMARK    2  A    between atoms: C_2  and  C_3
REMARK    3  A    between atoms: C_3  and  S_4
REMARK    4  A    between atoms: S_4  and  C_5
REMARK    5  A    between atoms: N_14  and  C_15
REMARK    6  A    between atoms: N_16  and  C_17
REMARK    7  A    between atoms: C_17  and  C_18
REMARK    8  A    between atoms: C_18  and  O_19
REMARK    9  A    between atoms: C_18  and  C_20
REMARK   10  A    between atoms: C_20  and  O_21
REMARK   11  A    between atoms: O_21  and  C_22
REMARK                            x       y       z     vdW  Elec       q    Type
REMARK                         _______ _______ _______ _____ _____    ______ ____
ROOT
ATOM      1  C   UNL     1       3.533   4.117  17.269  0.00  0.00    +0.000 A 
ATOM      2  N   UNL     1       4.042   3.780  16.103  0.00  0.00    +0.000 NA
ATOM      3  C   UNL     1       5.198   4.493  16.016  0.00  0.00    +0.000 A 
ATOM      4  C   UNL     1       5.431   5.230  17.145  0.00  0.00    +0.000 A 
ATOM      5  C   UNL     1       6.595   6.028  17.297  0.00  0.00    +0.000 A 
ATOM      6  O   UNL     1       6.947   6.570  18.340  0.00  0.00    +0.000 OA
ATOM      7  N   UNL     1       7.349   6.101  16.149  0.00  0.00    +0.000 N 
ATOM      8  C   UNL     1       7.199   5.328  15.015  0.00  0.00    +0.000 A 
ATOM      9  O   UNL     1       8.060   5.398  14.138  0.00  0.00    +0.000 OA
ATOM     10  N   UNL     1       6.083   4.500  14.955  0.00  0.00    +0.000 N 
ATOM     11  C   UNL     1       5.874   3.642  13.806  0.00  0.00    +0.000 C 
ATOM     12  N   UNL     1       4.347   5.001  17.955  0.00  0.00    +0.000 N 
ATOM     13  H   UNL     1       8.196   6.647  16.194  0.00  0.00    +0.000 HD
ENDROOT
BRANCH   1  14
ATOM     14  S   UNL     1       2.021   3.572  17.919  0.00  0.00    +0.000 S 
BRANCH  14  15
ATOM     15  C   UNL     1       2.500   2.409  19.219  0.00  0.00    +0.000 C 
BRANCH  15  17
ATOM     16  C   UNL     1       1.372   3.797  21.010  0.00  0.00    +0.000 C 
ATOM     17  C   UNL     1       1.423   2.450  20.307  0.00  0.00    +0.000 C 
ENDBRANCH  15  17
ENDBRANCH  14  15
ENDBRANCH   1  14
BRANCH  12  18
ATOM     18  C   UNL     1       4.051   5.678  19.210  0.00  0.00    +0.000 C 
BRANCH  18  19
ATOM     19  C   UNL     1       3.430   7.077  19.080  0.00  0.00    +0.000 C 
BRANCH  19  20
ATOM     20  O   UNL     1       3.218   7.416  17.705  0.00  0.00    +0.000 OA
ATOM     21  H   UNL     1       2.899   8.337  17.656  0.00  0.00    +0.000 HD
ENDBRANCH  19  20
BRANCH  19  22
ATOM     22  C   UNL     1       2.145   7.249  19.894  0.00  0.00    +0.000 C 
BRANCH  22  23
ATOM     23  O   UNL     1       1.518   8.466  19.482  0.00  0.00    +0.000 OA
BRANCH  23  24
ATOM     24  C   UNL     1       0.846   9.152  20.452  0.00  0.00    +0.000 A 
ATOM     25  C   UNL     1       1.050   8.686  21.752  0.00  0.00    +0.000 A 
ATOM     26  C   UNL     1       0.430   9.311  22.834  0.00  0.00    +0.000 A 
ATOM     27  C   UNL     1      -0.383  10.419  22.618  0.00  0.00    +0.000 A 
ATOM     28  C   UNL     1      -0.579  10.903  21.324  0.00  0.00    +0.000 A 
ATOM     29  C   UNL     1       0.034  10.268  20.239  0.00  0.00    +0.000 A 
ENDBRANCH  23  24
ENDBRANCH  22  23
ENDBRANCH  19  22
ENDBRANCH  18  19
ENDBRANCH  12  18
TORSDOF 9
ENDMDL
MODEL 6
REMARK VINA RESULT:      -6.9      3.525      6.205
REMARK  Name = 
REMARK  11 active torsions:
REMARK  status: ('A' for Active; 'I' for Inactive)
REMARK    1  A    between atoms: C_1  and  C_2
REMARK    2  A    between atoms: C_2  and  C_3
REMARK    3  A    between atoms: C_3  and  S_4
REMARK    4  A    between atoms: S_4  and  C_5
REMARK    5  A    between atoms: N_14  and  C_15
REMARK    6  A    between atoms: N_16  and  C_17
REMARK    7  A    between atoms: C_17  and  C_18
REMARK    8  A    between atoms: C_18  and  O_19
REMARK    9  A    between atoms: C_18  and  C_20
REMARK   10  A    between atoms: C_20  and  O_21
REMARK   11  A    between atoms: O_21  and  C_22
REMARK                            x       y       z     vdW  Elec       q    Type
REMARK                         _______ _______ _______ _____ _____    ______ ____
ROOT
ATOM      1  C   UNL     1       3.165   6.920  18.397  0.00  0.00    +0.000 A 
ATOM      2  N   UNL     1       2.537   6.174  19.280  0.00  0.00    +0.000 NA
ATOM      3  C   UNL     1       3.332   5.080  19.431  0.00  0.00    +0.000 A 
ATOM      4  C   UNL     1       4.474   5.171  18.682  0.00  0.00    +0.000 A 
ATOM      5  C   UNL     1       5.472   4.161  18.703  0.00  0.00    +0.000 A 
ATOM      6  O   UNL     1       6.585   4.259  18.197  0.00  0.00    +0.000 OA
ATOM      7  N   UNL     1       5.090   3.045  19.411  0.00  0.00    +0.000 N 
ATOM      8  C   UNL     1       3.990   2.930  20.237  0.00  0.00    +0.000 A 
ATOM      9  O   UNL     1       3.878   1.919  20.931  0.00  0.00    +0.000 OA
ATOM     10  N   UNL     1       3.086   3.987  20.239  0.00  0.00    +0.000 N 
ATOM     11  C   UNL     1       1.921   3.947  21.100  0.00  0.00    +0.000 C 
ATOM     12  N   UNL     1       4.364   6.356  17.999  0.00  0.00    +0.000 N 
ATOM     13  H   UNL     1       5.759   2.292  19.471  0.00  0.00    +0.000 HD
ENDROOT
BRANCH   1  14
ATOM     14  S   UNL     1       2.605   8.429  17.753  0.00  0.00    +0.000 S 
BRANCH  14  15
ATOM     15  C   UNL     1       1.505   9.070  19.038  0.00  0.00    +0.000 C 
BRANCH  15  17
ATOM     16  C   UNL     1      -0.729  10.237  19.267  0.00  0.00    +0.000 C 
ATOM     17  C   UNL     1       0.460   9.961  18.361  0.00  0.00    +0.000 C 
ENDBRANCH  15  17
ENDBRANCH  14  15
ENDBRANCH   1  14
BRANCH  12  18
ATOM     18  C   UNL     1       5.258   6.834  16.953  0.00  0.00    +0.000 C 
BRANCH  18  19
ATOM     19  C   UNL     1       6.716   7.065  17.378  0.00  0.00    +0.000 C 
BRANCH  19  20
ATOM     20  O   UNL     1       7.620   6.422  16.472  0.00  0.00    +0.000 OA
ATOM     21  H   UNL     1       7.608   6.905  15.624  0.00  0.00    +0.000 HD
ENDBRANCH  19  20
BRANCH  19  22
ATOM     22  C   UNL     1       7.071   8.543  17.554  0.00  0.00    +0.000 C 
BRANCH  22  23
ATOM     23  O   UNL     1       8.374   8.621  18.140  0.00  0.00    +0.000 OA
BRANCH  23  24
ATOM     24  C   UNL     1       8.784   9.863  18.526  0.00  0.00    +0.000 A 
ATOM     25  C   UNL     1       8.531  10.880  17.603  0.00  0.00    +0.000 A 
ATOM     26  C   UNL     1       8.890  12.198  17.886  0.00  0.00    +0.000 A 
ATOM     27  C   UNL     1       9.488  12.504  19.105  0.00  0.00    +0.000 A 
ATOM     28  C   UNL     1       9.728  11.498  20.040  0.00  0.00    +0.000 A 
ATOM     29  C   UNL     1       9.379  10.175  19.750  0.00  0.00    +0.000 A 
ENDBRANCH  23  24
ENDBRANCH  22  23
ENDBRANCH  19  22
ENDBRANCH  18  19
ENDBRANCH  12  18
TORSDOF 9
ENDMDL
MODEL 7
REMARK VINA RESULT:      -6.8      2.730      6.506
REMARK  Name = 
REMARK  11 active torsions:
REMARK  status: ('A' for Active; 'I' for Inactive)
REMARK    1  A    between atoms: C_1  and  C_2
REMARK    2  A    between atoms: C_2  and  C_3
REMARK    3  A    between atoms: C_3  and  S_4
REMARK    4  A    between atoms: S_4  and  C_5
REMARK    5  A    between atoms: N_14  and  C_15
REMARK    6  A    between atoms: N_16  and  C_17
REMARK    7  A    between atoms: C_17  and  C_18
REMARK    8  A    between atoms: C_18  and  O_19
REMARK    9  A    between atoms: C_18  and  C_20
REMARK   10  A    between atoms: C_20  and  O_21
REMARK   11  A    between atoms: O_21  and  C_22
REMARK                            x       y       z     vdW  Elec       q    Type
REMARK                         _______ _______ _______ _____ _____    ______ ____
ROOT
ATOM      1  C   UNL     1       2.813   6.668  18.089  0.00  0.00    +0.000 A 
ATOM      2  N   UNL     1       1.988   5.647  18.185  0.00  0.00    +0.000 NA
ATOM      3  C   UNL     1       2.794   4.577  18.428  0.00  0.00    +0.000 A 
ATOM      4  C   UNL     1       4.109   4.942  18.533  0.00  0.00    +0.000 A 
ATOM      5  C   UNL     1       5.132   3.999  18.819  0.00  0.00    +0.000 A 
ATOM      6  O   UNL     1       6.293   4.281  19.095  0.00  0.00    +0.000 OA
ATOM      7  N   UNL     1       4.681   2.700  18.809  0.00  0.00    +0.000 N 
ATOM      8  C   UNL     1       3.365   2.285  18.780  0.00  0.00    +0.000 A 
ATOM      9  O   UNL     1       3.120   1.090  18.946  0.00  0.00    +0.000 OA
ATOM     10  N   UNL     1       2.396   3.263  18.580  0.00  0.00    +0.000 N 
ATOM     11  C   UNL     1       0.992   2.905  18.563  0.00  0.00    +0.000 C 
ATOM     12  N   UNL     1       4.129   6.294  18.301  0.00  0.00    +0.000 N 
ATOM     13  H   UNL     1       5.359   1.980  19.013  0.00  0.00    +0.000 HD
ENDROOT
BRANCH   1  14
ATOM     14  S   UNL     1       2.374   8.305  17.726  0.00  0.00    +0.000 S 
BRANCH  14  15
ATOM     15  C   UNL     1       1.359   8.806  19.137  0.00  0.00    +0.000 C 
BRANCH  15  17
ATOM     16  C   UNL     1       1.060   8.388  21.616  0.00  0.00    +0.000 C 
ATOM     17  C   UNL     1       1.814   7.997  20.355  0.00  0.00    +0.000 C 
ENDBRANCH  15  17
ENDBRANCH  14  15
ENDBRANCH   1  14
BRANCH  12  18
ATOM     18  C   UNL     1       5.315   7.126  18.153  0.00  0.00    +0.000 C 
BRANCH  18  19
ATOM     19  C   UNL     1       6.127   6.905  16.868  0.00  0.00    +0.000 C 
BRANCH  19  20
ATOM     20  O   UNL     1       7.354   6.224  17.150  0.00  0.00    +0.000 OA
ATOM     21  H   UNL     1       7.501   6.231  18.115  0.00  0.00    +0.000 HD
ENDBRANCH  19  20
BRANCH  19  22
ATOM     22  C   UNL     1       5.340   6.190  15.767  0.00  0.00    +0.000 C 
BRANCH  22  23
ATOM     23  O   UNL     1       5.923   4.899  15.571  0.00  0.00    +0.000 OA
BRANCH  23  24
ATOM     24  C   UNL     1       6.352   4.620  14.306  0.00  0.00    +0.000 A 
ATOM     25  C   UNL     1       5.577   3.686  13.615  0.00  0.00    +0.000 A 
ATOM     26  C   UNL     1       5.902   3.326  12.307  0.00  0.00    +0.000 A 
ATOM     27  C   UNL     1       6.995   3.917  11.680  0.00  0.00    +0.000 A 
ATOM     28  C   UNL     1       7.764   4.864  12.357  0.00  0.00    +0.000 A 
ATOM     29  C   UNL     1       7.444   5.215  13.672  0.00  0.00    +0.000 A 
ENDBRANCH  23  24
ENDBRANCH  22  23
ENDBRANCH  19  22
ENDBRANCH  18  19
ENDBRANCH  12  18
TORSDOF 9
ENDMDL
MODEL 8
REMARK VINA RESULT:      -6.8      0.749      1.101
REMARK  Name = 
REMARK  11 active torsions:
REMARK  status: ('A' for Active; 'I' for Inactive)
REMARK    1  A    between atoms: C_1  and  C_2
REMARK    2  A    between atoms: C_2  and  C_3
REMARK    3  A    between atoms: C_3  and  S_4
REMARK    4  A    between atoms: S_4  and  C_5
REMARK    5  A    between atoms: N_14  and  C_15
REMARK    6  A    between atoms: N_16  and  C_17
REMARK    7  A    between atoms: C_17  and  C_18
REMARK    8  A    between atoms: C_18  and  O_19
REMARK    9  A    between atoms: C_18  and  C_20
REMARK   10  A    between atoms: C_20  and  O_21
REMARK   11  A    between atoms: O_21  and  C_22
REMARK                            x       y       z     vdW  Elec       q    Type
REMARK                         _______ _______ _______ _____ _____    ______ ____
ROOT
ATOM      1  C   UNL     1       3.485   4.015  17.351  0.00  0.00    +0.000 A 
ATOM      2  N   UNL     1       4.001   3.755  16.169  0.00  0.00    +0.000 NA
ATOM      3  C   UNL     1       5.164   4.460  16.140  0.00  0.00    +0.000 A 
ATOM      4  C   UNL     1       5.395   5.114  17.320  0.00  0.00    +0.000 A 
ATOM      5  C   UNL     1       6.566   5.888  17.537  0.00  0.00    +0.000 A 
ATOM      6  O   UNL     1       6.914   6.351  18.618  0.00  0.00    +0.000 OA
ATOM      7  N   UNL     1       7.330   6.033  16.403  0.00  0.00    +0.000 N 
ATOM      8  C   UNL     1       7.182   5.343  15.216  0.00  0.00    +0.000 A 
ATOM      9  O   UNL     1       8.051   5.466  14.352  0.00  0.00    +0.000 OA
ATOM     10  N   UNL     1       6.059   4.533  15.090  0.00  0.00    +0.000 N 
ATOM     11  C   UNL     1       5.851   3.759  13.882  0.00  0.00    +0.000 C 
ATOM     12  N   UNL     1       4.303   4.840  18.104  0.00  0.00    +0.000 N 
ATOM     13  H   UNL     1       8.182   6.566  16.492  0.00  0.00    +0.000 HD
ENDROOT
BRANCH   1  14
ATOM     14  S   UNL     1       1.963   3.441  17.949  0.00  0.00    +0.000 S 
BRANCH  14  15
ATOM     15  C   UNL     1       2.418   2.342  19.312  0.00  0.00    +0.000 C 
BRANCH  15  17
ATOM     16  C   UNL     1       2.254   3.001  21.751  0.00  0.00    +0.000 C 
ATOM     17  C   UNL     1       1.485   2.642  20.489  0.00  0.00    +0.000 C 
ENDBRANCH  15  17
ENDBRANCH  14  15
ENDBRANCH   1  14
BRANCH  12  18
ATOM     18  C   UNL     1       4.003   5.431  19.401  0.00  0.00    +0.000 C 
BRANCH  18  19
ATOM     19  C   UNL     1       2.679   6.206  19.489  0.00  0.00    +0.000 C 
BRANCH  19  20
ATOM     20  O   UNL     1       2.295   6.407  20.854  0.00  0.00    +0.000 OA
ATOM     21  H   UNL     1       1.670   5.703  21.109  0.00  0.00    +0.000 HD
ENDBRANCH  19  20
BRANCH  19  22
ATOM     22  C   UNL     1       2.698   7.530  18.721  0.00  0.00    +0.000 C 
BRANCH  22  23
ATOM     23  O   UNL     1       1.413   8.141  18.858  0.00  0.00    +0.000 OA
BRANCH  23  24
ATOM     24  C   UNL     1       1.407   9.497  19.013  0.00  0.00    +0.000 A 
ATOM     25  C   UNL     1       2.102  10.204  18.029  0.00  0.00    +0.000 A 
ATOM     26  C   UNL     1       2.159  11.597  18.066  0.00  0.00    +0.000 A 
ATOM     27  C   UNL     1       1.504  12.288  19.080  0.00  0.00    +0.000 A 
ATOM     28  C   UNL     1       0.793  11.591  20.057  0.00  0.00    +0.000 A 
ATOM     29  C   UNL     1       0.746  10.193  20.026  0.00  0.00    +0.000 A 
ENDBRANCH  23  24
ENDBRANCH  22  23
ENDBRANCH  19  22
ENDBRANCH  18  19
ENDBRANCH  12  18
TORSDOF 9
ENDMDL
MODEL 9
REMARK VINA RESULT:      -6.8      2.358      6.761
REMARK  Name = 
REMARK  11 active torsions:
REMARK  status: ('A' for Active; 'I' for Inactive)
REMARK    1  A    between atoms: C_1  and  C_2
REMARK    2  A    between atoms: C_2  and  C_3
REMARK    3  A    between atoms: C_3  and  S_4
REMARK    4  A    between atoms: S_4  and  C_5
REMARK    5  A    between atoms: N_14  and  C_15
REMARK    6  A    between atoms: N_16  and  C_17
REMARK    7  A    between atoms: C_17  and  C_18
REMARK    8  A    between atoms: C_18  and  O_19
REMARK    9  A    between atoms: C_18  and  C_20
REMARK   10  A    between atoms: C_20  and  O_21
REMARK   11  A    between atoms: O_21  and  C_22
REMARK                            x       y       z     vdW  Elec       q    Type
REMARK                         _______ _______ _______ _____ _____    ______ ____
ROOT
ATOM      1  C   UNL     1       2.570   5.250  20.066  0.00  0.00    +0.000 A 
ATOM      2  N   UNL     1       1.853   6.152  20.701  0.00  0.00    +0.000 NA
ATOM      3  C   UNL     1       1.914   7.257  19.908  0.00  0.00    +0.000 A 
ATOM      4  C   UNL     1       2.624   7.025  18.762  0.00  0.00    +0.000 A 
ATOM      5  C   UNL     1       2.794   8.022  17.765  0.00  0.00    +0.000 A 
ATOM      6  O   UNL     1       3.264   7.830  16.649  0.00  0.00    +0.000 OA
ATOM      7  N   UNL     1       2.320   9.253  18.154  0.00  0.00    +0.000 N 
ATOM      8  C   UNL     1       1.540   9.524  19.259  0.00  0.00    +0.000 A 
ATOM      9  O   UNL     1       1.057  10.651  19.377  0.00  0.00    +0.000 OA
ATOM     10  N   UNL     1       1.337   8.486  20.161  0.00  0.00    +0.000 N 
ATOM     11  C   UNL     1       0.507   8.690  21.332  0.00  0.00    +0.000 C 
ATOM     12  N   UNL     1       3.063   5.729  18.865  0.00  0.00    +0.000 N 
ATOM     13  H   UNL     1       2.404  10.005  17.486  0.00  0.00    +0.000 HD
ENDROOT
BRANCH   1  14
ATOM     14  S   UNL     1       2.911   3.643  20.619  0.00  0.00    +0.000 S 
BRANCH  14  15
ATOM     15  C   UNL     1       1.290   2.839  20.648  0.00  0.00    +0.000 C 
BRANCH  15  17
ATOM     16  C   UNL     1       1.805   2.132  18.272  0.00  0.00    +0.000 C 
ATOM     17  C   UNL     1       0.781   2.757  19.205  0.00  0.00    +0.000 C 
ENDBRANCH  15  17
ENDBRANCH  14  15
ENDBRANCH   1  14
BRANCH  12  18
ATOM     18  C   UNL     1       3.990   5.058  17.963  0.00  0.00    +0.000 C 
BRANCH  18  19
ATOM     19  C   UNL     1       5.469   5.437  18.127  0.00  0.00    +0.000 C 
BRANCH  19  20
ATOM     20  O   UNL     1       6.007   4.881  19.333  0.00  0.00    +0.000 OA
ATOM     21  H   UNL     1       5.728   5.436  20.084  0.00  0.00    +0.000 HD
ENDBRANCH  19  20
BRANCH  19  22
ATOM     22  C   UNL     1       6.329   5.065  16.917  0.00  0.00    +0.000 C 
BRANCH  22  23
ATOM     23  O   UNL     1       5.524   5.197  15.742  0.00  0.00    +0.000 OA
BRANCH  23  24
ATOM     24  C   UNL     1       6.118   4.844  14.565  0.00  0.00    +0.000 A 
ATOM     25  C   UNL     1       5.416   3.902  13.812  0.00  0.00    +0.000 A 
ATOM     26  C   UNL     1       5.910   3.468  12.582  0.00  0.00    +0.000 A 
ATOM     27  C   UNL     1       7.103   3.993  12.094  0.00  0.00    +0.000 A 
ATOM     28  C   UNL     1       7.802   4.948  12.832  0.00  0.00    +0.000 A 
ATOM     29  C   UNL     1       7.311   5.373  14.071  0.00  0.00    +0.000 A 
ENDBRANCH  23  24
ENDBRANCH  22  23
ENDBRANCH  19  22
ENDBRANCH  18  19
ENDBRANCH  12  18
TORSDOF 9
ENDMDL
