MODEL 1
REMARK VINA RESULT:      -8.5      0.000      0.000
REMARK  Name = 
REMARK  4 active torsions:
REMARK  status: ('A' for Active; 'I' for Inactive)
REMARK    1  A    between atoms: C_1  and  C_2
REMARK    2  A    between atoms: C_2  and  N_3
REMARK    3  A    between atoms: C_2  and  C_17
REMARK    4  A    between atoms: N_3  and  C_4
REMARK                            x       y       z     vdW  Elec       q    Type
REMARK                         _______ _______ _______ _____ _____    ______ ____
ROOT
ATOM      1  C   UNL     1       5.727   4.658  17.546  0.00  0.00    +0.000 A 
ATOM      2  N   UNL     1       6.430   5.652  18.196  0.00  0.00    +0.000 N 
ATOM      3  C   UNL     1       7.384   6.392  17.537  0.00  0.00    +0.000 A 
ATOM      4  N   UNL     1       7.691   6.328  16.275  0.00  0.00    +0.000 NA
ATOM      5  C   UNL     1       6.980   5.379  15.577  0.00  0.00    +0.000 A 
ATOM      6  C   UNL     1       7.079   5.031  14.296  0.00  0.00    +0.000 A 
ATOM      7  C   UNL     1       7.864   5.430  13.176  0.00  0.00    +0.000 A 
ATOM      8  C   UNL     1       7.669   4.803  12.005  0.00  0.00    +0.000 A 
ATOM      9  C   UNL     1       6.679   3.743  11.865  0.00  0.00    +0.000 A 
ATOM     10  C   UNL     1       5.919   3.309  12.887  0.00  0.00    +0.000 A 
ATOM     11  C   UNL     1       6.087   3.936  14.215  0.00  0.00    +0.000 A 
ATOM     12  N   UNL     1       5.465   3.631  15.318  0.00  0.00    +0.000 NA
ATOM     13  C   UNL     1       5.993   4.523  16.225  0.00  0.00    +0.000 A 
ATOM     14  H   UNL     1       6.397   5.611  19.203  0.00  0.00    +0.000 HD
ENDROOT
BRANCH   1  15
ATOM     15  N   UNL     1       4.873   3.793  18.233  0.00  0.00    +0.000 N 
ATOM     16  H   UNL     1       5.127   2.857  17.891  0.00  0.00    +0.000 HD
BRANCH  15  18
ATOM     17  C   UNL     1       2.977   5.302  17.694  0.00  0.00    +0.000 C 
ATOM     18  C   UNL     1       3.411   3.878  18.048  0.00  0.00    +0.000 C 
BRANCH  18  19
ATOM     19  C   UNL     1       2.728   3.414  19.329  0.00  0.00    +0.000 A 
ATOM     20  C   UNL     1       3.479   2.811  20.350  0.00  0.00    +0.000 A 
ATOM     21  C   UNL     1       2.865   2.383  21.529  0.00  0.00    +0.000 A 
ATOM     22  C   UNL     1       1.493   2.557  21.706  0.00  0.00    +0.000 A 
ATOM     23  C   UNL     1       0.735   3.163  20.707  0.00  0.00    +0.000 A 
ATOM     24  C   UNL     1       1.349   3.592  19.529  0.00  0.00    +0.000 A 
ENDBRANCH  18  19
ENDBRANCH  15  18
ENDBRANCH   1  15
TORSDOF 3
ENDMDL
MODEL 2
REMARK VINA RESULT:      -8.4      0.208      1.049
REMARK  Name = 
REMARK  4 active torsions:
REMARK  status: ('A' for Active; 'I' for Inactive)
REMARK    1  A    between atoms: C_1  and  C_2
REMARK    2  A    between atoms: C_2  and  N_3
REMARK    3  A    between atoms: C_2  and  C_17
REMARK    4  A    between atoms: N_3  and  C_4
REMARK                            x       y       z     vdW  Elec       q    Type
REMARK                         _______ _______ _______ _____ _____    ______ ____
ROOT
ATOM      1  C   UNL     1       5.721   4.909  17.627  0.00  0.00    +0.000 A 
ATOM      2  N   UNL     1       6.464   5.915  18.211  0.00  0.00    +0.000 N 
ATOM      3  C   UNL     1       7.429   6.589  17.499  0.00  0.00    +0.000 A 
ATOM      4  N   UNL     1       7.714   6.446  16.238  0.00  0.00    +0.000 NA
ATOM      5  C   UNL     1       6.963   5.483  15.604  0.00  0.00    +0.000 A 
ATOM      6  C   UNL     1       7.032   5.063  14.342  0.00  0.00    +0.000 A 
ATOM      7  C   UNL     1       7.810   5.376  13.191  0.00  0.00    +0.000 A 
ATOM      8  C   UNL     1       7.578   4.691  12.059  0.00  0.00    +0.000 A 
ATOM      9  C   UNL     1       6.554   3.657  11.992  0.00  0.00    +0.000 A 
ATOM     10  C   UNL     1       5.798   3.302  13.047  0.00  0.00    +0.000 A 
ATOM     11  C   UNL     1       6.006   3.996  14.337  0.00  0.00    +0.000 A 
ATOM     12  N   UNL     1       5.393   3.771  15.464  0.00  0.00    +0.000 NA
ATOM     13  C   UNL     1       5.962   4.695  16.312  0.00  0.00    +0.000 A 
ATOM     14  H   UNL     1       6.446   5.931  19.220  0.00  0.00    +0.000 HD
ENDROOT
BRANCH   1  15
ATOM     15  N   UNL     1       4.853   4.110  18.373  0.00  0.00    +0.000 N 
ATOM     16  H   UNL     1       5.117   3.147  18.128  0.00  0.00    +0.000 HD
BRANCH  15  18
ATOM     17  C   UNL     1       2.937   5.602  17.860  0.00  0.00    +0.000 C 
ATOM     18  C   UNL     1       3.395   4.171  18.147  0.00  0.00    +0.000 C 
BRANCH  18  19
ATOM     19  C   UNL     1       2.686   3.619  19.378  0.00  0.00    +0.000 A 
ATOM     20  C   UNL     1       1.290   3.714  19.490  0.00  0.00    +0.000 A 
ATOM     21  C   UNL     1       0.629   3.210  20.612  0.00  0.00    +0.000 A 
ATOM     22  C   UNL     1       1.353   2.599  21.634  0.00  0.00    +0.000 A 
ATOM     23  C   UNL     1       2.738   2.487  21.534  0.00  0.00    +0.000 A 
ATOM     24  C   UNL     1       3.399   2.990  20.412  0.00  0.00    +0.000 A 
ENDBRANCH  18  19
ENDBRANCH  15  18
ENDBRANCH   1  15
TORSDOF 3
ENDMDL
MODEL 3
REMARK VINA RESULT:      -8.3      1.348      6.622
REMARK  Name = 
REMARK  4 active torsions:
REMARK  status: ('A' for Active; 'I' for Inactive)
REMARK    1  A    between atoms: C_1  and  C_2
REMARK    2  A    between atoms: C_2  and  N_3
REMARK    3  A    between atoms: C_2  and  C_17
REMARK    4  A    between atoms: N_3  and  C_4
REMARK                            x       y       z     vdW  Elec       q    Type
REMARK                         _______ _______ _______ _____ _____    ______ ____
ROOT
ATOM      1  C   UNL     1       6.472   5.078  16.070  0.00  0.00    +0.000 A 
ATOM      2  N   UNL     1       7.523   5.547  16.833  0.00  0.00    +0.000 N 
ATOM      3  C   UNL     1       7.519   5.418  18.202  0.00  0.00    +0.000 A 
ATOM      4  N   UNL     1       6.628   4.808  18.928  0.00  0.00    +0.000 NA
ATOM      5  C   UNL     1       5.584   4.283  18.202  0.00  0.00    +0.000 A 
ATOM      6  C   UNL     1       4.499   3.645  18.636  0.00  0.00    +0.000 A 
ATOM      7  C   UNL     1       3.973   3.243  19.898  0.00  0.00    +0.000 A 
ATOM      8  C   UNL     1       2.793   2.604  19.922  0.00  0.00    +0.000 A 
ATOM      9  C   UNL     1       2.059   2.314  18.697  0.00  0.00    +0.000 A 
ATOM     10  C   UNL     1       2.492   2.682  17.477  0.00  0.00    +0.000 A 
ATOM     11  C   UNL     1       3.776   3.408  17.367  0.00  0.00    +0.000 A 
ATOM     12  N   UNL     1       4.337   3.863  16.283  0.00  0.00    +0.000 NA
ATOM     13  C   UNL     1       5.499   4.432  16.755  0.00  0.00    +0.000 A 
ATOM     14  H   UNL     1       8.129   6.206  16.367  0.00  0.00    +0.000 HD
ENDROOT
BRANCH   1  15
ATOM     15  N   UNL     1       6.383   5.340  14.702  0.00  0.00    +0.000 N 
ATOM     16  H   UNL     1       5.431   5.049  14.447  0.00  0.00    +0.000 HD
BRANCH  15  18
ATOM     17  C   UNL     1       8.121   5.623  12.953  0.00  0.00    +0.000 C 
ATOM     18  C   UNL     1       7.261   4.637  13.745  0.00  0.00    +0.000 C 
BRANCH  18  19
ATOM     19  C   UNL     1       6.394   3.809  12.804  0.00  0.00    +0.000 A 
ATOM     20  C   UNL     1       6.960   2.762  12.060  0.00  0.00    +0.000 A 
ATOM     21  C   UNL     1       6.175   1.994  11.197  0.00  0.00    +0.000 A 
ATOM     22  C   UNL     1       4.813   2.259  11.069  0.00  0.00    +0.000 A 
ATOM     23  C   UNL     1       4.232   3.287  11.809  0.00  0.00    +0.000 A 
ATOM     24  C   UNL     1       5.016   4.054  12.673  0.00  0.00    +0.000 A 
ENDBRANCH  18  19
ENDBRANCH  15  18
ENDBRANCH   1  15
TORSDOF 3
ENDMDL
MODEL 4
REMARK VINA RESULT:      -8.3      1.341      6.678
REMARK  Name = 
REMARK  4 active torsions:
REMARK  status: ('A' for Active; 'I' for Inactive)
REMARK    1  A    between atoms: C_1  and  C_2
REMARK    2  A    between atoms: C_2  and  N_3
REMARK    3  A    between atoms: C_2  and  C_17
REMARK    4  A    between atoms: N_3  and  C_4
REMARK                            x       y       z     vdW  Elec       q    Type
REMARK                         _______ _______ _______ _____ _____    ______ ____
ROOT
ATOM      1  C   UNL     1       6.471   5.124  16.071  0.00  0.00    +0.000 A 
ATOM      2  N   UNL     1       7.503   5.631  16.835  0.00  0.00    +0.000 N 
ATOM      3  C   UNL     1       7.490   5.524  18.206  0.00  0.00    +0.000 A 
ATOM      4  N   UNL     1       6.608   4.906  18.934  0.00  0.00    +0.000 NA
ATOM      5  C   UNL     1       5.583   4.344  18.209  0.00  0.00    +0.000 A 
ATOM      6  C   UNL     1       4.510   3.687  18.645  0.00  0.00    +0.000 A 
ATOM      7  C   UNL     1       3.983   3.294  19.908  0.00  0.00    +0.000 A 
ATOM      8  C   UNL     1       2.818   2.627  19.934  0.00  0.00    +0.000 A 
ATOM      9  C   UNL     1       2.102   2.299  18.708  0.00  0.00    +0.000 A 
ATOM     10  C   UNL     1       2.537   2.657  17.485  0.00  0.00    +0.000 A 
ATOM     11  C   UNL     1       3.803   3.412  17.374  0.00  0.00    +0.000 A 
ATOM     12  N   UNL     1       4.363   3.862  16.287  0.00  0.00    +0.000 NA
ATOM     13  C   UNL     1       5.507   4.466  16.759  0.00  0.00    +0.000 A 
ATOM     14  H   UNL     1       8.097   6.296  16.363  0.00  0.00    +0.000 HD
ENDROOT
BRANCH   1  15
ATOM     15  N   UNL     1       6.387   5.361  14.699  0.00  0.00    +0.000 N 
ATOM     16  H   UNL     1       5.439   5.058  14.443  0.00  0.00    +0.000 HD
BRANCH  15  18
ATOM     17  C   UNL     1       8.139   5.628  12.961  0.00  0.00    +0.000 C 
ATOM     18  C   UNL     1       7.276   4.650  13.759  0.00  0.00    +0.000 C 
BRANCH  18  19
ATOM     19  C   UNL     1       6.421   3.804  12.822  0.00  0.00    +0.000 A 
ATOM     20  C   UNL     1       5.046   4.060  12.697  0.00  0.00    +0.000 A 
ATOM     21  C   UNL     1       4.253   3.293  11.841  0.00  0.00    +0.000 A 
ATOM     22  C   UNL     1       4.823   2.264  11.093  0.00  0.00    +0.000 A 
ATOM     23  C   UNL     1       6.188   2.004  11.198  0.00  0.00    +0.000 A 
ATOM     24  C   UNL     1       6.982   2.771  12.053  0.00  0.00    +0.000 A 
ENDBRANCH  18  19
ENDBRANCH  15  18
ENDBRANCH   1  15
TORSDOF 3
ENDMDL
MODEL 5
REMARK VINA RESULT:      -8.2      0.969      1.597
REMARK  Name = 
REMARK  4 active torsions:
REMARK  status: ('A' for Active; 'I' for Inactive)
REMARK    1  A    between atoms: C_1  and  C_2
REMARK    2  A    between atoms: C_2  and  N_3
REMARK    3  A    between atoms: C_2  and  C_17
REMARK    4  A    between atoms: N_3  and  C_4
REMARK                            x       y       z     vdW  Elec       q    Type
REMARK                         _______ _______ _______ _____ _____    ______ ____
ROOT
ATOM      1  C   UNL     1       5.626   4.257  17.488  0.00  0.00    +0.000 A 
ATOM      2  N   UNL     1       6.234   5.226  18.259  0.00  0.00    +0.000 N 
ATOM      3  C   UNL     1       7.166   6.081  17.718  0.00  0.00    +0.000 A 
ATOM      4  N   UNL     1       7.531   6.154  16.472  0.00  0.00    +0.000 NA
ATOM      5  C   UNL     1       6.913   5.234  15.656  0.00  0.00    +0.000 A 
ATOM      6  C   UNL     1       7.090   5.014  14.355  0.00  0.00    +0.000 A 
ATOM      7  C   UNL     1       7.894   5.563  13.316  0.00  0.00    +0.000 A 
ATOM      8  C   UNL     1       7.792   5.038  12.085  0.00  0.00    +0.000 A 
ATOM      9  C   UNL     1       6.879   3.938  11.801  0.00  0.00    +0.000 A 
ATOM     10  C   UNL     1       6.105   3.364  12.741  0.00  0.00    +0.000 A 
ATOM     11  C   UNL     1       6.175   3.873  14.127  0.00  0.00    +0.000 A 
ATOM     12  N   UNL     1       5.527   3.430  15.166  0.00  0.00    +0.000 NA
ATOM     13  C   UNL     1       5.957   4.263  16.175  0.00  0.00    +0.000 A 
ATOM     14  H   UNL     1       6.161   5.089  19.256  0.00  0.00    +0.000 HD
ENDROOT
BRANCH   1  15
ATOM     15  N   UNL     1       4.801   3.281  18.051  0.00  0.00    +0.000 N 
ATOM     16  H   UNL     1       3.867   3.485  17.671  0.00  0.00    +0.000 HD
BRANCH  15  18
ATOM     17  C   UNL     1       4.744   1.781  20.027  0.00  0.00    +0.000 C 
ATOM     18  C   UNL     1       4.607   3.215  19.513  0.00  0.00    +0.000 C 
BRANCH  18  19
ATOM     19  C   UNL     1       3.230   3.775  19.849  0.00  0.00    +0.000 A 
ATOM     20  C   UNL     1       2.114   2.924  19.895  0.00  0.00    +0.000 A 
ATOM     21  C   UNL     1       0.848   3.425  20.204  0.00  0.00    +0.000 A 
ATOM     22  C   UNL     1       0.680   4.782  20.477  0.00  0.00    +0.000 A 
ATOM     23  C   UNL     1       1.778   5.638  20.447  0.00  0.00    +0.000 A 
ATOM     24  C   UNL     1       3.045   5.137  20.139  0.00  0.00    +0.000 A 
ENDBRANCH  18  19
ENDBRANCH  15  18
ENDBRANCH   1  15
TORSDOF 3
ENDMDL
MODEL 6
REMARK VINA RESULT:      -8.2      0.997      1.142
REMARK  Name = 
REMARK  4 active torsions:
REMARK  status: ('A' for Active; 'I' for Inactive)
REMARK    1  A    between atoms: C_1  and  C_2
REMARK    2  A    between atoms: C_2  and  N_3
REMARK    3  A    between atoms: C_2  and  C_17
REMARK    4  A    between atoms: N_3  and  C_4
REMARK                            x       y       z     vdW  Elec       q    Type
REMARK                         _______ _______ _______ _____ _____    ______ ____
ROOT
ATOM      1  C   UNL     1       5.519   5.532  17.574  0.00  0.00    +0.000 A 
ATOM      2  N   UNL     1       6.425   6.447  18.071  0.00  0.00    +0.000 N 
ATOM      3  C   UNL     1       7.510   6.848  17.327  0.00  0.00    +0.000 A 
ATOM      4  N   UNL     1       7.785   6.511  16.100  0.00  0.00    +0.000 NA
ATOM      5  C   UNL     1       6.880   5.634  15.548  0.00  0.00    +0.000 A 
ATOM      6  C   UNL     1       6.892   5.066  14.344  0.00  0.00    +0.000 A 
ATOM      7  C   UNL     1       7.734   5.098  13.196  0.00  0.00    +0.000 A 
ATOM      8  C   UNL     1       7.399   4.341  12.138  0.00  0.00    +0.000 A 
ATOM      9  C   UNL     1       6.203   3.509  12.146  0.00  0.00    +0.000 A 
ATOM     10  C   UNL     1       5.377   3.421  13.205  0.00  0.00    +0.000 A 
ATOM     11  C   UNL     1       5.687   4.209  14.417  0.00  0.00    +0.000 A 
ATOM     12  N   UNL     1       5.024   4.231  15.537  0.00  0.00    +0.000 NA
ATOM     13  C   UNL     1       5.739   5.127  16.300  0.00  0.00    +0.000 A 
ATOM     14  H   UNL     1       6.393   6.581  19.070  0.00  0.00    +0.000 HD
ENDROOT
BRANCH   1  15
ATOM     15  N   UNL     1       4.506   4.995  18.369  0.00  0.00    +0.000 N 
ATOM     16  H   UNL     1       4.560   3.982  18.204  0.00  0.00    +0.000 HD
BRANCH  15  18
ATOM     17  C   UNL     1       2.797   6.788  18.521  0.00  0.00    +0.000 C 
ATOM     18  C   UNL     1       3.093   5.342  18.121  0.00  0.00    +0.000 C 
BRANCH  18  19
ATOM     19  C   UNL     1       2.208   4.379  18.903  0.00  0.00    +0.000 A 
ATOM     20  C   UNL     1       2.156   4.448  20.304  0.00  0.00    +0.000 A 
ATOM     21  C   UNL     1       1.347   3.572  21.032  0.00  0.00    +0.000 A 
ATOM     22  C   UNL     1       0.575   2.620  20.369  0.00  0.00    +0.000 A 
ATOM     23  C   UNL     1       0.607   2.545  18.979  0.00  0.00    +0.000 A 
ATOM     24  C   UNL     1       1.414   3.421  18.251  0.00  0.00    +0.000 A 
ENDBRANCH  18  19
ENDBRANCH  15  18
ENDBRANCH   1  15
TORSDOF 3
ENDMDL
MODEL 7
REMARK VINA RESULT:      -8.0      2.081      7.335
REMARK  Name = 
REMARK  4 active torsions:
REMARK  status: ('A' for Active; 'I' for Inactive)
REMARK    1  A    between atoms: C_1  and  C_2
REMARK    2  A    between atoms: C_2  and  N_3
REMARK    3  A    between atoms: C_2  and  C_17
REMARK    4  A    between atoms: N_3  and  C_4
REMARK                            x       y       z     vdW  Elec       q    Type
REMARK                         _______ _______ _______ _____ _____    ______ ____
ROOT
ATOM      1  C   UNL     1       4.194   4.102  17.374  0.00  0.00    +0.000 A 
ATOM      2  N   UNL     1       4.312   2.975  18.162  0.00  0.00    +0.000 N 
ATOM      3  C   UNL     1       3.853   2.964  19.458  0.00  0.00    +0.000 A 
ATOM      4  N   UNL     1       3.214   3.918  20.070  0.00  0.00    +0.000 NA
ATOM      5  C   UNL     1       3.033   5.047  19.304  0.00  0.00    +0.000 A 
ATOM      6  C   UNL     1       2.464   6.203  19.638  0.00  0.00    +0.000 A 
ATOM      7  C   UNL     1       1.844   6.752  20.796  0.00  0.00    +0.000 A 
ATOM      8  C   UNL     1       1.388   8.014  20.738  0.00  0.00    +0.000 A 
ATOM      9  C   UNL     1       1.512   8.813  19.526  0.00  0.00    +0.000 A 
ATOM     10  C   UNL     1       2.103   8.359  18.405  0.00  0.00    +0.000 A 
ATOM     11  C   UNL     1       2.649   6.985  18.394  0.00  0.00    +0.000 A 
ATOM     12  N   UNL     1       3.272   6.389  17.419  0.00  0.00    +0.000 NA
ATOM     13  C   UNL     1       3.542   5.144  17.942  0.00  0.00    +0.000 A 
ATOM     14  H   UNL     1       4.974   2.289  17.831  0.00  0.00    +0.000 HD
ENDROOT
BRANCH   1  15
ATOM     15  N   UNL     1       4.792   4.184  16.115  0.00  0.00    +0.000 N 
ATOM     16  H   UNL     1       4.499   3.324  15.635  0.00  0.00    +0.000 HD
BRANCH  15  18
ATOM     17  C   UNL     1       6.872   5.381  16.751  0.00  0.00    +0.000 C 
ATOM     18  C   UNL     1       6.263   4.207  15.984  0.00  0.00    +0.000 C 
BRANCH  18  19
ATOM     19  C   UNL     1       6.620   4.291  14.504  0.00  0.00    +0.000 A 
ATOM     20  C   UNL     1       5.990   3.446  13.577  0.00  0.00    +0.000 A 
ATOM     21  C   UNL     1       6.307   3.515  12.219  0.00  0.00    +0.000 A 
ATOM     22  C   UNL     1       7.254   4.434  11.768  0.00  0.00    +0.000 A 
ATOM     23  C   UNL     1       7.880   5.287  12.673  0.00  0.00    +0.000 A 
ATOM     24  C   UNL     1       7.562   5.219  14.031  0.00  0.00    +0.000 A 
ENDBRANCH  18  19
ENDBRANCH  15  18
ENDBRANCH   1  15
TORSDOF 3
ENDMDL
MODEL 8
REMARK VINA RESULT:      -8.0      4.531      5.969
REMARK  Name = 
REMARK  4 active torsions:
REMARK  status: ('A' for Active; 'I' for Inactive)
REMARK    1  A    between atoms: C_1  and  C_2
REMARK    2  A    between atoms: C_2  and  N_3
REMARK    3  A    between atoms: C_2  and  C_17
REMARK    4  A    between atoms: N_3  and  C_4
REMARK                            x       y       z     vdW  Elec       q    Type
REMARK                         _______ _______ _______ _____ _____    ______ ____
ROOT
ATOM      1  C   UNL     1       2.347   6.743  20.060  0.00  0.00    +0.000 A 
ATOM      2  N   UNL     1       1.809   5.704  20.793  0.00  0.00    +0.000 N 
ATOM      3  C   UNL     1       1.972   4.397  20.395  0.00  0.00    +0.000 A 
ATOM      4  N   UNL     1       2.671   3.968  19.386  0.00  0.00    +0.000 NA
ATOM      5  C   UNL     1       3.264   4.970  18.653  0.00  0.00    +0.000 A 
ATOM      6  C   UNL     1       4.001   4.876  17.548  0.00  0.00    +0.000 A 
ATOM      7  C   UNL     1       4.475   3.827  16.710  0.00  0.00    +0.000 A 
ATOM      8  C   UNL     1       5.211   4.153  15.635  0.00  0.00    +0.000 A 
ATOM      9  C   UNL     1       5.532   5.541  15.325  0.00  0.00    +0.000 A 
ATOM     10  C   UNL     1       5.100   6.577  16.066  0.00  0.00    +0.000 A 
ATOM     11  C   UNL     1       4.267   6.303  17.256  0.00  0.00    +0.000 A 
ATOM     12  N   UNL     1       3.741   7.172  18.071  0.00  0.00    +0.000 NA
ATOM     13  C   UNL     1       3.088   6.377  18.988  0.00  0.00    +0.000 A 
ATOM     14  H   UNL     1       1.091   5.969  21.450  0.00  0.00    +0.000 HD
ENDROOT
BRANCH   1  15
ATOM     15  N   UNL     1       2.060   8.076  20.358  0.00  0.00    +0.000 N 
ATOM     16  H   UNL     1       1.903   8.084  21.374  0.00  0.00    +0.000 HD
BRANCH  15  18
ATOM     17  C   UNL     1       1.242   9.644  18.617  0.00  0.00    +0.000 C 
ATOM     18  C   UNL     1       0.868   8.733  19.787  0.00  0.00    +0.000 C 
BRANCH  18  19
ATOM     19  C   UNL     1       0.176   9.531  20.886  0.00  0.00    +0.000 A 
ATOM     20  C   UNL     1       0.161   9.050  22.205  0.00  0.00    +0.000 A 
ATOM     21  C   UNL     1      -0.468   9.772  23.221  0.00  0.00    +0.000 A 
ATOM     22  C   UNL     1      -1.086  10.988  22.934  0.00  0.00    +0.000 A 
ATOM     23  C   UNL     1      -1.072  11.485  21.633  0.00  0.00    +0.000 A 
ATOM     24  C   UNL     1      -0.442  10.764  20.617  0.00  0.00    +0.000 A 
ENDBRANCH  18  19
ENDBRANCH  15  18
ENDBRANCH   1  15
TORSDOF 3
ENDMDL
MODEL 9
REMARK VINA RESULT:      -8.0      2.573      7.386
REMARK  Name = 
REMARK  4 active torsions:
REMARK  status: ('A' for Active; 'I' for Inactive)
REMARK    1  A    between atoms: C_1  and  C_2
REMARK    2  A    between atoms: C_2  and  N_3
REMARK    3  A    between atoms: C_2  and  C_17
REMARK    4  A    between atoms: N_3  and  C_4
REMARK                            x       y       z     vdW  Elec       q    Type
REMARK                         _______ _______ _______ _____ _____    ______ ____
ROOT
ATOM      1  C   UNL     1       4.261   5.238  17.536  0.00  0.00    +0.000 A 
ATOM      2  N   UNL     1       4.336   4.163  18.399  0.00  0.00    +0.000 N 
ATOM      3  C   UNL     1       3.740   4.205  19.637  0.00  0.00    +0.000 A 
ATOM      4  N   UNL     1       3.002   5.161  20.119  0.00  0.00    +0.000 NA
ATOM      5  C   UNL     1       2.862   6.236  19.272  0.00  0.00    +0.000 A 
ATOM      6  C   UNL     1       2.216   7.383  19.473  0.00  0.00    +0.000 A 
ATOM      7  C   UNL     1       1.453   7.967  20.523  0.00  0.00    +0.000 A 
ATOM      8  C   UNL     1       0.958   9.203  20.341  0.00  0.00    +0.000 A 
ATOM      9  C   UNL     1       1.181   9.937  19.103  0.00  0.00    +0.000 A 
ATOM     10  C   UNL     1       1.908   9.448  18.080  0.00  0.00    +0.000 A 
ATOM     11  C   UNL     1       2.504   8.102  18.211  0.00  0.00    +0.000 A 
ATOM     12  N   UNL     1       3.252   7.481  17.344  0.00  0.00    +0.000 NA
ATOM     13  C   UNL     1       3.511   6.280  17.967  0.00  0.00    +0.000 A 
ATOM     14  H   UNL     1       5.056   3.490  18.182  0.00  0.00    +0.000 HD
ENDROOT
BRANCH   1  15
ATOM     15  N   UNL     1       4.989   5.277  16.346  0.00  0.00    +0.000 N 
ATOM     16  H   UNL     1       4.302   5.038  15.618  0.00  0.00    +0.000 HD
BRANCH  15  18
ATOM     17  C   UNL     1       7.339   4.749  16.943  0.00  0.00    +0.000 C 
ATOM     18  C   UNL     1       6.113   4.346  16.123  0.00  0.00    +0.000 C 
BRANCH  18  19
ATOM     19  C   UNL     1       6.446   4.330  14.635  0.00  0.00    +0.000 A 
ATOM     20  C   UNL     1       7.469   5.149  14.132  0.00  0.00    +0.000 A 
ATOM     21  C   UNL     1       7.785   5.142  12.772  0.00  0.00    +0.000 A 
ATOM     22  C   UNL     1       7.087   4.311  11.897  0.00  0.00    +0.000 A 
ATOM     23  C   UNL     1       6.077   3.483  12.381  0.00  0.00    +0.000 A 
ATOM     24  C   UNL     1       5.762   3.489  13.742  0.00  0.00    +0.000 A 
ENDBRANCH  18  19
ENDBRANCH  15  18
ENDBRANCH   1  15
TORSDOF 3
ENDMDL
