MODEL 1
REMARK VINA RESULT:      -5.7      0.000      0.000
REMARK  Name = 
REMARK  8 active torsions:
REMARK  status: ('A' for Active; 'I' for Inactive)
REMARK    1  A    between atoms: C_1  and  C_2
REMARK    2  A    between atoms: C_2  and  C_3
REMARK    3  A    between atoms: C_3  and  C_4
REMARK    4  A    between atoms: C_3  and  N_5
REMARK    5  A    between atoms: N_5  and  C_6
REMARK    6  A    between atoms: C_6  and  C_7
REMARK    7  A    between atoms: C_7  and  O_8
REMARK    8  A    between atoms: O_8  and  C_9
REMARK                            x       y       z     vdW  Elec       q    Type
REMARK                         _______ _______ _______ _____ _____    ______ ____
ROOT
ATOM      1  C   UNL     1       4.569   2.447  19.517  0.00  0.00    +0.000 C 
ENDROOT
BRANCH   1   2
ATOM      2  C   UNL     1       3.492   2.164  18.452  0.00  0.00    +0.000 C 
BRANCH   2   3
ATOM      3  N   UNL     1       2.207   1.742  19.019  0.00  0.00    +0.000 NA
ATOM      4  H   UNL     1       1.949   0.820  18.658  0.00  0.00    +0.000 HD
BRANCH   3   5
ATOM      5  C   UNL     1       1.112   2.705  18.835  0.00  0.00    +0.000 C 
ATOM      6  C   UNL     1       1.393   3.697  17.702  0.00  0.00    +0.000 C 
BRANCH   5   8
ATOM      7  C   UNL     1       1.419   2.700  21.385  0.00  0.00    +0.000 C 
ATOM      8  C   UNL     1       0.918   3.464  20.164  0.00  0.00    +0.000 C 
ENDBRANCH   5   8
ENDBRANCH   3   5
ENDBRANCH   2   3
ENDBRANCH   1   2
BRANCH   1   9
ATOM      9  O   UNL     1       5.360   3.564  19.097  0.00  0.00    +0.000 OA
BRANCH   9  10
ATOM     10  C   UNL     1       4.687   4.709  18.779  0.00  0.00    +0.000 A 
ATOM     11  C   UNL     1       4.689   5.324  17.525  0.00  0.00    +0.000 A 
ATOM     12  C   UNL     1       3.898   6.457  17.300  0.00  0.00    +0.000 A 
ATOM     13  C   UNL     1       3.105   6.966  18.325  0.00  0.00    +0.000 A 
ATOM     14 BR   UNL     1       2.031   8.489  18.009  0.00  0.00    +0.000 Br
ATOM     15  C   UNL     1       3.096   6.359  19.577  0.00  0.00    +0.000 A 
ATOM     16  C   UNL     1       3.879   5.224  19.797  0.00  0.00    +0.000 A 
ENDBRANCH   9  10
ENDBRANCH   1   9
TORSDOF 6
ENDMDL
MODEL 2
REMARK VINA RESULT:      -5.6      3.165      5.170
REMARK  Name = 
REMARK  8 active torsions:
REMARK  status: ('A' for Active; 'I' for Inactive)
REMARK    1  A    between atoms: C_1  and  C_2
REMARK    2  A    between atoms: C_2  and  C_3
REMARK    3  A    between atoms: C_3  and  C_4
REMARK    4  A    between atoms: C_3  and  N_5
REMARK    5  A    between atoms: N_5  and  C_6
REMARK    6  A    between atoms: C_6  and  C_7
REMARK    7  A    between atoms: C_7  and  O_8
REMARK    8  A    between atoms: O_8  and  C_9
REMARK                            x       y       z     vdW  Elec       q    Type
REMARK                         _______ _______ _______ _____ _____    ______ ____
ROOT
ATOM      1  C   UNL     1       5.911   3.745  15.762  0.00  0.00    +0.000 C 
ENDROOT
BRANCH   1   2
ATOM      2  C   UNL     1       7.218   4.428  16.207  0.00  0.00    +0.000 C 
BRANCH   2   3
ATOM      3  N   UNL     1       7.453   4.355  17.653  0.00  0.00    +0.000 NA
ATOM      4  H   UNL     1       6.632   3.964  18.123  0.00  0.00    +0.000 HD
BRANCH   3   5
ATOM      5  C   UNL     1       7.859   5.625  18.271  0.00  0.00    +0.000 C 
ATOM      6  C   UNL     1       7.560   5.665  19.773  0.00  0.00    +0.000 C 
BRANCH   5   8
ATOM      7  C   UNL     1       7.811   8.114  17.639  0.00  0.00    +0.000 C 
ATOM      8  C   UNL     1       7.107   6.765  17.553  0.00  0.00    +0.000 C 
ENDBRANCH   5   8
ENDBRANCH   3   5
ENDBRANCH   2   3
ENDBRANCH   1   2
BRANCH   1   9
ATOM      9  O   UNL     1       4.833   4.681  15.867  0.00  0.00    +0.000 OA
BRANCH   9  10
ATOM     10  C   UNL     1       4.042   4.586  16.977  0.00  0.00    +0.000 A 
ATOM     11  C   UNL     1       3.511   5.667  17.683  0.00  0.00    +0.000 A 
ATOM     12  C   UNL     1       2.651   5.440  18.765  0.00  0.00    +0.000 A 
ATOM     13  C   UNL     1       2.322   4.139  19.131  0.00  0.00    +0.000 A 
ATOM     14 BR   UNL     1       1.150   3.842  20.585  0.00  0.00    +0.000 Br
ATOM     15  C   UNL     1       2.846   3.055  18.432  0.00  0.00    +0.000 A 
ATOM     16  C   UNL     1       3.697   3.283  17.348  0.00  0.00    +0.000 A 
ENDBRANCH   9  10
ENDBRANCH   1   9
TORSDOF 6
ENDMDL
MODEL 3
REMARK VINA RESULT:      -5.4      3.231      5.241
REMARK  Name = 
REMARK  8 active torsions:
REMARK  status: ('A' for Active; 'I' for Inactive)
REMARK    1  A    between atoms: C_1  and  C_2
REMARK    2  A    between atoms: C_2  and  C_3
REMARK    3  A    between atoms: C_3  and  C_4
REMARK    4  A    between atoms: C_3  and  N_5
REMARK    5  A    between atoms: N_5  and  C_6
REMARK    6  A    between atoms: C_6  and  C_7
REMARK    7  A    between atoms: C_7  and  O_8
REMARK    8  A    between atoms: O_8  and  C_9
REMARK                            x       y       z     vdW  Elec       q    Type
REMARK                         _______ _______ _______ _____ _____    ______ ____
ROOT
ATOM      1  C   UNL     1       5.219   4.640  15.300  0.00  0.00    +0.000 C 
ENDROOT
BRANCH   1   2
ATOM      2  C   UNL     1       5.344   6.067  15.868  0.00  0.00    +0.000 C 
BRANCH   2   3
ATOM      3  N   UNL     1       6.728   6.469  16.138  0.00  0.00    +0.000 NA
ATOM      4  H   UNL     1       7.375   5.747  15.808  0.00  0.00    +0.000 HD
BRANCH   3   5
ATOM      5  C   UNL     1       7.000   6.818  17.540  0.00  0.00    +0.000 C 
ATOM      6  C   UNL     1       7.843   8.090  17.671  0.00  0.00    +0.000 C 
BRANCH   5   8
ATOM      7  C   UNL     1       7.777   5.693  19.715  0.00  0.00    +0.000 C 
ATOM      8  C   UNL     1       7.736   5.629  18.192  0.00  0.00    +0.000 C 
ENDBRANCH   5   8
ENDBRANCH   3   5
ENDBRANCH   2   3
ENDBRANCH   1   2
BRANCH   1   9
ATOM      9  O   UNL     1       5.428   3.696  16.354  0.00  0.00    +0.000 OA
BRANCH   9  10
ATOM     10  C   UNL     1       4.488   3.663  17.345  0.00  0.00    +0.000 A 
ATOM     11  C   UNL     1       4.753   3.764  18.713  0.00  0.00    +0.000 A 
ATOM     12  C   UNL     1       3.696   3.792  19.630  0.00  0.00    +0.000 A 
ATOM     13  C   UNL     1       2.381   3.726  19.178  0.00  0.00    +0.000 A 
ATOM     14 BR   UNL     1       0.959   3.777  20.422  0.00  0.00    +0.000 Br
ATOM     15  C   UNL     1       2.107   3.627  17.817  0.00  0.00    +0.000 A 
ATOM     16  C   UNL     1       3.163   3.607  16.903  0.00  0.00    +0.000 A 
ENDBRANCH   9  10
ENDBRANCH   1   9
TORSDOF 6
ENDMDL
MODEL 4
REMARK VINA RESULT:      -5.4      3.075      4.968
REMARK  Name = 
REMARK  8 active torsions:
REMARK  status: ('A' for Active; 'I' for Inactive)
REMARK    1  A    between atoms: C_1  and  C_2
REMARK    2  A    between atoms: C_2  and  C_3
REMARK    3  A    between atoms: C_3  and  C_4
REMARK    4  A    between atoms: C_3  and  N_5
REMARK    5  A    between atoms: N_5  and  C_6
REMARK    6  A    between atoms: C_6  and  C_7
REMARK    7  A    between atoms: C_7  and  O_8
REMARK    8  A    between atoms: O_8  and  C_9
REMARK                            x       y       z     vdW  Elec       q    Type
REMARK                         _______ _______ _______ _____ _____    ______ ____
ROOT
ATOM      1  C   UNL     1       7.345   4.905  18.215  0.00  0.00    +0.000 C 
ENDROOT
BRANCH   1   2
ATOM      2  C   UNL     1       7.253   6.177  17.350  0.00  0.00    +0.000 C 
BRANCH   2   3
ATOM      3  N   UNL     1       7.170   5.900  15.912  0.00  0.00    +0.000 NA
ATOM      4  H   UNL     1       7.783   6.536  15.396  0.00  0.00    +0.000 HD
BRANCH   3   5
ATOM      5  C   UNL     1       5.806   5.923  15.363  0.00  0.00    +0.000 C 
ATOM      6  C   UNL     1       4.820   6.651  16.282  0.00  0.00    +0.000 C 
BRANCH   5   8
ATOM      7  C   UNL     1       6.110   3.737  14.049  0.00  0.00    +0.000 C 
ATOM      8  C   UNL     1       5.353   4.462  15.156  0.00  0.00    +0.000 C 
ENDBRANCH   5   8
ENDBRANCH   3   5
ENDBRANCH   2   3
ENDBRANCH   1   2
BRANCH   1   9
ATOM      9  O   UNL     1       6.536   5.074  19.384  0.00  0.00    +0.000 OA
BRANCH   9  10
ATOM     10  C   UNL     1       5.243   4.641  19.304  0.00  0.00    +0.000 A 
ATOM     11  C   UNL     1       4.117   5.398  19.636  0.00  0.00    +0.000 A 
ATOM     12  C   UNL     1       2.836   4.867  19.441  0.00  0.00    +0.000 A 
ATOM     13  C   UNL     1       2.685   3.589  18.912  0.00  0.00    +0.000 A 
ATOM     14 BR   UNL     1       0.952   2.886  18.641  0.00  0.00    +0.000 Br
ATOM     15  C   UNL     1       3.802   2.828  18.577  0.00  0.00    +0.000 A 
ATOM     16  C   UNL     1       5.079   3.362  18.765  0.00  0.00    +0.000 A 
ENDBRANCH   9  10
ENDBRANCH   1   9
TORSDOF 6
ENDMDL
MODEL 5
REMARK VINA RESULT:      -5.4      3.543      5.542
REMARK  Name = 
REMARK  8 active torsions:
REMARK  status: ('A' for Active; 'I' for Inactive)
REMARK    1  A    between atoms: C_1  and  C_2
REMARK    2  A    between atoms: C_2  and  C_3
REMARK    3  A    between atoms: C_3  and  C_4
REMARK    4  A    between atoms: C_3  and  N_5
REMARK    5  A    between atoms: N_5  and  C_6
REMARK    6  A    between atoms: C_6  and  C_7
REMARK    7  A    between atoms: C_7  and  O_8
REMARK    8  A    between atoms: O_8  and  C_9
REMARK                            x       y       z     vdW  Elec       q    Type
REMARK                         _______ _______ _______ _____ _____    ______ ____
ROOT
ATOM      1  C   UNL     1       5.542   3.973  16.030  0.00  0.00    +0.000 C 
ENDROOT
BRANCH   1   2
ATOM      2  C   UNL     1       6.903   4.692  16.090  0.00  0.00    +0.000 C 
BRANCH   2   3
ATOM      3  N   UNL     1       6.793   6.128  16.374  0.00  0.00    +0.000 NA
ATOM      4  H   UNL     1       6.932   6.667  15.515  0.00  0.00    +0.000 HD
BRANCH   3   5
ATOM      5  C   UNL     1       7.675   6.608  17.447  0.00  0.00    +0.000 C 
ATOM      6  C   UNL     1       7.290   6.039  18.816  0.00  0.00    +0.000 C 
BRANCH   5   8
ATOM      7  C   UNL     1       8.524   8.793  18.497  0.00  0.00    +0.000 C 
ATOM      8  C   UNL     1       7.594   8.148  17.475  0.00  0.00    +0.000 C 
ENDBRANCH   5   8
ENDBRANCH   3   5
ENDBRANCH   2   3
ENDBRANCH   1   2
BRANCH   1   9
ATOM      9  O   UNL     1       4.517   4.873  16.464  0.00  0.00    +0.000 OA
BRANCH   9  10
ATOM     10  C   UNL     1       3.822   4.520  17.586  0.00  0.00    +0.000 A 
ATOM     11  C   UNL     1       2.788   5.261  18.161  0.00  0.00    +0.000 A 
ATOM     12  C   UNL     1       2.101   4.757  19.272  0.00  0.00    +0.000 A 
ATOM     13  C   UNL     1       2.445   3.515  19.799  0.00  0.00    +0.000 A 
ATOM     14 BR   UNL     1       1.505   2.836  21.291  0.00  0.00    +0.000 Br
ATOM     15  C   UNL     1       3.474   2.769  19.230  0.00  0.00    +0.000 A 
ATOM     16  C   UNL     1       4.153   3.270  18.117  0.00  0.00    +0.000 A 
ENDBRANCH   9  10
ENDBRANCH   1   9
TORSDOF 6
ENDMDL
MODEL 6
REMARK VINA RESULT:      -5.4      4.608      6.082
REMARK  Name = 
REMARK  8 active torsions:
REMARK  status: ('A' for Active; 'I' for Inactive)
REMARK    1  A    between atoms: C_1  and  C_2
REMARK    2  A    between atoms: C_2  and  C_3
REMARK    3  A    between atoms: C_3  and  C_4
REMARK    4  A    between atoms: C_3  and  N_5
REMARK    5  A    between atoms: N_5  and  C_6
REMARK    6  A    between atoms: C_6  and  C_7
REMARK    7  A    between atoms: C_7  and  O_8
REMARK    8  A    between atoms: O_8  and  C_9
REMARK                            x       y       z     vdW  Elec       q    Type
REMARK                         _______ _______ _______ _____ _____    ______ ____
ROOT
ATOM      1  C   UNL     1       6.792   4.746  15.547  0.00  0.00    +0.000 C 
ENDROOT
BRANCH   1   2
ATOM      2  C   UNL     1       6.838   4.633  14.011  0.00  0.00    +0.000 C 
BRANCH   2   3
ATOM      3  N   UNL     1       6.192   3.420  13.495  0.00  0.00    +0.000 NA
ATOM      4  H   UNL     1       6.683   2.589  13.836  0.00  0.00    +0.000 HD
BRANCH   3   5
ATOM      5  C   UNL     1       6.043   3.382  12.033  0.00  0.00    +0.000 C 
ATOM      6  C   UNL     1       4.605   3.079  11.602  0.00  0.00    +0.000 C 
BRANCH   5   8
ATOM      7  C   UNL     1       6.294   1.008  11.085  0.00  0.00    +0.000 C 
ATOM      8  C   UNL     1       6.997   2.300  11.487  0.00  0.00    +0.000 C 
ENDBRANCH   5   8
ENDBRANCH   3   5
ENDBRANCH   2   3
ENDBRANCH   1   2
BRANCH   1   9
ATOM      9  O   UNL     1       5.660   5.535  15.925  0.00  0.00    +0.000 OA
BRANCH   9  10
ATOM     10  C   UNL     1       4.872   5.040  16.925  0.00  0.00    +0.000 A 
ATOM     11  C   UNL     1       4.148   3.847  16.865  0.00  0.00    +0.000 A 
ATOM     12  C   UNL     1       3.433   3.407  17.986  0.00  0.00    +0.000 A 
ATOM     13  C   UNL     1       3.448   4.154  19.159  0.00  0.00    +0.000 A 
ATOM     14 BR   UNL     1       2.490   3.546  20.671  0.00  0.00    +0.000 Br
ATOM     15  C   UNL     1       4.169   5.344  19.228  0.00  0.00    +0.000 A 
ATOM     16  C   UNL     1       4.888   5.778  18.112  0.00  0.00    +0.000 A 
ENDBRANCH   9  10
ENDBRANCH   1   9
TORSDOF 6
ENDMDL
MODEL 7
REMARK VINA RESULT:      -5.3      2.843      3.898
REMARK  Name = 
REMARK  8 active torsions:
REMARK  status: ('A' for Active; 'I' for Inactive)
REMARK    1  A    between atoms: C_1  and  C_2
REMARK    2  A    between atoms: C_2  and  C_3
REMARK    3  A    between atoms: C_3  and  C_4
REMARK    4  A    between atoms: C_3  and  N_5
REMARK    5  A    between atoms: N_5  and  C_6
REMARK    6  A    between atoms: C_6  and  C_7
REMARK    7  A    between atoms: C_7  and  O_8
REMARK    8  A    between atoms: O_8  and  C_9
REMARK                            x       y       z     vdW  Elec       q    Type
REMARK                         _______ _______ _______ _____ _____    ______ ____
ROOT
ATOM      1  C   UNL     1       4.327   5.311  19.464  0.00  0.00    +0.000 C 
ENDROOT
BRANCH   1   2
ATOM      2  C   UNL     1       2.838   5.659  19.654  0.00  0.00    +0.000 C 
BRANCH   2   3
ATOM      3  N   UNL     1       2.314   5.283  20.972  0.00  0.00    +0.000 NA
ATOM      4  H   UNL     1       3.078   5.228  21.651  0.00  0.00    +0.000 HD
BRANCH   3   5
ATOM      5  C   UNL     1       1.510   4.052  20.982  0.00  0.00    +0.000 C 
ATOM      6  C   UNL     1       2.292   2.850  21.519  0.00  0.00    +0.000 C 
BRANCH   5   8
ATOM      7  C   UNL     1       1.279   2.341  19.081  0.00  0.00    +0.000 C 
ATOM      8  C   UNL     1       1.047   3.777  19.536  0.00  0.00    +0.000 C 
ENDBRANCH   5   8
ENDBRANCH   3   5
ENDBRANCH   2   3
ENDBRANCH   1   2
BRANCH   1   9
ATOM      9  O   UNL     1       4.877   6.148  18.442  0.00  0.00    +0.000 OA
BRANCH   9  10
ATOM     10  C   UNL     1       5.231   5.538  17.272  0.00  0.00    +0.000 A 
ATOM     11  C   UNL     1       5.615   4.201  17.143  0.00  0.00    +0.000 A 
ATOM     12  C   UNL     1       5.885   3.671  15.876  0.00  0.00    +0.000 A 
ATOM     13  C   UNL     1       5.765   4.473  14.745  0.00  0.00    +0.000 A 
ATOM     14 BR   UNL     1       6.119   3.745  13.037  0.00  0.00    +0.000 Br
ATOM     15  C   UNL     1       5.381   5.806  14.864  0.00  0.00    +0.000 A 
ATOM     16  C   UNL     1       5.105   6.332  16.128  0.00  0.00    +0.000 A 
ENDBRANCH   9  10
ENDBRANCH   1   9
TORSDOF 6
ENDMDL
MODEL 8
REMARK VINA RESULT:      -5.3      3.106      4.959
REMARK  Name = 
REMARK  8 active torsions:
REMARK  status: ('A' for Active; 'I' for Inactive)
REMARK    1  A    between atoms: C_1  and  C_2
REMARK    2  A    between atoms: C_2  and  C_3
REMARK    3  A    between atoms: C_3  and  C_4
REMARK    4  A    between atoms: C_3  and  N_5
REMARK    5  A    between atoms: N_5  and  C_6
REMARK    6  A    between atoms: C_6  and  C_7
REMARK    7  A    between atoms: C_7  and  O_8
REMARK    8  A    between atoms: O_8  and  C_9
REMARK                            x       y       z     vdW  Elec       q    Type
REMARK                         _______ _______ _______ _____ _____    ______ ____
ROOT
ATOM      1  C   UNL     1       7.176   5.245  18.811  0.00  0.00    +0.000 C 
ENDROOT
BRANCH   1   2
ATOM      2  C   UNL     1       7.676   6.508  18.084  0.00  0.00    +0.000 C 
BRANCH   2   3
ATOM      3  N   UNL     1       7.268   6.572  16.677  0.00  0.00    +0.000 NA
ATOM      4  H   UNL     1       6.679   7.393  16.519  0.00  0.00    +0.000 HD
BRANCH   3   5
ATOM      5  C   UNL     1       6.620   5.353  16.173  0.00  0.00    +0.000 C 
ATOM      6  C   UNL     1       7.316   4.793  14.929  0.00  0.00    +0.000 C 
BRANCH   5   8
ATOM      7  C   UNL     1       4.697   7.040  16.404  0.00  0.00    +0.000 C 
ATOM      8  C   UNL     1       5.152   5.696  15.845  0.00  0.00    +0.000 C 
ENDBRANCH   5   8
ENDBRANCH   3   5
ENDBRANCH   2   3
ENDBRANCH   1   2
BRANCH   1   9
ATOM      9  O   UNL     1       6.023   5.579  19.592  0.00  0.00    +0.000 OA
BRANCH   9  10
ATOM     10  C   UNL     1       4.891   4.851  19.359  0.00  0.00    +0.000 A 
ATOM     11  C   UNL     1       4.859   3.499  19.009  0.00  0.00    +0.000 A 
ATOM     12  C   UNL     1       3.630   2.843  18.869  0.00  0.00    +0.000 A 
ATOM     13  C   UNL     1       2.442   3.536  19.084  0.00  0.00    +0.000 A 
ATOM     14 BR   UNL     1       0.788   2.639  18.904  0.00  0.00    +0.000 Br
ATOM     15  C   UNL     1       2.465   4.883  19.434  0.00  0.00    +0.000 A 
ATOM     16  C   UNL     1       3.692   5.534  19.581  0.00  0.00    +0.000 A 
ENDBRANCH   9  10
ENDBRANCH   1   9
TORSDOF 6
ENDMDL
MODEL 9
REMARK VINA RESULT:      -5.2      2.187      2.802
REMARK  Name = 
REMARK  8 active torsions:
REMARK  status: ('A' for Active; 'I' for Inactive)
REMARK    1  A    between atoms: C_1  and  C_2
REMARK    2  A    between atoms: C_2  and  C_3
REMARK    3  A    between atoms: C_3  and  C_4
REMARK    4  A    between atoms: C_3  and  N_5
REMARK    5  A    between atoms: N_5  and  C_6
REMARK    6  A    between atoms: C_6  and  C_7
REMARK    7  A    between atoms: C_7  and  O_8
REMARK    8  A    between atoms: O_8  and  C_9
REMARK                            x       y       z     vdW  Elec       q    Type
REMARK                         _______ _______ _______ _____ _____    ______ ____
ROOT
ATOM      1  C   UNL     1       2.963   2.189  17.259  0.00  0.00    +0.000 C 
ENDROOT
BRANCH   1   2
ATOM      2  C   UNL     1       2.982   1.787  18.746  0.00  0.00    +0.000 C 
BRANCH   2   3
ATOM      3  N   UNL     1       1.750   2.137  19.461  0.00  0.00    +0.000 NA
ATOM      4  H   UNL     1       1.039   2.458  18.800  0.00  0.00    +0.000 HD
BRANCH   3   5
ATOM      5  C   UNL     1       1.931   3.106  20.552  0.00  0.00    +0.000 C 
ATOM      6  C   UNL     1       1.524   2.534  21.913  0.00  0.00    +0.000 C 
BRANCH   5   8
ATOM      7  C   UNL     1       1.700   5.659  20.706  0.00  0.00    +0.000 C 
ATOM      8  C   UNL     1       1.080   4.351  20.228  0.00  0.00    +0.000 C 
ENDBRANCH   5   8
ENDBRANCH   3   5
ENDBRANCH   2   3
ENDBRANCH   1   2
BRANCH   1   9
ATOM      9  O   UNL     1       2.771   3.604  17.158  0.00  0.00    +0.000 OA
BRANCH   9  10
ATOM     10  C   UNL     1       3.891   4.382  17.222  0.00  0.00    +0.000 A 
ATOM     11  C   UNL     1       5.170   3.990  16.821  0.00  0.00    +0.000 A 
ATOM     12  C   UNL     1       6.228   4.906  16.867  0.00  0.00    +0.000 A 
ATOM     13  C   UNL     1       6.005   6.207  17.307  0.00  0.00    +0.000 A 
ATOM     14 BR   UNL     1       7.437   7.440  17.355  0.00  0.00    +0.000 Br
ATOM     15  C   UNL     1       4.733   6.606  17.709  0.00  0.00    +0.000 A 
ATOM     16  C   UNL     1       3.677   5.694  17.655  0.00  0.00    +0.000 A 
ENDBRANCH   9  10
ENDBRANCH   1   9
TORSDOF 6
ENDMDL
