MODEL 1
REMARK VINA RESULT:      -7.4      0.000      0.000
REMARK  Name = 
REMARK  8 active torsions:
REMARK  status: ('A' for Active; 'I' for Inactive)
REMARK    1  A    between atoms: C_1  and  N_2
REMARK    2  A    between atoms: C_3  and  S_4
REMARK    3  A    between atoms: S_4  and  C_5
REMARK    4  A    between atoms: C_5  and  C_6
REMARK    5  A    between atoms: C_6  and  C_7
REMARK    6  A    between atoms: C_7  and  N_8
REMARK    7  A    between atoms: N_16  and  C_17
REMARK    8  A    between atoms: C_28  and  C_29
REMARK                            x       y       z     vdW  Elec       q    Type
REMARK                         _______ _______ _______ _____ _____    ______ ____
ROOT
ATOM      1  N   UNL     1      -0.251  12.789  18.604  0.00  0.00    +0.000 NA
ATOM      2  C   UNL     1       1.082  12.329  19.013  0.00  0.00    +0.000 C 
ATOM      3  C   UNL     1       1.095  11.184  20.039  0.00  0.00    +0.000 C 
ATOM      4  C   UNL     1       0.238   9.970  19.597  0.00  0.00    +0.000 C 
ATOM      5  C   UNL     1      -1.170  10.527  19.285  0.00  0.00    +0.000 C 
ATOM      6  C   UNL     1      -1.126  11.658  18.244  0.00  0.00    +0.000 C 
ATOM      7  C   UNL     1       0.811   9.252  18.345  0.00  0.00    +0.000 C 
ATOM      8  C   UNL     1       2.151   8.581  18.624  0.00  0.00    +0.000 C 
ATOM      9  N   UNL     1       2.002   7.633  19.723  0.00  0.00    +0.000 N 
ATOM     10  C   UNL     1       1.476   8.168  20.982  0.00  0.00    +0.000 C 
ATOM     11  C   UNL     1       0.154   8.914  20.733  0.00  0.00    +0.000 C 
ENDROOT
BRANCH   9  12
ATOM     12  C   UNL     1       2.133   6.271  19.512  0.00  0.00    +0.000 A 
ATOM     13  C   UNL     1       2.239   5.742  18.215  0.00  0.00    +0.000 A 
ATOM     14  C   UNL     1       2.323   4.363  17.989  0.00  0.00    +0.000 A 
ATOM     15  C   UNL     1       2.310   3.491  19.069  0.00  0.00    +0.000 A 
ATOM     16  F   UNL     1       2.386   2.171  18.856  0.00  0.00    +0.000 F 
ATOM     17  C   UNL     1       2.218   3.972  20.363  0.00  0.00    +0.000 A 
ATOM     18  C   UNL     1       2.130   5.351  20.576  0.00  0.00    +0.000 A 
ENDBRANCH   9  12
BRANCH   1  19
ATOM     19  C   UNL     1      -0.915  13.692  19.557  0.00  0.00    +0.000 C 
BRANCH  19  20
ATOM     20  C   UNL     1      -0.052  14.866  20.066  0.00  0.00    +0.000 C 
BRANCH  20  21
ATOM     21  C   UNL     1       0.426  14.549  21.490  0.00  0.00    +0.000 C 
BRANCH  21  22
ATOM     22  S   UNL     1      -0.596  15.322  22.791  0.00  0.00    +0.000 S 
BRANCH  22  25
ATOM     23  C   UNL     1      -3.742  15.552  21.933  0.00  0.00    +0.000 C 
ATOM     24  N   UNL     1      -3.162  14.342  22.454  0.00  0.00    +0.000 N 
ATOM     25  C   UNL     1      -1.881  14.154  22.899  0.00  0.00    +0.000 A 
ATOM     26  N   UNL     1      -1.771  12.962  23.435  0.00  0.00    +0.000 NA
ATOM     27  N   UNL     1      -2.990  12.343  23.329  0.00  0.00    +0.000 NA
ATOM     28  C   UNL     1      -3.831  13.154  22.708  0.00  0.00    +0.000 A 
BRANCH  28  29
ATOM     29  C   UNL     1      -5.237  12.825  22.418  0.00  0.00    +0.000 A 
ATOM     30  C   UNL     1      -5.597  12.442  21.115  0.00  0.00    +0.000 A 
ATOM     31  C   UNL     1      -6.923  12.129  20.793  0.00  0.00    +0.000 A 
ATOM     32  C   UNL     1      -7.915  12.197  21.770  0.00  0.00    +0.000 A 
ATOM     33  C   UNL     1      -7.580  12.604  23.058  0.00  0.00    +0.000 A 
ATOM     34  C   UNL     1      -6.257  12.930  23.372  0.00  0.00    +0.000 A 
ENDBRANCH  28  29
ENDBRANCH  22  25
ENDBRANCH  21  22
ENDBRANCH  20  21
ENDBRANCH  19  20
ENDBRANCH   1  19
TORSDOF 7
ENDMDL
MODEL 2
REMARK VINA RESULT:      -7.3      0.706      1.404
REMARK  Name = 
REMARK  8 active torsions:
REMARK  status: ('A' for Active; 'I' for Inactive)
REMARK    1  A    between atoms: C_1  and  N_2
REMARK    2  A    between atoms: C_3  and  S_4
REMARK    3  A    between atoms: S_4  and  C_5
REMARK    4  A    between atoms: C_5  and  C_6
REMARK    5  A    between atoms: C_6  and  C_7
REMARK    6  A    between atoms: C_7  and  N_8
REMARK    7  A    between atoms: N_16  and  C_17
REMARK    8  A    between atoms: C_28  and  C_29
REMARK                            x       y       z     vdW  Elec       q    Type
REMARK                         _______ _______ _______ _____ _____    ______ ____
ROOT
ATOM      1  N   UNL     1       0.101  12.898  18.769  0.00  0.00    +0.000 NA
ATOM      2  C   UNL     1       1.394  12.344  19.189  0.00  0.00    +0.000 C 
ATOM      3  C   UNL     1       1.316  11.153  20.158  0.00  0.00    +0.000 C 
ATOM      4  C   UNL     1       0.406  10.012  19.636  0.00  0.00    +0.000 C 
ATOM      5  C   UNL     1      -0.960  10.661  19.315  0.00  0.00    +0.000 C 
ATOM      6  C   UNL     1      -0.824  11.835  18.332  0.00  0.00    +0.000 C 
ATOM      7  C   UNL     1       0.974   9.323  18.365  0.00  0.00    +0.000 C 
ATOM      8  C   UNL     1       2.267   8.564  18.646  0.00  0.00    +0.000 C 
ATOM      9  N   UNL     1       2.034   7.575  19.693  0.00  0.00    +0.000 N 
ATOM     10  C   UNL     1       1.503   8.079  20.962  0.00  0.00    +0.000 C 
ATOM     11  C   UNL     1       0.232   8.909  20.716  0.00  0.00    +0.000 C 
ENDROOT
BRANCH   9  12
ATOM     12  C   UNL     1       2.096   6.220  19.419  0.00  0.00    +0.000 A 
ATOM     13  C   UNL     1       1.763   5.264  20.395  0.00  0.00    +0.000 A 
ATOM     14  C   UNL     1       1.869   3.891  20.142  0.00  0.00    +0.000 A 
ATOM     15  C   UNL     1       2.306   3.455  18.899  0.00  0.00    +0.000 A 
ATOM     16  F   UNL     1       2.412   2.143  18.657  0.00  0.00    +0.000 F 
ATOM     17  C   UNL     1       2.633   4.364  17.909  0.00  0.00    +0.000 A 
ATOM     18  C   UNL     1       2.527   5.733  18.172  0.00  0.00    +0.000 A 
ENDBRANCH   9  12
BRANCH   1  19
ATOM     19  C   UNL     1      -0.539  13.790  19.747  0.00  0.00    +0.000 C 
BRANCH  19  20
ATOM     20  C   UNL     1       0.407  14.396  20.806  0.00  0.00    +0.000 C 
BRANCH  20  21
ATOM     21  C   UNL     1      -0.342  15.502  21.564  0.00  0.00    +0.000 C 
BRANCH  21  22
ATOM     22  S   UNL     1      -0.918  14.990  23.218  0.00  0.00    +0.000 S 
BRANCH  22  25
ATOM     23  C   UNL     1      -2.692  12.357  22.438  0.00  0.00    +0.000 C 
ATOM     24  N   UNL     1      -3.274  13.658  22.641  0.00  0.00    +0.000 N 
ATOM     25  C   UNL     1      -2.623  14.833  22.909  0.00  0.00    +0.000 A 
ATOM     26  N   UNL     1      -3.478  15.827  22.882  0.00  0.00    +0.000 NA
ATOM     27  N   UNL     1      -4.716  15.305  22.610  0.00  0.00    +0.000 NA
ATOM     28  C   UNL     1      -4.613  13.990  22.495  0.00  0.00    +0.000 A 
BRANCH  28  29
ATOM     29  C   UNL     1      -5.743  13.093  22.203  0.00  0.00    +0.000 A 
ATOM     30  C   UNL     1      -5.797  12.440  20.960  0.00  0.00    +0.000 A 
ATOM     31  C   UNL     1      -6.858  11.586  20.637  0.00  0.00    +0.000 A 
ATOM     32  C   UNL     1      -7.887  11.372  21.551  0.00  0.00    +0.000 A 
ATOM     33  C   UNL     1      -7.865  12.034  22.776  0.00  0.00    +0.000 A 
ATOM     34  C   UNL     1      -6.811  12.898  23.089  0.00  0.00    +0.000 A 
ENDBRANCH  28  29
ENDBRANCH  22  25
ENDBRANCH  21  22
ENDBRANCH  20  21
ENDBRANCH  19  20
ENDBRANCH   1  19
TORSDOF 7
ENDMDL
MODEL 3
REMARK VINA RESULT:      -7.2      3.983      7.538
REMARK  Name = 
REMARK  8 active torsions:
REMARK  status: ('A' for Active; 'I' for Inactive)
REMARK    1  A    between atoms: C_1  and  N_2
REMARK    2  A    between atoms: C_3  and  S_4
REMARK    3  A    between atoms: S_4  and  C_5
REMARK    4  A    between atoms: C_5  and  C_6
REMARK    5  A    between atoms: C_6  and  C_7
REMARK    6  A    between atoms: C_7  and  N_8
REMARK    7  A    between atoms: N_16  and  C_17
REMARK    8  A    between atoms: C_28  and  C_29
REMARK                            x       y       z     vdW  Elec       q    Type
REMARK                         _______ _______ _______ _____ _____    ______ ____
ROOT
ATOM      1  N   UNL     1      -0.141  13.081  18.434  0.00  0.00    +0.000 NA
ATOM      2  C   UNL     1       1.195  12.582  18.781  0.00  0.00    +0.000 C 
ATOM      3  C   UNL     1       1.226  11.474  19.847  0.00  0.00    +0.000 C 
ATOM      4  C   UNL     1       0.298  10.281  19.502  0.00  0.00    +0.000 C 
ATOM      5  C   UNL     1      -1.104  10.883  19.252  0.00  0.00    +0.000 C 
ATOM      6  C   UNL     1      -1.078  11.974  18.169  0.00  0.00    +0.000 C 
ATOM      7  C   UNL     1       0.767   9.497  18.247  0.00  0.00    +0.000 C 
ATOM      8  C   UNL     1       2.095   8.781  18.472  0.00  0.00    +0.000 C 
ATOM      9  N   UNL     1       1.975   7.879  19.613  0.00  0.00    +0.000 N 
ATOM     10  C   UNL     1       1.546   8.480  20.879  0.00  0.00    +0.000 C 
ATOM     11  C   UNL     1       0.242   9.270  20.680  0.00  0.00    +0.000 C 
ENDROOT
BRANCH   9  12
ATOM     12  C   UNL     1       2.040   6.507  19.446  0.00  0.00    +0.000 A 
ATOM     13  C   UNL     1       2.367   5.939  18.202  0.00  0.00    +0.000 A 
ATOM     14  C   UNL     1       2.389   4.552  18.012  0.00  0.00    +0.000 A 
ATOM     15  C   UNL     1       2.088   3.711  19.074  0.00  0.00    +0.000 A 
ATOM     16  F   UNL     1       2.104   2.385  18.893  0.00  0.00    +0.000 F 
ATOM     17  C   UNL     1       1.772   4.230  20.317  0.00  0.00    +0.000 A 
ATOM     18  C   UNL     1       1.750   5.616  20.495  0.00  0.00    +0.000 A 
ENDBRANCH   9  12
BRANCH   1  19
ATOM     19  C   UNL     1      -0.711  14.043  19.389  0.00  0.00    +0.000 C 
BRANCH  19  20
ATOM     20  C   UNL     1       0.265  15.124  19.901  0.00  0.00    +0.000 C 
BRANCH  20  21
ATOM     21  C   UNL     1       0.528  16.129  18.771  0.00  0.00    +0.000 C 
BRANCH  21  22
ATOM     22  S   UNL     1       1.848  17.330  19.156  0.00  0.00    +0.000 S 
BRANCH  22  25
ATOM     23  C   UNL     1       4.947  17.530  20.178  0.00  0.00    +0.000 C 
ATOM     24  N   UNL     1       4.497  16.534  19.240  0.00  0.00    +0.000 N 
ATOM     25  C   UNL     1       3.245  16.398  18.701  0.00  0.00    +0.000 A 
ATOM     26  N   UNL     1       3.261  15.468  17.778  0.00  0.00    +0.000 NA
ATOM     27  N   UNL     1       4.536  14.966  17.713  0.00  0.00    +0.000 NA
ATOM     28  C   UNL     1       5.285  15.579  18.615  0.00  0.00    +0.000 A 
BRANCH  28  29
ATOM     29  C   UNL     1       6.714  15.299  18.833  0.00  0.00    +0.000 A 
ATOM     30  C   UNL     1       7.126  14.743  20.056  0.00  0.00    +0.000 A 
ATOM     31  C   UNL     1       8.475  14.469  20.309  0.00  0.00    +0.000 A 
ATOM     32  C   UNL     1       9.439  14.750  19.342  0.00  0.00    +0.000 A 
ATOM     33  C   UNL     1       9.052  15.329  18.137  0.00  0.00    +0.000 A 
ATOM     34  C   UNL     1       7.705  15.615  17.894  0.00  0.00    +0.000 A 
ENDBRANCH  28  29
ENDBRANCH  22  25
ENDBRANCH  21  22
ENDBRANCH  20  21
ENDBRANCH  19  20
ENDBRANCH   1  19
TORSDOF 7
ENDMDL
MODEL 4
REMARK VINA RESULT:      -7.2      3.519      6.832
REMARK  Name = 
REMARK  8 active torsions:
REMARK  status: ('A' for Active; 'I' for Inactive)
REMARK    1  A    between atoms: C_1  and  N_2
REMARK    2  A    between atoms: C_3  and  S_4
REMARK    3  A    between atoms: S_4  and  C_5
REMARK    4  A    between atoms: C_5  and  C_6
REMARK    5  A    between atoms: C_6  and  C_7
REMARK    6  A    between atoms: C_7  and  N_8
REMARK    7  A    between atoms: N_16  and  C_17
REMARK    8  A    between atoms: C_28  and  C_29
REMARK                            x       y       z     vdW  Elec       q    Type
REMARK                         _______ _______ _______ _____ _____    ______ ____
ROOT
ATOM      1  N   UNL     1      -0.101  12.720  18.350  0.00  0.00    +0.000 NA
ATOM      2  C   UNL     1       1.236  12.225  18.698  0.00  0.00    +0.000 C 
ATOM      3  C   UNL     1       1.277  11.180  19.825  0.00  0.00    +0.000 C 
ATOM      4  C   UNL     1       0.328   9.982  19.570  0.00  0.00    +0.000 C 
ATOM      5  C   UNL     1      -1.072  10.587  19.314  0.00  0.00    +0.000 C 
ATOM      6  C   UNL     1      -1.057  11.612  18.169  0.00  0.00    +0.000 C 
ATOM      7  C   UNL     1       0.760   9.120  18.353  0.00  0.00    +0.000 C 
ATOM      8  C   UNL     1       2.084   8.402  18.591  0.00  0.00    +0.000 C 
ATOM      9  N   UNL     1       1.977   7.569  19.785  0.00  0.00    +0.000 N 
ATOM     10  C   UNL     1       1.583   8.247  21.022  0.00  0.00    +0.000 C 
ATOM     11  C   UNL     1       0.285   9.041  20.805  0.00  0.00    +0.000 C 
ENDROOT
BRANCH   9  12
ATOM     12  C   UNL     1       2.023   6.188  19.697  0.00  0.00    +0.000 A 
ATOM     13  C   UNL     1       1.488   5.375  20.711  0.00  0.00    +0.000 A 
ATOM     14  C   UNL     1       1.573   3.979  20.653  0.00  0.00    +0.000 A 
ATOM     15  C   UNL     1       2.192   3.375  19.569  0.00  0.00    +0.000 A 
ATOM     16  F   UNL     1       2.279   2.041  19.513  0.00  0.00    +0.000 F 
ATOM     17  C   UNL     1       2.723   4.140  18.544  0.00  0.00    +0.000 A 
ATOM     18  C   UNL     1       2.636   5.533  18.613  0.00  0.00    +0.000 A 
ENDBRANCH   9  12
BRANCH   1  19
ATOM     19  C   UNL     1      -0.640  13.743  19.259  0.00  0.00    +0.000 C 
BRANCH  19  20
ATOM     20  C   UNL     1       0.076  15.111  19.214  0.00  0.00    +0.000 C 
BRANCH  20  21
ATOM     21  C   UNL     1      -0.388  15.953  20.410  0.00  0.00    +0.000 C 
BRANCH  21  22
ATOM     22  S   UNL     1       0.304  17.642  20.424  0.00  0.00    +0.000 S 
BRANCH  22  25
ATOM     23  C   UNL     1       3.225  16.309  21.039  0.00  0.00    +0.000 C 
ATOM     24  N   UNL     1       2.844  16.787  19.735  0.00  0.00    +0.000 N 
ATOM     25  C   UNL     1       1.679  17.414  19.382  0.00  0.00    +0.000 A 
ATOM     26  N   UNL     1       1.760  17.830  18.141  0.00  0.00    +0.000 NA
ATOM     27  N   UNL     1       2.989  17.461  17.657  0.00  0.00    +0.000 NA
ATOM     28  C   UNL     1       3.641  16.799  18.600  0.00  0.00    +0.000 A 
BRANCH  28  29
ATOM     29  C   UNL     1       4.998  16.249  18.438  0.00  0.00    +0.000 A 
ATOM     30  C   UNL     1       5.157  14.973  17.872  0.00  0.00    +0.000 A 
ATOM     31  C   UNL     1       6.427  14.408  17.708  0.00  0.00    +0.000 A 
ATOM     32  C   UNL     1       7.562  15.109  18.111  0.00  0.00    +0.000 A 
ATOM     33  C   UNL     1       7.420  16.362  18.700  0.00  0.00    +0.000 A 
ATOM     34  C   UNL     1       6.149  16.917  18.876  0.00  0.00    +0.000 A 
ENDBRANCH  28  29
ENDBRANCH  22  25
ENDBRANCH  21  22
ENDBRANCH  20  21
ENDBRANCH  19  20
ENDBRANCH   1  19
TORSDOF 7
ENDMDL
MODEL 5
REMARK VINA RESULT:      -7.1      4.849     11.337
REMARK  Name = 
REMARK  8 active torsions:
REMARK  status: ('A' for Active; 'I' for Inactive)
REMARK    1  A    between atoms: C_1  and  N_2
REMARK    2  A    between atoms: C_3  and  S_4
REMARK    3  A    between atoms: S_4  and  C_5
REMARK    4  A    between atoms: C_5  and  C_6
REMARK    5  A    between atoms: C_6  and  C_7
REMARK    6  A    between atoms: C_7  and  N_8
REMARK    7  A    between atoms: N_16  and  C_17
REMARK    8  A    between atoms: C_28  and  C_29
REMARK                            x       y       z     vdW  Elec       q    Type
REMARK                         _______ _______ _______ _____ _____    ______ ____
ROOT
ATOM      1  N   UNL     1       2.053   7.674  20.356  0.00  0.00    +0.000 NA
ATOM      2  C   UNL     1       2.204   8.561  19.197  0.00  0.00    +0.000 C 
ATOM      3  C   UNL     1       0.937   9.331  18.789  0.00  0.00    +0.000 C 
ATOM      4  C   UNL     1       0.304  10.116  19.966  0.00  0.00    +0.000 C 
ATOM      5  C   UNL     1       0.087   9.089  21.102  0.00  0.00    +0.000 C 
ATOM      6  C   UNL     1       1.387   8.360  21.478  0.00  0.00    +0.000 C 
ATOM      7  C   UNL     1       1.206  11.275  20.470  0.00  0.00    +0.000 C 
ATOM      8  C   UNL     1       1.364  12.380  19.431  0.00  0.00    +0.000 C 
ATOM      9  N   UNL     1       0.048  12.891  19.058  0.00  0.00    +0.000 N 
ATOM     10  C   UNL     1      -0.915  11.909  18.554  0.00  0.00    +0.000 C 
ATOM     11  C   UNL     1      -1.054  10.740  19.545  0.00  0.00    +0.000 C 
ENDROOT
BRANCH   9  12
ATOM     12  C   UNL     1      -0.333  14.182  19.381  0.00  0.00    +0.000 A 
ATOM     13  C   UNL     1      -0.942  14.475  20.613  0.00  0.00    +0.000 A 
ATOM     14  C   UNL     1      -1.374  15.769  20.927  0.00  0.00    +0.000 A 
ATOM     15  C   UNL     1      -1.194  16.794  20.009  0.00  0.00    +0.000 A 
ATOM     16  F   UNL     1      -1.610  18.031  20.306  0.00  0.00    +0.000 F 
ATOM     17  C   UNL     1      -0.588  16.548  18.789  0.00  0.00    +0.000 A 
ATOM     18  C   UNL     1      -0.164  15.252  18.483  0.00  0.00    +0.000 A 
ENDBRANCH   9  12
BRANCH   1  19
ATOM     19  C   UNL     1       1.412   6.381  20.069  0.00  0.00    +0.000 C 
BRANCH  19  20
ATOM     20  C   UNL     1       1.943   5.185  20.888  0.00  0.00    +0.000 C 
BRANCH  20  21
ATOM     21  C   UNL     1       0.995   3.993  20.694  0.00  0.00    +0.000 C 
BRANCH  21  22
ATOM     22  S   UNL     1       1.839   2.473  20.138  0.00  0.00    +0.000 S 
BRANCH  22  25
ATOM     23  C   UNL     1       4.839   3.462  19.294  0.00  0.00    +0.000 C 
ATOM     24  N   UNL     1       3.757   3.356  18.349  0.00  0.00    +0.000 N 
ATOM     25  C   UNL     1       2.456   3.014  18.603  0.00  0.00    +0.000 A 
ATOM     26  N   UNL     1       1.738   3.170  17.517  0.00  0.00    +0.000 NA
ATOM     27  N   UNL     1       2.576   3.605  16.523  0.00  0.00    +0.000 NA
ATOM     28  C   UNL     1       3.806   3.689  17.004  0.00  0.00    +0.000 A 
BRANCH  28  29
ATOM     29  C   UNL     1       4.974   4.126  16.219  0.00  0.00    +0.000 A 
ATOM     30  C   UNL     1       5.799   5.143  16.726  0.00  0.00    +0.000 A 
ATOM     31  C   UNL     1       6.914   5.595  16.009  0.00  0.00    +0.000 A 
ATOM     32  C   UNL     1       7.221   5.037  14.770  0.00  0.00    +0.000 A 
ATOM     33  C   UNL     1       6.397   4.049  14.240  0.00  0.00    +0.000 A 
ATOM     34  C   UNL     1       5.276   3.611  14.952  0.00  0.00    +0.000 A 
ENDBRANCH  28  29
ENDBRANCH  22  25
ENDBRANCH  21  22
ENDBRANCH  20  21
ENDBRANCH  19  20
ENDBRANCH   1  19
TORSDOF 7
ENDMDL
MODEL 6
REMARK VINA RESULT:      -7.0      3.019      6.107
REMARK  Name = 
REMARK  8 active torsions:
REMARK  status: ('A' for Active; 'I' for Inactive)
REMARK    1  A    between atoms: C_1  and  N_2
REMARK    2  A    between atoms: C_3  and  S_4
REMARK    3  A    between atoms: S_4  and  C_5
REMARK    4  A    between atoms: C_5  and  C_6
REMARK    5  A    between atoms: C_6  and  C_7
REMARK    6  A    between atoms: C_7  and  N_8
REMARK    7  A    between atoms: N_16  and  C_17
REMARK    8  A    between atoms: C_28  and  C_29
REMARK                            x       y       z     vdW  Elec       q    Type
REMARK                         _______ _______ _______ _____ _____    ______ ____
ROOT
ATOM      1  N   UNL     1      -0.828  12.803  18.843  0.00  0.00    +0.000 NA
ATOM      2  C   UNL     1       0.607  12.531  18.992  0.00  0.00    +0.000 C 
ATOM      3  C   UNL     1       0.955  11.265  19.793  0.00  0.00    +0.000 C 
ATOM      4  C   UNL     1       0.237   9.999  19.259  0.00  0.00    +0.000 C 
ATOM      5  C   UNL     1      -1.271  10.338  19.231  0.00  0.00    +0.000 C 
ATOM      6  C   UNL     1      -1.563  11.602  18.406  0.00  0.00    +0.000 C 
ATOM      7  C   UNL     1       0.712   9.591  17.839  0.00  0.00    +0.000 C 
ATOM      8  C   UNL     1       2.167   9.133  17.823  0.00  0.00    +0.000 C 
ATOM      9  N   UNL     1       2.337   8.019  18.750  0.00  0.00    +0.000 N 
ATOM     10  C   UNL     1       1.937   8.257  20.139  0.00  0.00    +0.000 C 
ATOM     11  C   UNL     1       0.494   8.786  20.195  0.00  0.00    +0.000 C 
ENDROOT
BRANCH   9  12
ATOM     12  C   UNL     1       2.642   6.749  18.290  0.00  0.00    +0.000 A 
ATOM     13  C   UNL     1       1.725   5.691  18.411  0.00  0.00    +0.000 A 
ATOM     14  C   UNL     1       2.043   4.394  17.993  0.00  0.00    +0.000 A 
ATOM     15  C   UNL     1       3.289   4.139  17.437  0.00  0.00    +0.000 A 
ATOM     16  F   UNL     1       3.597   2.899  17.040  0.00  0.00    +0.000 F 
ATOM     17  C   UNL     1       4.216   5.156  17.290  0.00  0.00    +0.000 A 
ATOM     18  C   UNL     1       3.889   6.447  17.715  0.00  0.00    +0.000 A 
ENDBRANCH   9  12
BRANCH   1  19
ATOM     19  C   UNL     1      -1.467  13.420  20.016  0.00  0.00    +0.000 C 
BRANCH  19  20
ATOM     20  C   UNL     1      -1.165  14.920  20.220  0.00  0.00    +0.000 C 
BRANCH  20  21
ATOM     21  C   UNL     1      -1.328  15.260  21.708  0.00  0.00    +0.000 C 
BRANCH  21  22
ATOM     22  S   UNL     1      -0.000  16.329  22.362  0.00  0.00    +0.000 S 
BRANCH  22  25
ATOM     23  C   UNL     1       2.334  17.227  20.256  0.00  0.00    +0.000 C 
ATOM     24  N   UNL     1       2.346  15.960  20.941  0.00  0.00    +0.000 N 
ATOM     25  C   UNL     1       1.395  15.460  21.791  0.00  0.00    +0.000 A 
ATOM     26  N   UNL     1       1.687  14.220  22.099  0.00  0.00    +0.000 NA
ATOM     27  N   UNL     1       2.856  13.895  21.460  0.00  0.00    +0.000 NA
ATOM     28  C   UNL     1       3.283  14.950  20.783  0.00  0.00    +0.000 A 
BRANCH  28  29
ATOM     29  C   UNL     1       4.512  14.971  19.973  0.00  0.00    +0.000 A 
ATOM     30  C   UNL     1       4.431  14.696  18.597  0.00  0.00    +0.000 A 
ATOM     31  C   UNL     1       5.576  14.697  17.791  0.00  0.00    +0.000 A 
ATOM     32  C   UNL     1       6.824  14.971  18.348  0.00  0.00    +0.000 A 
ATOM     33  C   UNL     1       6.925  15.216  19.714  0.00  0.00    +0.000 A 
ATOM     34  C   UNL     1       5.782  15.200  20.519  0.00  0.00    +0.000 A 
ENDBRANCH  28  29
ENDBRANCH  22  25
ENDBRANCH  21  22
ENDBRANCH  20  21
ENDBRANCH  19  20
ENDBRANCH   1  19
TORSDOF 7
ENDMDL
MODEL 7
REMARK VINA RESULT:      -7.0      3.838      6.862
REMARK  Name = 
REMARK  8 active torsions:
REMARK  status: ('A' for Active; 'I' for Inactive)
REMARK    1  A    between atoms: C_1  and  N_2
REMARK    2  A    between atoms: C_3  and  S_4
REMARK    3  A    between atoms: S_4  and  C_5
REMARK    4  A    between atoms: C_5  and  C_6
REMARK    5  A    between atoms: C_6  and  C_7
REMARK    6  A    between atoms: C_7  and  N_8
REMARK    7  A    between atoms: N_16  and  C_17
REMARK    8  A    between atoms: C_28  and  C_29
REMARK                            x       y       z     vdW  Elec       q    Type
REMARK                         _______ _______ _______ _____ _____    ______ ____
ROOT
ATOM      1  N   UNL     1      -0.284  13.209  18.879  0.00  0.00    +0.000 NA
ATOM      2  C   UNL     1       1.064  12.713  19.183  0.00  0.00    +0.000 C 
ATOM      3  C   UNL     1       1.125  11.551  20.188  0.00  0.00    +0.000 C 
ATOM      4  C   UNL     1       0.210  10.364  19.792  0.00  0.00    +0.000 C 
ATOM      5  C   UNL     1      -1.203  10.957  19.592  0.00  0.00    +0.000 C 
ATOM      6  C   UNL     1      -1.209  12.104  18.568  0.00  0.00    +0.000 C 
ATOM      7  C   UNL     1       0.673   9.654  18.491  0.00  0.00    +0.000 C 
ATOM      8  C   UNL     1       2.014   8.949  18.661  0.00  0.00    +0.000 C 
ATOM      9  N   UNL     1       1.923   7.986  19.754  0.00  0.00    +0.000 N 
ATOM     10  C   UNL     1       1.503   8.512  21.055  0.00  0.00    +0.000 C 
ATOM     11  C   UNL     1       0.185   9.291  20.915  0.00  0.00    +0.000 C 
ENDROOT
BRANCH   9  12
ATOM     12  C   UNL     1       2.007   6.625  19.514  0.00  0.00    +0.000 A 
ATOM     13  C   UNL     1       2.272   6.128  18.226  0.00  0.00    +0.000 A 
ATOM     14  C   UNL     1       2.310   4.753  17.965  0.00  0.00    +0.000 A 
ATOM     15  C   UNL     1       2.089   3.853  18.998  0.00  0.00    +0.000 A 
ATOM     16  F   UNL     1       2.121   2.538  18.749  0.00  0.00    +0.000 F 
ATOM     17  C   UNL     1       1.835   4.303  20.282  0.00  0.00    +0.000 A 
ATOM     18  C   UNL     1       1.796   5.677  20.531  0.00  0.00    +0.000 A 
ENDBRANCH   9  12
BRANCH   1  19
ATOM     19  C   UNL     1      -0.856  14.110  19.891  0.00  0.00    +0.000 C 
BRANCH  19  20
ATOM     20  C   UNL     1      -0.363  15.573  19.827  0.00  0.00    +0.000 C 
BRANCH  20  21
ATOM     21  C   UNL     1       0.635  15.810  20.969  0.00  0.00    +0.000 C 
BRANCH  21  22
ATOM     22  S   UNL     1       2.253  16.439  20.403  0.00  0.00    +0.000 S 
BRANCH  22  25
ATOM     23  C   UNL     1       5.117  14.929  19.956  0.00  0.00    +0.000 C 
ATOM     24  N   UNL     1       4.516  15.093  21.254  0.00  0.00    +0.000 N 
ATOM     25  C   UNL     1       3.300  15.650  21.547  0.00  0.00    +0.000 A 
ATOM     26  N   UNL     1       3.036  15.487  22.821  0.00  0.00    +0.000 NA
ATOM     27  N   UNL     1       4.097  14.828  23.386  0.00  0.00    +0.000 NA
ATOM     28  C   UNL     1       5.014  14.613  22.456  0.00  0.00    +0.000 A 
BRANCH  28  29
ATOM     29  C   UNL     1       6.294  13.926  22.698  0.00  0.00    +0.000 A 
ATOM     30  C   UNL     1       7.493  14.651  22.591  0.00  0.00    +0.000 A 
ATOM     31  C   UNL     1       8.732  14.035  22.803  0.00  0.00    +0.000 A 
ATOM     32  C   UNL     1       8.794  12.681  23.124  0.00  0.00    +0.000 A 
ATOM     33  C   UNL     1       7.618  11.941  23.205  0.00  0.00    +0.000 A 
ATOM     34  C   UNL     1       6.383  12.556  22.977  0.00  0.00    +0.000 A 
ENDBRANCH  28  29
ENDBRANCH  22  25
ENDBRANCH  21  22
ENDBRANCH  20  21
ENDBRANCH  19  20
ENDBRANCH   1  19
TORSDOF 7
ENDMDL
MODEL 8
REMARK VINA RESULT:      -6.9      4.769     11.321
REMARK  Name = 
REMARK  8 active torsions:
REMARK  status: ('A' for Active; 'I' for Inactive)
REMARK    1  A    between atoms: C_1  and  N_2
REMARK    2  A    between atoms: C_3  and  S_4
REMARK    3  A    between atoms: S_4  and  C_5
REMARK    4  A    between atoms: C_5  and  C_6
REMARK    5  A    between atoms: C_6  and  C_7
REMARK    6  A    between atoms: C_7  and  N_8
REMARK    7  A    between atoms: N_16  and  C_17
REMARK    8  A    between atoms: C_28  and  C_29
REMARK                            x       y       z     vdW  Elec       q    Type
REMARK                         _______ _______ _______ _____ _____    ______ ____
ROOT
ATOM      1  N   UNL     1       1.858   7.780  20.558  0.00  0.00    +0.000 NA
ATOM      2  C   UNL     1       1.937   8.595  19.340  0.00  0.00    +0.000 C 
ATOM      3  C   UNL     1       0.646   9.341  18.964  0.00  0.00    +0.000 C 
ATOM      4  C   UNL     1       0.084  10.197  20.128  0.00  0.00    +0.000 C 
ATOM      5  C   UNL     1      -0.061   9.242  21.335  0.00  0.00    +0.000 C 
ATOM      6  C   UNL     1       1.261   8.535  21.675  0.00  0.00    +0.000 C 
ATOM      7  C   UNL     1       1.012  11.384  20.504  0.00  0.00    +0.000 C 
ATOM      8  C   UNL     1       1.105  12.423  19.392  0.00  0.00    +0.000 C 
ATOM      9  N   UNL     1      -0.232  12.912  19.070  0.00  0.00    +0.000 N 
ATOM     10  C   UNL     1      -1.222  11.903  18.687  0.00  0.00    +0.000 C 
ATOM     11  C   UNL     1      -1.298  10.797  19.753  0.00  0.00    +0.000 C 
ENDROOT
BRANCH   9  12
ATOM     12  C   UNL     1      -0.595  14.221  19.336  0.00  0.00    +0.000 A 
ATOM     13  C   UNL     1       0.011  15.296  18.662  0.00  0.00    +0.000 A 
ATOM     14  C   UNL     1      -0.315  16.625  18.959  0.00  0.00    +0.000 A 
ATOM     15  C   UNL     1      -1.263  16.896  19.935  0.00  0.00    +0.000 A 
ATOM     16  F   UNL     1      -1.573  18.165  20.224  0.00  0.00    +0.000 F 
ATOM     17  C   UNL     1      -1.890  15.865  20.614  0.00  0.00    +0.000 A 
ATOM     18  C   UNL     1      -1.554  14.542  20.313  0.00  0.00    +0.000 A 
ENDBRANCH   9  12
BRANCH   1  19
ATOM     19  C   UNL     1       1.203   6.474  20.390  0.00  0.00    +0.000 C 
BRANCH  19  20
ATOM     20  C   UNL     1       2.107   5.246  20.631  0.00  0.00    +0.000 C 
BRANCH  20  21
ATOM     21  C   UNL     1       1.230   4.062  21.062  0.00  0.00    +0.000 C 
BRANCH  21  22
ATOM     22  S   UNL     1       1.546   2.537  20.109  0.00  0.00    +0.000 S 
BRANCH  22  25
ATOM     23  C   UNL     1       2.387   3.523  17.108  0.00  0.00    +0.000 C 
ATOM     24  N   UNL     1       3.340   3.375  18.176  0.00  0.00    +0.000 N 
ATOM     25  C   UNL     1       3.110   2.914  19.445  0.00  0.00    +0.000 A 
ATOM     26  N   UNL     1       4.249   2.785  20.082  0.00  0.00    +0.000 NA
ATOM     27  N   UNL     1       5.249   3.181  19.232  0.00  0.00    +0.000 NA
ATOM     28  C   UNL     1       4.711   3.573  18.088  0.00  0.00    +0.000 A 
BRANCH  28  29
ATOM     29  C   UNL     1       5.483   4.065  16.934  0.00  0.00    +0.000 A 
ATOM     30  C   UNL     1       6.603   4.882  17.158  0.00  0.00    +0.000 A 
ATOM     31  C   UNL     1       7.361   5.380  16.090  0.00  0.00    +0.000 A 
ATOM     32  C   UNL     1       7.008   5.070  14.779  0.00  0.00    +0.000 A 
ATOM     33  C   UNL     1       5.884   4.285  14.538  0.00  0.00    +0.000 A 
ATOM     34  C   UNL     1       5.121   3.803  15.607  0.00  0.00    +0.000 A 
ENDBRANCH  28  29
ENDBRANCH  22  25
ENDBRANCH  21  22
ENDBRANCH  20  21
ENDBRANCH  19  20
ENDBRANCH   1  19
TORSDOF 7
ENDMDL
MODEL 9
REMARK VINA RESULT:      -6.8      5.146     11.988
REMARK  Name = 
REMARK  8 active torsions:
REMARK  status: ('A' for Active; 'I' for Inactive)
REMARK    1  A    between atoms: C_1  and  N_2
REMARK    2  A    between atoms: C_3  and  S_4
REMARK    3  A    between atoms: S_4  and  C_5
REMARK    4  A    between atoms: C_5  and  C_6
REMARK    5  A    between atoms: C_6  and  C_7
REMARK    6  A    between atoms: C_7  and  N_8
REMARK    7  A    between atoms: N_16  and  C_17
REMARK    8  A    between atoms: C_28  and  C_29
REMARK                            x       y       z     vdW  Elec       q    Type
REMARK                         _______ _______ _______ _____ _____    ______ ____
ROOT
ATOM      1  N   UNL     1       2.004   7.836  20.360  0.00  0.00    +0.000 NA
ATOM      2  C   UNL     1       2.233   8.844  19.319  0.00  0.00    +0.000 C 
ATOM      3  C   UNL     1       0.972   9.560  18.808  0.00  0.00    +0.000 C 
ATOM      4  C   UNL     1       0.124  10.175  19.950  0.00  0.00    +0.000 C 
ATOM      5  C   UNL     1      -0.156   9.027  20.947  0.00  0.00    +0.000 C 
ATOM      6  C   UNL     1       1.139   8.357  21.435  0.00  0.00    +0.000 C 
ATOM      7  C   UNL     1       0.850  11.339  20.679  0.00  0.00    +0.000 C 
ATOM      8  C   UNL     1       1.053  12.551  19.777  0.00  0.00    +0.000 C 
ATOM      9  N   UNL     1      -0.239  13.003  19.270  0.00  0.00    +0.000 N 
ATOM     10  C   UNL     1      -1.041  12.012  18.549  0.00  0.00    +0.000 C 
ATOM     11  C   UNL     1      -1.213  10.742  19.400  0.00  0.00    +0.000 C 
ENDROOT
BRANCH   9  12
ATOM     12  C   UNL     1      -0.766  14.225  19.651  0.00  0.00    +0.000 A 
ATOM     13  C   UNL     1      -1.815  14.307  20.583  0.00  0.00    +0.000 A 
ATOM     14  C   UNL     1      -2.386  15.535  20.938  0.00  0.00    +0.000 A 
ATOM     15  C   UNL     1      -1.907  16.704  20.365  0.00  0.00    +0.000 A 
ATOM     16  F   UNL     1      -2.454  17.879  20.699  0.00  0.00    +0.000 F 
ATOM     17  C   UNL     1      -0.868  16.667  19.451  0.00  0.00    +0.000 A 
ATOM     18  C   UNL     1      -0.307  15.436  19.101  0.00  0.00    +0.000 A 
ENDBRANCH   9  12
BRANCH   1  19
ATOM     19  C   UNL     1       1.517   6.537  19.870  0.00  0.00    +0.000 C 
BRANCH  19  20
ATOM     20  C   UNL     1       2.447   5.818  18.869  0.00  0.00    +0.000 C 
BRANCH  20  21
ATOM     21  C   UNL     1       3.866   5.774  19.454  0.00  0.00    +0.000 C 
BRANCH  21  22
ATOM     22  S   UNL     1       4.608   4.106  19.441  0.00  0.00    +0.000 S 
BRANCH  22  25
ATOM     23  C   UNL     1       4.170   3.738  16.223  0.00  0.00    +0.000 C 
ATOM     24  N   UNL     1       5.422   4.159  16.797  0.00  0.00    +0.000 N 
ATOM     25  C   UNL     1       5.731   4.287  18.125  0.00  0.00    +0.000 A 
ATOM     26  N   UNL     1       7.009   4.551  18.256  0.00  0.00    +0.000 NA
ATOM     27  N   UNL     1       7.553   4.617  17.000  0.00  0.00    +0.000 NA
ATOM     28  C   UNL     1       6.597   4.416  16.106  0.00  0.00    +0.000 A 
BRANCH  28  29
ATOM     29  C   UNL     1       6.812   4.414  14.649  0.00  0.00    +0.000 A 
ATOM     30  C   UNL     1       7.718   5.330  14.089  0.00  0.00    +0.000 A 
ATOM     31  C   UNL     1       7.945   5.370  12.708  0.00  0.00    +0.000 A 
ATOM     32  C   UNL     1       7.267   4.494  11.862  0.00  0.00    +0.000 A 
ATOM     33  C   UNL     1       6.344   3.600  12.398  0.00  0.00    +0.000 A 
ATOM     34  C   UNL     1       6.109   3.574  13.776  0.00  0.00    +0.000 A 
ENDBRANCH  28  29
ENDBRANCH  22  25
ENDBRANCH  21  22
ENDBRANCH  20  21
ENDBRANCH  19  20
ENDBRANCH   1  19
TORSDOF 7
ENDMDL
