MODEL 1
REMARK VINA RESULT:      -8.0      0.000      0.000
REMARK  Name = 
REMARK  11 active torsions:
REMARK  status: ('A' for Active; 'I' for Inactive)
REMARK    1  A    between atoms: C_1  and  C_2
REMARK    2  A    between atoms: C_4  and  C_5
REMARK    3  A    between atoms: C_10  and  C_11
REMARK    4  A    between atoms: C_14  and  N_15
REMARK    5  A    between atoms: C_16  and  C_18
REMARK    6  A    between atoms: C_18  and  O_19
REMARK    7  A    between atoms: O_19  and  C_20
REMARK    8  A    between atoms: C_24  and  O_26
REMARK    9  A    between atoms: O_26  and  C_27
REMARK   10  A    between atoms: C_27  and  C_28
REMARK   11  A    between atoms: C_27  and  C_29
REMARK                            x       y       z     vdW  Elec       q    Type
REMARK                         _______ _______ _______ _____ _____    ______ ____
ROOT
ATOM      1  C   UNL     1      -0.202  10.489  20.486  0.00  0.00    +0.000 A 
ATOM      2  C   UNL     1       0.119   9.601  21.517  0.00  0.00    +0.000 A 
ATOM      3  C   UNL     1       1.007   8.535  21.313  0.00  0.00    +0.000 A 
ATOM      4  C   UNL     1       1.602   8.330  20.071  0.00  0.00    +0.000 A 
ATOM      5  C   UNL     1       1.289   9.215  19.031  0.00  0.00    +0.000 A 
ATOM      6  C   UNL     1       0.394  10.282  19.235  0.00  0.00    +0.000 A 
ENDROOT
BRANCH   1  14
ATOM      7  C   UNL     1      -1.299  14.439  24.086  0.00  0.00    +0.000 C 
ATOM      8  C   UNL     1      -2.160  14.225  22.884  0.00  0.00    +0.000 A 
ATOM      9  C   UNL     1      -3.301  15.019  22.633  0.00  0.00    +0.000 A 
ATOM     10  C   UNL     1      -4.109  14.827  21.500  0.00  0.00    +0.000 A 
ATOM     11  C   UNL     1      -3.810  13.828  20.565  0.00  0.00    +0.000 A 
ATOM     12  C   UNL     1      -2.687  13.022  20.796  0.00  0.00    +0.000 A 
ATOM     13  N   UNL     1      -2.175  11.986  20.067  0.00  0.00    +0.000 NA
ATOM     14  C   UNL     1      -1.125  11.589  20.770  0.00  0.00    +0.000 A 
ATOM     15  O   UNL     1      -0.903  12.315  21.915  0.00  0.00    +0.000 OA
ATOM     16  C   UNL     1      -1.914  13.239  21.927  0.00  0.00    +0.000 A 
BRANCH  10  17
ATOM     17  C   UNL     1      -5.260  15.662  21.288  0.00  0.00    +0.000 C 
ATOM     18  N   UNL     1      -6.187  16.335  21.115  0.00  0.00    +0.000 NA
ENDBRANCH  10  17
ENDBRANCH   1  14
BRANCH   4  19
ATOM     19  N   UNL     1       2.499   7.267  19.804  0.00  0.00    +0.000 N 
ATOM     20  C   UNL     1       2.317   5.919  20.123  0.00  0.00    +0.000 C 
ATOM     21  O   UNL     1       1.369   5.439  20.735  0.00  0.00    +0.000 OA
ATOM     22  H   UNL     1       3.343   7.518  19.303  0.00  0.00    +0.000 HD
BRANCH  20  23
ATOM     23  C   UNL     1       3.488   5.033  19.643  0.00  0.00    +0.000 C 
BRANCH  23  24
ATOM     24  O   UNL     1       4.666   5.716  19.195  0.00  0.00    +0.000 OA
BRANCH  24  25
ATOM     25  C   UNL     1       5.650   4.826  18.633  0.00  0.00    +0.000 C 
ATOM     26  C   UNL     1       6.753   5.613  17.913  0.00  0.00    +0.000 C 
ATOM     27  C   UNL     1       6.231   6.157  16.594  0.00  0.00    +0.000 C 
ATOM     28  N   UNL     1       5.903   5.030  15.745  0.00  0.00    +0.000 N 
ATOM     29  C   UNL     1       6.738   4.743  14.678  0.00  0.00    +0.000 C 
ATOM     30  O   UNL     1       7.692   5.452  14.371  0.00  0.00    +0.000 OA
ATOM     31  C   UNL     1       4.793   4.216  16.227  0.00  0.00    +0.000 C 
ATOM     32  C   UNL     1       4.995   3.781  17.692  0.00  0.00    +0.000 C 
BRANCH  29  33
ATOM     33  O   UNL     1       6.416   3.601  14.006  0.00  0.00    +0.000 OA
BRANCH  33  34
ATOM     34  C   UNL     1       6.203   3.778  12.586  0.00  0.00    +0.000 C 
ATOM     35  C   UNL     1       7.040   2.782  11.788  0.00  0.00    +0.000 C 
ATOM     36  C   UNL     1       4.721   3.569  12.296  0.00  0.00    +0.000 C 
ENDBRANCH  33  34
ENDBRANCH  29  33
ENDBRANCH  24  25
ENDBRANCH  23  24
ENDBRANCH  20  23
ENDBRANCH   4  19
TORSDOF 8
ENDMDL
MODEL 2
REMARK VINA RESULT:      -7.7      1.309      1.860
REMARK  Name = 
REMARK  11 active torsions:
REMARK  status: ('A' for Active; 'I' for Inactive)
REMARK    1  A    between atoms: C_1  and  C_2
REMARK    2  A    between atoms: C_4  and  C_5
REMARK    3  A    between atoms: C_10  and  C_11
REMARK    4  A    between atoms: C_14  and  N_15
REMARK    5  A    between atoms: C_16  and  C_18
REMARK    6  A    between atoms: C_18  and  O_19
REMARK    7  A    between atoms: O_19  and  C_20
REMARK    8  A    between atoms: C_24  and  O_26
REMARK    9  A    between atoms: O_26  and  C_27
REMARK   10  A    between atoms: C_27  and  C_28
REMARK   11  A    between atoms: C_27  and  C_29
REMARK                            x       y       z     vdW  Elec       q    Type
REMARK                         _______ _______ _______ _____ _____    ______ ____
ROOT
ATOM      1  C   UNL     1      -0.170  10.534  21.498  0.00  0.00    +0.000 A 
ATOM      2  C   UNL     1       0.833   9.986  22.305  0.00  0.00    +0.000 A 
ATOM      3  C   UNL     1       1.647   8.940  21.850  0.00  0.00    +0.000 A 
ATOM      4  C   UNL     1       1.484   8.414  20.571  0.00  0.00    +0.000 A 
ATOM      5  C   UNL     1       0.484   8.956  19.752  0.00  0.00    +0.000 A 
ATOM      6  C   UNL     1      -0.336  10.003  20.211  0.00  0.00    +0.000 A 
ENDROOT
BRANCH   1  14
ATOM      7  C   UNL     1      -4.623  13.535  20.536  0.00  0.00    +0.000 C 
ATOM      8  C   UNL     1      -3.757  13.793  21.726  0.00  0.00    +0.000 A 
ATOM      9  C   UNL     1      -4.040  14.829  22.643  0.00  0.00    +0.000 A 
ATOM     10  C   UNL     1      -3.234  15.070  23.768  0.00  0.00    +0.000 A 
ATOM     11  C   UNL     1      -2.104  14.281  24.025  0.00  0.00    +0.000 A 
ATOM     12  C   UNL     1      -1.800  13.251  23.125  0.00  0.00    +0.000 A 
ATOM     13  N   UNL     1      -0.773  12.349  23.126  0.00  0.00    +0.000 NA
ATOM     14  C   UNL     1      -0.975  11.634  22.029  0.00  0.00    +0.000 A 
ATOM     15  O   UNL     1      -2.088  12.000  21.312  0.00  0.00    +0.000 OA
ATOM     16  C   UNL     1      -2.616  13.044  22.024  0.00  0.00    +0.000 A 
BRANCH  10  17
ATOM     17  C   UNL     1      -3.563  16.136  24.674  0.00  0.00    +0.000 C 
ATOM     18  N   UNL     1      -3.827  16.997  25.402  0.00  0.00    +0.000 NA
ENDBRANCH  10  17
ENDBRANCH   1  14
BRANCH   4  19
ATOM     19  N   UNL     1       2.271   7.353  20.060  0.00  0.00    +0.000 N 
ATOM     20  C   UNL     1       2.068   5.986  20.269  0.00  0.00    +0.000 C 
ATOM     21  O   UNL     1       1.201   5.480  20.973  0.00  0.00    +0.000 OA
ATOM     22  H   UNL     1       3.039   7.624  19.458  0.00  0.00    +0.000 HD
BRANCH  20  23
ATOM     23  C   UNL     1       3.102   5.113  19.522  0.00  0.00    +0.000 C 
BRANCH  23  24
ATOM     24  O   UNL     1       4.477   5.495  19.653  0.00  0.00    +0.000 OA
BRANCH  24  25
ATOM     25  C   UNL     1       5.381   4.558  19.037  0.00  0.00    +0.000 C 
ATOM     26  C   UNL     1       6.592   5.280  18.432  0.00  0.00    +0.000 C 
ATOM     27  C   UNL     1       6.187   6.002  17.158  0.00  0.00    +0.000 C 
ATOM     28  N   UNL     1       5.774   5.005  16.192  0.00  0.00    +0.000 N 
ATOM     29  C   UNL     1       6.616   4.729  15.128  0.00  0.00    +0.000 C 
ATOM     30  O   UNL     1       7.653   5.351  14.922  0.00  0.00    +0.000 OA
ATOM     31  C   UNL     1       4.563   4.279  16.557  0.00  0.00    +0.000 C 
ATOM     32  C   UNL     1       4.655   3.687  17.978  0.00  0.00    +0.000 C 
BRANCH  29  33
ATOM     33  O   UNL     1       6.199   3.699  14.337  0.00  0.00    +0.000 OA
BRANCH  33  34
ATOM     34  C   UNL     1       6.042   4.040  12.940  0.00  0.00    +0.000 C 
ATOM     35  C   UNL     1       7.204   3.489  12.117  0.00  0.00    +0.000 C 
ATOM     36  C   UNL     1       4.725   3.447  12.449  0.00  0.00    +0.000 C 
ENDBRANCH  33  34
ENDBRANCH  29  33
ENDBRANCH  24  25
ENDBRANCH  23  24
ENDBRANCH  20  23
ENDBRANCH   4  19
TORSDOF 8
ENDMDL
MODEL 3
REMARK VINA RESULT:      -7.7      1.060      1.104
REMARK  Name = 
REMARK  11 active torsions:
REMARK  status: ('A' for Active; 'I' for Inactive)
REMARK    1  A    between atoms: C_1  and  C_2
REMARK    2  A    between atoms: C_4  and  C_5
REMARK    3  A    between atoms: C_10  and  C_11
REMARK    4  A    between atoms: C_14  and  N_15
REMARK    5  A    between atoms: C_16  and  C_18
REMARK    6  A    between atoms: C_18  and  O_19
REMARK    7  A    between atoms: O_19  and  C_20
REMARK    8  A    between atoms: C_24  and  O_26
REMARK    9  A    between atoms: O_26  and  C_27
REMARK   10  A    between atoms: C_27  and  C_28
REMARK   11  A    between atoms: C_27  and  C_29
REMARK                            x       y       z     vdW  Elec       q    Type
REMARK                         _______ _______ _______ _____ _____    ______ ____
ROOT
ATOM      1  C   UNL     1      -0.399  10.727  21.041  0.00  0.00    +0.000 A 
ATOM      2  C   UNL     1       0.132   9.950  22.076  0.00  0.00    +0.000 A 
ATOM      3  C   UNL     1       1.030   8.905  21.818  0.00  0.00    +0.000 A 
ATOM      4  C   UNL     1       1.427   8.611  20.517  0.00  0.00    +0.000 A 
ATOM      5  C   UNL     1       0.904   9.384  19.472  0.00  0.00    +0.000 A 
ATOM      6  C   UNL     1      -0.002  10.429  19.730  0.00  0.00    +0.000 A 
ENDROOT
BRANCH   1  14
ATOM      7  C   UNL     1      -4.188  12.254  24.657  0.00  0.00    +0.000 C 
ATOM      8  C   UNL     1      -3.833  13.121  23.493  0.00  0.00    +0.000 A 
ATOM      9  C   UNL     1      -4.469  14.361  23.267  0.00  0.00    +0.000 A 
ATOM     10  C   UNL     1      -4.134  15.184  22.179  0.00  0.00    +0.000 A 
ATOM     11  C   UNL     1      -3.142  14.800  21.266  0.00  0.00    +0.000 A 
ATOM     12  C   UNL     1      -2.502  13.570  21.466  0.00  0.00    +0.000 A 
ATOM     13  N   UNL     1      -1.522  12.953  20.740  0.00  0.00    +0.000 NA
ATOM     14  C   UNL     1      -1.321  11.811  21.380  0.00  0.00    +0.000 A 
ATOM     15  O   UNL     1      -2.101  11.644  22.499  0.00  0.00    +0.000 OA
ATOM     16  C   UNL     1      -2.861  12.783  22.549  0.00  0.00    +0.000 A 
BRANCH  10  17
ATOM     17  C   UNL     1      -4.809  16.439  21.991  0.00  0.00    +0.000 C 
ATOM     18  N   UNL     1      -5.355  17.449  21.838  0.00  0.00    +0.000 NA
ENDBRANCH  10  17
ENDBRANCH   1  14
BRANCH   4  19
ATOM     19  N   UNL     1       2.325   7.563  20.195  0.00  0.00    +0.000 N 
ATOM     20  C   UNL     1       2.074   6.191  20.280  0.00  0.00    +0.000 C 
ATOM     21  O   UNL     1       1.048   5.665  20.696  0.00  0.00    +0.000 OA
ATOM     22  H   UNL     1       3.229   7.851  19.841  0.00  0.00    +0.000 HD
BRANCH  20  23
ATOM     23  C   UNL     1       3.274   5.339  19.808  0.00  0.00    +0.000 C 
BRANCH  23  24
ATOM     24  O   UNL     1       3.634   5.450  18.425  0.00  0.00    +0.000 OA
BRANCH  24  25
ATOM     25  C   UNL     1       4.814   4.694  18.091  0.00  0.00    +0.000 C 
ATOM     26  C   UNL     1       5.913   5.610  17.538  0.00  0.00    +0.000 C 
ATOM     27  C   UNL     1       5.571   6.043  16.122  0.00  0.00    +0.000 C 
ATOM     28  N   UNL     1       5.556   4.860  15.286  0.00  0.00    +0.000 N 
ATOM     29  C   UNL     1       6.601   4.668  14.398  0.00  0.00    +0.000 C 
ATOM     30  O   UNL     1       7.492   5.496  14.229  0.00  0.00    +0.000 OA
ATOM     31  C   UNL     1       4.497   3.911  15.604  0.00  0.00    +0.000 C 
ATOM     32  C   UNL     1       4.486   3.544  17.102  0.00  0.00    +0.000 C 
BRANCH  29  33
ATOM     33  O   UNL     1       6.562   3.476  13.737  0.00  0.00    +0.000 OA
BRANCH  33  34
ATOM     34  C   UNL     1       6.360   3.586  12.309  0.00  0.00    +0.000 C 
ATOM     35  C   UNL     1       7.185   2.539  11.565  0.00  0.00    +0.000 C 
ATOM     36  C   UNL     1       4.876   3.387  12.020  0.00  0.00    +0.000 C 
ENDBRANCH  33  34
ENDBRANCH  29  33
ENDBRANCH  24  25
ENDBRANCH  23  24
ENDBRANCH  20  23
ENDBRANCH   4  19
TORSDOF 8
ENDMDL
MODEL 4
REMARK VINA RESULT:      -7.7      3.153     11.847
REMARK  Name = 
REMARK  11 active torsions:
REMARK  status: ('A' for Active; 'I' for Inactive)
REMARK    1  A    between atoms: C_1  and  C_2
REMARK    2  A    between atoms: C_4  and  C_5
REMARK    3  A    between atoms: C_10  and  C_11
REMARK    4  A    between atoms: C_14  and  N_15
REMARK    5  A    between atoms: C_16  and  C_18
REMARK    6  A    between atoms: C_18  and  O_19
REMARK    7  A    between atoms: O_19  and  C_20
REMARK    8  A    between atoms: C_24  and  O_26
REMARK    9  A    between atoms: O_26  and  C_27
REMARK   10  A    between atoms: C_27  and  C_28
REMARK   11  A    between atoms: C_27  and  C_29
REMARK                            x       y       z     vdW  Elec       q    Type
REMARK                         _______ _______ _______ _____ _____    ______ ____
ROOT
ATOM      1  C   UNL     1       0.593   9.163  20.978  0.00  0.00    +0.000 A 
ATOM      2  C   UNL     1       0.104   8.915  22.265  0.00  0.00    +0.000 A 
ATOM      3  C   UNL     1      -0.644   9.875  22.960  0.00  0.00    +0.000 A 
ATOM      4  C   UNL     1      -0.928  11.111  22.387  0.00  0.00    +0.000 A 
ATOM      5  C   UNL     1      -0.445  11.371  21.097  0.00  0.00    +0.000 A 
ATOM      6  C   UNL     1       0.310  10.409  20.401  0.00  0.00    +0.000 A 
ENDROOT
BRANCH   1  14
ATOM      7  C   UNL     1       2.096   3.934  21.366  0.00  0.00    +0.000 C 
ATOM      8  C   UNL     1       2.547   4.787  20.226  0.00  0.00    +0.000 A 
ATOM      9  C   UNL     1       3.391   4.288  19.210  0.00  0.00    +0.000 A 
ATOM     10  C   UNL     1       3.811   5.084  18.131  0.00  0.00    +0.000 A 
ATOM     11  C   UNL     1       3.403   6.420  18.022  0.00  0.00    +0.000 A 
ATOM     12  C   UNL     1       2.570   6.939  19.022  0.00  0.00    +0.000 A 
ATOM     13  N   UNL     1       2.037   8.189  19.169  0.00  0.00    +0.000 NA
ATOM     14  C   UNL     1       1.354   8.113  20.302  0.00  0.00    +0.000 A 
ATOM     15  O   UNL     1       1.392   6.879  20.904  0.00  0.00    +0.000 OA
ATOM     16  C   UNL     1       2.178   6.125  20.073  0.00  0.00    +0.000 A 
BRANCH  10  17
ATOM     17  C   UNL     1       4.670   4.530  17.121  0.00  0.00    +0.000 C 
ATOM     18  N   UNL     1       5.364   4.082  16.308  0.00  0.00    +0.000 NA
ENDBRANCH  10  17
ENDBRANCH   1  14
BRANCH   4  19
ATOM     19  N   UNL     1      -1.671  12.122  23.044  0.00  0.00    +0.000 N 
ATOM     20  C   UNL     1      -1.254  13.431  23.304  0.00  0.00    +0.000 C 
ATOM     21  O   UNL     1      -0.153  13.906  23.050  0.00  0.00    +0.000 OA
ATOM     22  H   UNL     1      -2.610  11.868  23.324  0.00  0.00    +0.000 HD
BRANCH  20  23
ATOM     23  C   UNL     1      -2.344  14.271  24.006  0.00  0.00    +0.000 C 
BRANCH  23  24
ATOM     24  O   UNL     1      -3.695  13.813  23.867  0.00  0.00    +0.000 OA
BRANCH  24  25
ATOM     25  C   UNL     1      -4.425  14.521  22.846  0.00  0.00    +0.000 C 
ATOM     26  C   UNL     1      -5.913  14.147  22.876  0.00  0.00    +0.000 C 
ATOM     27  C   UNL     1      -6.113  12.753  22.305  0.00  0.00    +0.000 C 
ATOM     28  N   UNL     1      -5.720  12.782  20.911  0.00  0.00    +0.000 N 
ATOM     29  C   UNL     1      -6.712  12.735  19.945  0.00  0.00    +0.000 C 
ATOM     30  O   UNL     1      -7.899  12.585  20.218  0.00  0.00    +0.000 OA
ATOM     31  C   UNL     1      -4.300  13.026  20.691  0.00  0.00    +0.000 C 
ATOM     32  C   UNL     1      -3.810  14.280  21.442  0.00  0.00    +0.000 C 
BRANCH  29  33
ATOM     33  O   UNL     1      -6.257  12.882  18.668  0.00  0.00    +0.000 OA
BRANCH  33  34
ATOM     34  C   UNL     1      -6.364  11.694  17.851  0.00  0.00    +0.000 C 
ATOM     35  C   UNL     1      -5.125  11.530  16.973  0.00  0.00    +0.000 C 
ATOM     36  C   UNL     1      -6.514  10.491  18.776  0.00  0.00    +0.000 C 
ENDBRANCH  33  34
ENDBRANCH  29  33
ENDBRANCH  24  25
ENDBRANCH  23  24
ENDBRANCH  20  23
ENDBRANCH   4  19
TORSDOF 8
ENDMDL
MODEL 5
REMARK VINA RESULT:      -7.6      3.066     12.155
REMARK  Name = 
REMARK  11 active torsions:
REMARK  status: ('A' for Active; 'I' for Inactive)
REMARK    1  A    between atoms: C_1  and  C_2
REMARK    2  A    between atoms: C_4  and  C_5
REMARK    3  A    between atoms: C_10  and  C_11
REMARK    4  A    between atoms: C_14  and  N_15
REMARK    5  A    between atoms: C_16  and  C_18
REMARK    6  A    between atoms: C_18  and  O_19
REMARK    7  A    between atoms: O_19  and  C_20
REMARK    8  A    between atoms: C_24  and  O_26
REMARK    9  A    between atoms: O_26  and  C_27
REMARK   10  A    between atoms: C_27  and  C_28
REMARK   11  A    between atoms: C_27  and  C_29
REMARK                            x       y       z     vdW  Elec       q    Type
REMARK                         _______ _______ _______ _____ _____    ______ ____
ROOT
ATOM      1  C   UNL     1       0.979   9.342  20.557  0.00  0.00    +0.000 A 
ATOM      2  C   UNL     1       0.566  10.409  19.752  0.00  0.00    +0.000 A 
ATOM      3  C   UNL     1      -0.072  11.531  20.298  0.00  0.00    +0.000 A 
ATOM      4  C   UNL     1      -0.312  11.621  21.666  0.00  0.00    +0.000 A 
ATOM      5  C   UNL     1       0.098  10.559  22.483  0.00  0.00    +0.000 A 
ATOM      6  C   UNL     1       0.734   9.430  21.935  0.00  0.00    +0.000 A 
ENDROOT
BRANCH   1  14
ATOM      7  C   UNL     1       2.144   4.053  21.214  0.00  0.00    +0.000 C 
ATOM      8  C   UNL     1       2.620   4.809  20.016  0.00  0.00    +0.000 A 
ATOM      9  C   UNL     1       3.403   4.197  19.012  0.00  0.00    +0.000 A 
ATOM     10  C   UNL     1       3.846   4.901  17.879  0.00  0.00    +0.000 A 
ATOM     11  C   UNL     1       3.523   6.253  17.702  0.00  0.00    +0.000 A 
ATOM     12  C   UNL     1       2.753   6.883  18.689  0.00  0.00    +0.000 A 
ATOM     13  N   UNL     1       2.308   8.172  18.776  0.00  0.00    +0.000 NA
ATOM     14  C   UNL     1       1.652   8.206  19.926  0.00  0.00    +0.000 A 
ATOM     15  O   UNL     1       1.624   7.008  20.598  0.00  0.00    +0.000 OA
ATOM     16  C   UNL     1       2.337   6.158  19.795  0.00  0.00    +0.000 A 
BRANCH  10  17
ATOM     17  C   UNL     1       4.639   4.234  16.884  0.00  0.00    +0.000 C 
ATOM     18  N   UNL     1       5.277   3.695  16.082  0.00  0.00    +0.000 NA
ENDBRANCH  10  17
ENDBRANCH   1  14
BRANCH   4  19
ATOM     19  N   UNL     1      -0.959  12.725  22.272  0.00  0.00    +0.000 N 
ATOM     20  C   UNL     1      -0.388  13.963  22.580  0.00  0.00    +0.000 C 
ATOM     21  O   UNL     1       0.786  14.281  22.421  0.00  0.00    +0.000 OA
ATOM     22  H   UNL     1      -1.945  12.604  22.472  0.00  0.00    +0.000 HD
BRANCH  20  23
ATOM     23  C   UNL     1      -1.405  14.947  23.200  0.00  0.00    +0.000 C 
BRANCH  23  24
ATOM     24  O   UNL     1      -2.400  14.381  24.063  0.00  0.00    +0.000 OA
BRANCH  24  25
ATOM     25  C   UNL     1      -3.735  14.812  23.737  0.00  0.00    +0.000 C 
ATOM     26  C   UNL     1      -4.772  13.776  24.189  0.00  0.00    +0.000 C 
ATOM     27  C   UNL     1      -4.743  12.570  23.266  0.00  0.00    +0.000 C 
ATOM     28  N   UNL     1      -5.146  13.010  21.945  0.00  0.00    +0.000 N 
ATOM     29  C   UNL     1      -6.403  12.656  21.486  0.00  0.00    +0.000 C 
ATOM     30  O   UNL     1      -7.155  11.916  22.113  0.00  0.00    +0.000 OA
ATOM     31  C   UNL     1      -4.213  13.934  21.309  0.00  0.00    +0.000 C 
ATOM     32  C   UNL     1      -3.874  15.127  22.224  0.00  0.00    +0.000 C 
BRANCH  29  33
ATOM     33  O   UNL     1      -6.737  13.209  20.285  0.00  0.00    +0.000 OA
BRANCH  33  34
ATOM     34  C   UNL     1      -7.254  12.270  19.314  0.00  0.00    +0.000 C 
ATOM     35  C   UNL     1      -7.728  12.999  18.059  0.00  0.00    +0.000 C 
ATOM     36  C   UNL     1      -6.142  11.287  18.962  0.00  0.00    +0.000 C 
ENDBRANCH  33  34
ENDBRANCH  29  33
ENDBRANCH  24  25
ENDBRANCH  23  24
ENDBRANCH  20  23
ENDBRANCH   4  19
TORSDOF 8
ENDMDL
MODEL 6
REMARK VINA RESULT:      -7.5      3.253     12.180
REMARK  Name = 
REMARK  11 active torsions:
REMARK  status: ('A' for Active; 'I' for Inactive)
REMARK    1  A    between atoms: C_1  and  C_2
REMARK    2  A    between atoms: C_4  and  C_5
REMARK    3  A    between atoms: C_10  and  C_11
REMARK    4  A    between atoms: C_14  and  N_15
REMARK    5  A    between atoms: C_16  and  C_18
REMARK    6  A    between atoms: C_18  and  O_19
REMARK    7  A    between atoms: O_19  and  C_20
REMARK    8  A    between atoms: C_24  and  O_26
REMARK    9  A    between atoms: O_26  and  C_27
REMARK   10  A    between atoms: C_27  and  C_28
REMARK   11  A    between atoms: C_27  and  C_29
REMARK                            x       y       z     vdW  Elec       q    Type
REMARK                         _______ _______ _______ _____ _____    ______ ____
ROOT
ATOM      1  C   UNL     1       0.603   9.277  21.152  0.00  0.00    +0.000 A 
ATOM      2  C   UNL     1       0.381  10.510  20.529  0.00  0.00    +0.000 A 
ATOM      3  C   UNL     1      -0.285  11.552  21.187  0.00  0.00    +0.000 A 
ATOM      4  C   UNL     1      -0.746  11.393  22.491  0.00  0.00    +0.000 A 
ATOM      5  C   UNL     1      -0.529  10.163  23.127  0.00  0.00    +0.000 A 
ATOM      6  C   UNL     1       0.136   9.115  22.464  0.00  0.00    +0.000 A 
ENDROOT
BRANCH   1  14
ATOM      7  C   UNL     1       1.987   4.003  21.295  0.00  0.00    +0.000 C 
ATOM      8  C   UNL     1       2.424   4.889  20.174  0.00  0.00    +0.000 A 
ATOM      9  C   UNL     1       3.223   4.408  19.114  0.00  0.00    +0.000 A 
ATOM     10  C   UNL     1       3.630   5.235  18.052  0.00  0.00    +0.000 A 
ATOM     11  C   UNL     1       3.251   6.583  18.006  0.00  0.00    +0.000 A 
ATOM     12  C   UNL     1       2.463   7.084  19.052  0.00  0.00    +0.000 A 
ATOM     13  N   UNL     1       1.966   8.339  19.263  0.00  0.00    +0.000 NA
ATOM     14  C   UNL     1       1.317   8.236  20.413  0.00  0.00    +0.000 A 
ATOM     15  O   UNL     1       1.342   6.979  20.966  0.00  0.00    +0.000 OA
ATOM     16  C   UNL     1       2.084   6.240  20.084  0.00  0.00    +0.000 A 
BRANCH  10  17
ATOM     17  C   UNL     1       4.443   4.700  16.995  0.00  0.00    +0.000 C 
ATOM     18  N   UNL     1       5.100   4.271  16.143  0.00  0.00    +0.000 NA
ENDBRANCH  10  17
ENDBRANCH   1  14
BRANCH   4  19
ATOM     19  N   UNL     1      -1.432  12.407  23.204  0.00  0.00    +0.000 N 
ATOM     20  C   UNL     1      -2.806  12.665  23.176  0.00  0.00    +0.000 C 
ATOM     21  O   UNL     1      -3.640  12.086  22.488  0.00  0.00    +0.000 OA
ATOM     22  H   UNL     1      -0.863  12.978  23.816  0.00  0.00    +0.000 HD
BRANCH  20  23
ATOM     23  C   UNL     1      -3.209  13.826  24.112  0.00  0.00    +0.000 C 
BRANCH  23  24
ATOM     24  O   UNL     1      -4.264  14.682  23.654  0.00  0.00    +0.000 OA
BRANCH  24  25
ATOM     25  C   UNL     1      -3.825  16.033  23.411  0.00  0.00    +0.000 C 
ATOM     26  C   UNL     1      -4.741  16.734  22.400  0.00  0.00    +0.000 C 
ATOM     27  C   UNL     1      -4.476  16.205  21.000  0.00  0.00    +0.000 C 
ATOM     28  N   UNL     1      -3.117  16.556  20.641  0.00  0.00    +0.000 N 
ATOM     29  C   UNL     1      -2.919  17.565  19.714  0.00  0.00    +0.000 C 
ATOM     30  O   UNL     1      -3.843  18.116  19.124  0.00  0.00    +0.000 OA
ATOM     31  C   UNL     1      -2.094  15.893  21.441  0.00  0.00    +0.000 C 
ATOM     32  C   UNL     1      -2.343  16.071  22.953  0.00  0.00    +0.000 C 
BRANCH  29  33
ATOM     33  O   UNL     1      -1.611  17.903  19.525  0.00  0.00    +0.000 OA
BRANCH  33  34
ATOM     34  C   UNL     1      -1.057  17.474  18.260  0.00  0.00    +0.000 C 
ATOM     35  C   UNL     1      -0.321  18.623  17.576  0.00  0.00    +0.000 C 
ATOM     36  C   UNL     1      -0.096  16.320  18.527  0.00  0.00    +0.000 C 
ENDBRANCH  33  34
ENDBRANCH  29  33
ENDBRANCH  24  25
ENDBRANCH  23  24
ENDBRANCH  20  23
ENDBRANCH   4  19
TORSDOF 8
ENDMDL
MODEL 7
REMARK VINA RESULT:      -7.5      0.810      1.127
REMARK  Name = 
REMARK  11 active torsions:
REMARK  status: ('A' for Active; 'I' for Inactive)
REMARK    1  A    between atoms: C_1  and  C_2
REMARK    2  A    between atoms: C_4  and  C_5
REMARK    3  A    between atoms: C_10  and  C_11
REMARK    4  A    between atoms: C_14  and  N_15
REMARK    5  A    between atoms: C_16  and  C_18
REMARK    6  A    between atoms: C_18  and  O_19
REMARK    7  A    between atoms: O_19  and  C_20
REMARK    8  A    between atoms: C_24  and  O_26
REMARK    9  A    between atoms: O_26  and  C_27
REMARK   10  A    between atoms: C_27  and  C_28
REMARK   11  A    between atoms: C_27  and  C_29
REMARK                            x       y       z     vdW  Elec       q    Type
REMARK                         _______ _______ _______ _____ _____    ______ ____
ROOT
ATOM      1  C   UNL     1      -0.281  10.611  21.063  0.00  0.00    +0.000 A 
ATOM      2  C   UNL     1      -0.090  10.133  19.763  0.00  0.00    +0.000 A 
ATOM      3  C   UNL     1       0.712   9.012  19.507  0.00  0.00    +0.000 A 
ATOM      4  C   UNL     1       1.343   8.334  20.546  0.00  0.00    +0.000 A 
ATOM      5  C   UNL     1       1.158   8.803  21.854  0.00  0.00    +0.000 A 
ATOM      6  C   UNL     1       0.357   9.931  22.110  0.00  0.00    +0.000 A 
ENDROOT
BRANCH   1  14
ATOM      7  C   UNL     1      -1.318  14.726  24.491  0.00  0.00    +0.000 C 
ATOM      8  C   UNL     1      -2.118  14.536  23.243  0.00  0.00    +0.000 A 
ATOM      9  C   UNL     1      -3.183  15.399  22.903  0.00  0.00    +0.000 A 
ATOM     10  C   UNL     1      -3.933  15.230  21.727  0.00  0.00    +0.000 A 
ATOM     11  C   UNL     1      -3.647  14.186  20.836  0.00  0.00    +0.000 A 
ATOM     12  C   UNL     1      -2.598  13.314  21.156  0.00  0.00    +0.000 A 
ATOM     13  N   UNL     1      -2.116  12.225  20.486  0.00  0.00    +0.000 NA
ATOM     14  C   UNL     1      -1.141  11.778  21.262  0.00  0.00    +0.000 A 
ATOM     15  O   UNL     1      -0.939  12.519  22.401  0.00  0.00    +0.000 OA
ATOM     16  C   UNL     1      -1.882  13.509  22.327  0.00  0.00    +0.000 A 
BRANCH  10  17
ATOM     17  C   UNL     1      -5.007  16.134  21.423  0.00  0.00    +0.000 C 
ATOM     18  N   UNL     1      -5.876  16.861  21.178  0.00  0.00    +0.000 NA
ENDBRANCH  10  17
ENDBRANCH   1  14
BRANCH   4  19
ATOM     19  N   UNL     1       2.171   7.202  20.348  0.00  0.00    +0.000 N 
ATOM     20  C   UNL     1       2.843   6.853  19.173  0.00  0.00    +0.000 C 
ATOM     21  O   UNL     1       2.786   7.445  18.101  0.00  0.00    +0.000 OA
ATOM     22  H   UNL     1       2.305   6.607  21.156  0.00  0.00    +0.000 HD
BRANCH  20  23
ATOM     23  C   UNL     1       3.688   5.569  19.333  0.00  0.00    +0.000 C 
BRANCH  23  24
ATOM     24  O   UNL     1       5.110   5.741  19.388  0.00  0.00    +0.000 OA
BRANCH  24  25
ATOM     25  C   UNL     1       5.829   4.689  18.716  0.00  0.00    +0.000 C 
ATOM     26  C   UNL     1       7.057   5.245  17.984  0.00  0.00    +0.000 C 
ATOM     27  C   UNL     1       6.627   5.994  16.735  0.00  0.00    +0.000 C 
ATOM     28  N   UNL     1       6.005   5.043  15.836  0.00  0.00    +0.000 N 
ATOM     29  C   UNL     1       6.702   4.648  14.707  0.00  0.00    +0.000 C 
ATOM     30  O   UNL     1       7.785   5.132  14.391  0.00  0.00    +0.000 OA
ATOM     31  C   UNL     1       4.753   4.481  16.329  0.00  0.00    +0.000 C 
ATOM     32  C   UNL     1       4.904   3.902  17.751  0.00  0.00    +0.000 C 
BRANCH  29  33
ATOM     33  O   UNL     1       6.088   3.668  13.984  0.00  0.00    +0.000 OA
BRANCH  33  34
ATOM     34  C   UNL     1       6.052   3.906  12.558  0.00  0.00    +0.000 C 
ATOM     35  C   UNL     1       7.115   3.074  11.846  0.00  0.00    +0.000 C 
ATOM     36  C   UNL     1       4.665   3.534  12.047  0.00  0.00    +0.000 C 
ENDBRANCH  33  34
ENDBRANCH  29  33
ENDBRANCH  24  25
ENDBRANCH  23  24
ENDBRANCH  20  23
ENDBRANCH   4  19
TORSDOF 8
ENDMDL
MODEL 8
REMARK VINA RESULT:      -7.5      2.600     11.922
REMARK  Name = 
REMARK  11 active torsions:
REMARK  status: ('A' for Active; 'I' for Inactive)
REMARK    1  A    between atoms: C_1  and  C_2
REMARK    2  A    between atoms: C_4  and  C_5
REMARK    3  A    between atoms: C_10  and  C_11
REMARK    4  A    between atoms: C_14  and  N_15
REMARK    5  A    between atoms: C_16  and  C_18
REMARK    6  A    between atoms: C_18  and  O_19
REMARK    7  A    between atoms: O_19  and  C_20
REMARK    8  A    between atoms: C_24  and  O_26
REMARK    9  A    between atoms: O_26  and  C_27
REMARK   10  A    between atoms: C_27  and  C_28
REMARK   11  A    between atoms: C_27  and  C_29
REMARK                            x       y       z     vdW  Elec       q    Type
REMARK                         _______ _______ _______ _____ _____    ______ ____
ROOT
ATOM      1  C   UNL     1       1.997   8.078  19.093  0.00  0.00    +0.000 A 
ATOM      2  C   UNL     1       1.473   9.275  18.592  0.00  0.00    +0.000 A 
ATOM      3  C   UNL     1       0.610  10.071  19.357  0.00  0.00    +0.000 A 
ATOM      4  C   UNL     1       0.248   9.695  20.648  0.00  0.00    +0.000 A 
ATOM      5  C   UNL     1       0.769   8.500  21.162  0.00  0.00    +0.000 A 
ATOM      6  C   UNL     1       1.631   7.698  20.392  0.00  0.00    +0.000 A 
ENDROOT
BRANCH   1  14
ATOM      7  C   UNL     1       3.424   2.983  17.766  0.00  0.00    +0.000 C 
ATOM      8  C   UNL     1       4.114   4.163  17.164  0.00  0.00    +0.000 A 
ATOM      9  C   UNL     1       5.173   4.016  16.241  0.00  0.00    +0.000 A 
ATOM     10  C   UNL     1       5.820   5.122  15.665  0.00  0.00    +0.000 A 
ATOM     11  C   UNL     1       5.434   6.429  15.989  0.00  0.00    +0.000 A 
ATOM     12  C   UNL     1       4.390   6.600  16.909  0.00  0.00    +0.000 A 
ATOM     13  N   UNL     1       3.825   7.741  17.404  0.00  0.00    +0.000 NA
ATOM     14  C   UNL     1       2.903   7.301  18.247  0.00  0.00    +0.000 A 
ATOM     15  O   UNL     1       2.815   5.933  18.325  0.00  0.00    +0.000 OA
ATOM     16  C   UNL     1       3.777   5.486  17.459  0.00  0.00    +0.000 A 
BRANCH  10  17
ATOM     17  C   UNL     1       6.892   4.921  14.729  0.00  0.00    +0.000 C 
ATOM     18  N   UNL     1       7.756   4.762  13.975  0.00  0.00    +0.000 NA
ENDBRANCH  10  17
ENDBRANCH   1  14
BRANCH   4  19
ATOM     19  N   UNL     1      -0.625  10.455  21.465  0.00  0.00    +0.000 N 
ATOM     20  C   UNL     1      -0.604  10.539  22.860  0.00  0.00    +0.000 C 
ATOM     21  O   UNL     1       0.146   9.928  23.613  0.00  0.00    +0.000 OA
ATOM     22  H   UNL     1      -1.313  11.014  20.974  0.00  0.00    +0.000 HD
BRANCH  20  23
ATOM     23  C   UNL     1      -1.683  11.497  23.412  0.00  0.00    +0.000 C 
BRANCH  23  24
ATOM     24  O   UNL     1      -2.616  12.028  22.461  0.00  0.00    +0.000 OA
BRANCH  24  25
ATOM     25  C   UNL     1      -2.616  13.468  22.419  0.00  0.00    +0.000 C 
ATOM     26  C   UNL     1      -2.804  13.974  20.983  0.00  0.00    +0.000 C 
ATOM     27  C   UNL     1      -1.527  13.772  20.185  0.00  0.00    +0.000 C 
ATOM     28  N   UNL     1      -0.494  14.594  20.783  0.00  0.00    +0.000 N 
ATOM     29  C   UNL     1      -0.092  15.738  20.114  0.00  0.00    +0.000 C 
ATOM     30  O   UNL     1      -0.511  16.039  19.001  0.00  0.00    +0.000 OA
ATOM     31  C   UNL     1      -0.107  14.189  22.129  0.00  0.00    +0.000 C 
ATOM     32  C   UNL     1      -1.330  14.052  23.060  0.00  0.00    +0.000 C 
BRANCH  29  33
ATOM     33  O   UNL     1       0.800  16.505  20.805  0.00  0.00    +0.000 OA
BRANCH  33  34
ATOM     34  C   UNL     1       0.523  17.925  20.772  0.00  0.00    +0.000 C 
ATOM     35  C   UNL     1       0.263  18.456  22.179  0.00  0.00    +0.000 C 
ATOM     36  C   UNL     1       1.727  18.631  20.159  0.00  0.00    +0.000 C 
ENDBRANCH  33  34
ENDBRANCH  29  33
ENDBRANCH  24  25
ENDBRANCH  23  24
ENDBRANCH  20  23
ENDBRANCH   4  19
TORSDOF 8
ENDMDL
MODEL 9
REMARK VINA RESULT:      -7.5      1.467      1.619
REMARK  Name = 
REMARK  11 active torsions:
REMARK  status: ('A' for Active; 'I' for Inactive)
REMARK    1  A    between atoms: C_1  and  C_2
REMARK    2  A    between atoms: C_4  and  C_5
REMARK    3  A    between atoms: C_10  and  C_11
REMARK    4  A    between atoms: C_14  and  N_15
REMARK    5  A    between atoms: C_16  and  C_18
REMARK    6  A    between atoms: C_18  and  O_19
REMARK    7  A    between atoms: O_19  and  C_20
REMARK    8  A    between atoms: C_24  and  O_26
REMARK    9  A    between atoms: O_26  and  C_27
REMARK   10  A    between atoms: C_27  and  C_28
REMARK   11  A    between atoms: C_27  and  C_29
REMARK                            x       y       z     vdW  Elec       q    Type
REMARK                         _______ _______ _______ _____ _____    ______ ____
ROOT
ATOM      1  C   UNL     1       0.497  10.283  20.143  0.00  0.00    +0.000 A 
ATOM      2  C   UNL     1       0.760   9.511  21.280  0.00  0.00    +0.000 A 
ATOM      3  C   UNL     1       1.491   8.319  21.200  0.00  0.00    +0.000 A 
ATOM      4  C   UNL     1       1.986   7.865  19.979  0.00  0.00    +0.000 A 
ATOM      5  C   UNL     1       1.731   8.631  18.834  0.00  0.00    +0.000 A 
ATOM      6  C   UNL     1       0.992   9.826  18.914  0.00  0.00    +0.000 A 
ENDROOT
BRANCH   1  14
ATOM      7  C   UNL     1       0.579  15.613  18.981  0.00  0.00    +0.000 C 
ATOM      8  C   UNL     1      -0.542  15.006  19.761  0.00  0.00    +0.000 A 
ATOM      9  C   UNL     1      -1.619  15.783  20.243  0.00  0.00    +0.000 A 
ATOM     10  C   UNL     1      -2.680  15.216  20.969  0.00  0.00    +0.000 A 
ATOM     11  C   UNL     1      -2.710  13.842  21.244  0.00  0.00    +0.000 A 
ATOM     12  C   UNL     1      -1.649  13.053  20.781  0.00  0.00    +0.000 A 
ATOM     13  N   UNL     1      -1.420  11.712  20.910  0.00  0.00    +0.000 NA
ATOM     14  C   UNL     1      -0.261  11.525  20.298  0.00  0.00    +0.000 A 
ATOM     15  O   UNL     1       0.283  12.664  19.756  0.00  0.00    +0.000 OA
ATOM     16  C   UNL     1      -0.617  13.647  20.071  0.00  0.00    +0.000 A 
BRANCH  10  17
ATOM     17  C   UNL     1      -3.754  16.047  21.439  0.00  0.00    +0.000 C 
ATOM     18  N   UNL     1      -4.622  16.716  21.815  0.00  0.00    +0.000 NA
ENDBRANCH  10  17
ENDBRANCH   1  14
BRANCH   4  19
ATOM     19  N   UNL     1       2.724   6.665  19.836  0.00  0.00    +0.000 N 
ATOM     20  C   UNL     1       2.303   5.378  20.184  0.00  0.00    +0.000 C 
ATOM     21  O   UNL     1       1.240   5.081  20.718  0.00  0.00    +0.000 OA
ATOM     22  H   UNL     1       3.638   6.757  19.410  0.00  0.00    +0.000 HD
BRANCH  20  23
ATOM     23  C   UNL     1       3.357   4.299  19.849  0.00  0.00    +0.000 C 
BRANCH  23  24
ATOM     24  O   UNL     1       4.665   4.769  19.496  0.00  0.00    +0.000 OA
BRANCH  24  25
ATOM     25  C   UNL     1       5.355   3.883  18.594  0.00  0.00    +0.000 C 
ATOM     26  C   UNL     1       6.498   4.613  17.876  0.00  0.00    +0.000 C 
ATOM     27  C   UNL     1       5.937   5.546  16.816  0.00  0.00    +0.000 C 
ATOM     28  N   UNL     1       5.269   4.736  15.817  0.00  0.00    +0.000 N 
ATOM     29  C   UNL     1       5.878   4.574  14.584  0.00  0.00    +0.000 C 
ATOM     30  O   UNL     1       6.914   5.155  14.272  0.00  0.00    +0.000 OA
ATOM     31  C   UNL     1       4.083   4.040  16.302  0.00  0.00    +0.000 C 
ATOM     32  C   UNL     1       4.376   3.232  17.583  0.00  0.00    +0.000 C 
BRANCH  29  33
ATOM     33  O   UNL     1       5.235   3.706  13.752  0.00  0.00    +0.000 OA
BRANCH  33  34
ATOM     34  C   UNL     1       5.568   3.856  12.352  0.00  0.00    +0.000 C 
ATOM     35  C   UNL     1       6.783   3.005  11.993  0.00  0.00    +0.000 C 
ATOM     36  C   UNL     1       4.362   3.424  11.526  0.00  0.00    +0.000 C 
ENDBRANCH  33  34
ENDBRANCH  29  33
ENDBRANCH  24  25
ENDBRANCH  23  24
ENDBRANCH  20  23
ENDBRANCH   4  19
TORSDOF 8
ENDMDL
