MODEL 1
REMARK VINA RESULT:      -7.9      0.000      0.000
REMARK  Name = 
REMARK  12 active torsions:
REMARK  status: ('A' for Active; 'I' for Inactive)
REMARK    1  A    between atoms: C_1  and  O_2
REMARK    2  A    between atoms: O_2  and  C_3
REMARK    3  A    between atoms: C_6  and  C_7
REMARK    4  A    between atoms: C_12  and  C_13
REMARK    5  A    between atoms: C_13  and  C_14
REMARK    6  A    between atoms: C_14  and  N_15
REMARK    7  A    between atoms: N_15  and  S_16
REMARK    8  A    between atoms: S_16  and  C_19
REMARK    9  A    between atoms: C_20  and  C_21
REMARK   10  A    between atoms: C_24  and  C_25
REMARK   11  A    between atoms: C_29  and  O_30
REMARK   12  A    between atoms: O_30  and  C_31
REMARK                            x       y       z     vdW  Elec       q    Type
REMARK                         _______ _______ _______ _____ _____    ______ ____
ROOT
ATOM      1  C   UNL     1       4.002   4.139  17.360  0.00  0.00    +0.000 A 
ATOM      2  N   UNL     1       3.171   3.057  17.137  0.00  0.00    +0.000 NA
ATOM      3  C   UNL     1       2.353   3.137  18.139  0.00  0.00    +0.000 A 
ATOM      4  S   UNL     1       0.970   2.231  18.639  0.00  0.00    +0.000 S 
ATOM      5  C   UNL     1       0.785   3.350  19.984  0.00  0.00    +0.000 A 
ATOM      6  C   UNL     1       1.725   4.322  20.030  0.00  0.00    +0.000 A 
ATOM      7  N   UNL     1       2.623   4.198  18.964  0.00  0.00    +0.000 N 
ATOM      8  N   UNL     1       3.699   4.857  18.470  0.00  0.00    +0.000 NA
ENDROOT
BRANCH   1  12
ATOM      9  C   UNL     1       7.173   5.140  14.631  0.00  0.00    +0.000 A 
ATOM     10  C   UNL     1       6.338   4.044  14.374  0.00  0.00    +0.000 A 
ATOM     11  C   UNL     1       5.355   3.658  15.296  0.00  0.00    +0.000 A 
ATOM     12  C   UNL     1       5.133   4.398  16.458  0.00  0.00    +0.000 A 
ATOM     13  C   UNL     1       6.029   5.440  16.742  0.00  0.00    +0.000 A 
ATOM     14  C   UNL     1       7.074   5.789  15.867  0.00  0.00    +0.000 A 
BRANCH   9  16
ATOM     15  C   UNL     1       7.802   5.262  12.352  0.00  0.00    +0.000 C 
ATOM     16  O   UNL     1       8.104   5.553  13.717  0.00  0.00    +0.000 OA
ENDBRANCH   9  16
BRANCH  14  17
ATOM     17  O   UNL     1       7.861   6.795  16.364  0.00  0.00    +0.000 OA
ATOM     18  C   UNL     1       7.456   7.437  17.565  0.00  0.00    +0.000 C 
ENDBRANCH  14  17
ENDBRANCH   1  12
BRANCH   6  19
ATOM     19  C   UNL     1       1.694   5.417  21.057  0.00  0.00    +0.000 C 
BRANCH  19  20
ATOM     20  C   UNL     1       0.818   6.655  20.834  0.00  0.00    +0.000 C 
BRANCH  20  21
ATOM     21  N   UNL     1       1.584   7.887  21.040  0.00  0.00    +0.000 NA
ATOM     22  H   UNL     1       2.076   8.240  20.216  0.00  0.00    +0.000 HD
BRANCH  21  23
ATOM     23  S   UNL     1       0.803   9.166  21.809  0.00  0.00    +0.000 S 
ATOM     24  O   UNL     1      -0.530   8.726  22.135  0.00  0.00    +0.000 OA
ATOM     25  O   UNL     1       1.707   9.659  22.822  0.00  0.00    +0.000 OA
BRANCH  23  26
ATOM     26  C   UNL     1       0.602  10.451  20.706  0.00  0.00    +0.000 A 
ATOM     27  C   UNL     1       0.034  11.718  20.948  0.00  0.00    +0.000 A 
ATOM     28  C   UNL     1      -0.522  12.279  22.189  0.00  0.00    +0.000 C 
ATOM     29  N   UNL     1       0.023  12.467  19.835  0.00  0.00    +0.000 NA
ATOM     30  O   UNL     1       0.591  11.682  18.848  0.00  0.00    +0.000 OA
ATOM     31  C   UNL     1       0.933  10.475  19.372  0.00  0.00    +0.000 A 
ATOM     32  C   UNL     1       1.536   9.513  18.436  0.00  0.00    +0.000 C 
ENDBRANCH  23  26
ENDBRANCH  21  23
ENDBRANCH  20  21
ENDBRANCH  19  20
ENDBRANCH   6  19
TORSDOF 8
ENDMDL
MODEL 2
REMARK VINA RESULT:      -7.8      0.720      1.538
REMARK  Name = 
REMARK  12 active torsions:
REMARK  status: ('A' for Active; 'I' for Inactive)
REMARK    1  A    between atoms: C_1  and  O_2
REMARK    2  A    between atoms: O_2  and  C_3
REMARK    3  A    between atoms: C_6  and  C_7
REMARK    4  A    between atoms: C_12  and  C_13
REMARK    5  A    between atoms: C_13  and  C_14
REMARK    6  A    between atoms: C_14  and  N_15
REMARK    7  A    between atoms: N_15  and  S_16
REMARK    8  A    between atoms: S_16  and  C_19
REMARK    9  A    between atoms: C_20  and  C_21
REMARK   10  A    between atoms: C_24  and  C_25
REMARK   11  A    between atoms: C_29  and  O_30
REMARK   12  A    between atoms: O_30  and  C_31
REMARK                            x       y       z     vdW  Elec       q    Type
REMARK                         _______ _______ _______ _____ _____    ______ ____
ROOT
ATOM      1  C   UNL     1       3.945   4.223  17.500  0.00  0.00    +0.000 A 
ATOM      2  N   UNL     1       3.266   3.019  17.485  0.00  0.00    +0.000 NA
ATOM      3  C   UNL     1       2.407   3.185  18.443  0.00  0.00    +0.000 A 
ATOM      4  S   UNL     1       1.133   2.220  19.096  0.00  0.00    +0.000 S 
ATOM      5  C   UNL     1       0.759   3.545  20.192  0.00  0.00    +0.000 A 
ATOM      6  C   UNL     1       1.567   4.621  20.057  0.00  0.00    +0.000 A 
ATOM      7  N   UNL     1       2.512   4.411  19.045  0.00  0.00    +0.000 N 
ATOM      8  N   UNL     1       3.514   5.097  18.444  0.00  0.00    +0.000 NA
ENDROOT
BRANCH   1  12
ATOM      9  C   UNL     1       7.089   5.121  14.705  0.00  0.00    +0.000 A 
ATOM     10  C   UNL     1       6.242   4.027  14.488  0.00  0.00    +0.000 A 
ATOM     11  C   UNL     1       5.268   3.674  15.433  0.00  0.00    +0.000 A 
ATOM     12  C   UNL     1       5.067   4.447  16.578  0.00  0.00    +0.000 A 
ATOM     13  C   UNL     1       5.975   5.489  16.822  0.00  0.00    +0.000 A 
ATOM     14  C   UNL     1       7.011   5.805  15.924  0.00  0.00    +0.000 A 
BRANCH   9  16
ATOM     15  C   UNL     1       7.708   5.142  12.421  0.00  0.00    +0.000 C 
ATOM     16  O   UNL     1       8.012   5.501  13.768  0.00  0.00    +0.000 OA
ENDBRANCH   9  16
BRANCH  14  17
ATOM     17  O   UNL     1       7.813   6.817  16.384  0.00  0.00    +0.000 OA
ATOM     18  C   UNL     1       7.450   7.469  17.593  0.00  0.00    +0.000 C 
ENDBRANCH  14  17
ENDBRANCH   1  12
BRANCH   6  19
ATOM     19  C   UNL     1       1.362   5.882  20.848  0.00  0.00    +0.000 C 
BRANCH  19  20
ATOM     20  C   UNL     1       2.199   7.128  20.536  0.00  0.00    +0.000 C 
BRANCH  20  21
ATOM     21  N   UNL     1       1.341   8.270  20.208  0.00  0.00    +0.000 NA
ATOM     22  H   UNL     1       0.627   8.092  19.499  0.00  0.00    +0.000 HD
BRANCH  21  23
ATOM     23  S   UNL     1       0.650   9.115  21.491  0.00  0.00    +0.000 S 
ATOM     24  O   UNL     1      -0.593   8.462  21.818  0.00  0.00    +0.000 OA
ATOM     25  O   UNL     1       1.690   9.303  22.475  0.00  0.00    +0.000 OA
BRANCH  23  26
ATOM     26  C   UNL     1       0.219  10.680  20.969  0.00  0.00    +0.000 A 
ATOM     27  C   UNL     1       0.574  11.317  19.762  0.00  0.00    +0.000 A 
ATOM     28  C   UNL     1       1.385  10.823  18.640  0.00  0.00    +0.000 C 
ATOM     29  N   UNL     1       0.070  12.559  19.702  0.00  0.00    +0.000 NA
ATOM     30  O   UNL     1      -0.624  12.741  20.884  0.00  0.00    +0.000 OA
ATOM     31  C   UNL     1      -0.530  11.615  21.641  0.00  0.00    +0.000 A 
ATOM     32  C   UNL     1      -1.206  11.658  22.947  0.00  0.00    +0.000 C 
ENDBRANCH  23  26
ENDBRANCH  21  23
ENDBRANCH  20  21
ENDBRANCH  19  20
ENDBRANCH   6  19
TORSDOF 8
ENDMDL
MODEL 3
REMARK VINA RESULT:      -7.7      2.448      7.782
REMARK  Name = 
REMARK  12 active torsions:
REMARK  status: ('A' for Active; 'I' for Inactive)
REMARK    1  A    between atoms: C_1  and  O_2
REMARK    2  A    between atoms: O_2  and  C_3
REMARK    3  A    between atoms: C_6  and  C_7
REMARK    4  A    between atoms: C_12  and  C_13
REMARK    5  A    between atoms: C_13  and  C_14
REMARK    6  A    between atoms: C_14  and  N_15
REMARK    7  A    between atoms: N_15  and  S_16
REMARK    8  A    between atoms: S_16  and  C_19
REMARK    9  A    between atoms: C_20  and  C_21
REMARK   10  A    between atoms: C_24  and  C_25
REMARK   11  A    between atoms: C_29  and  O_30
REMARK   12  A    between atoms: O_30  and  C_31
REMARK                            x       y       z     vdW  Elec       q    Type
REMARK                         _______ _______ _______ _____ _____    ______ ____
ROOT
ATOM      1  C   UNL     1       1.713   6.506  20.118  0.00  0.00    +0.000 A 
ATOM      2  N   UNL     1       1.598   5.747  21.268  0.00  0.00    +0.000 NA
ATOM      3  C   UNL     1       1.800   4.549  20.818  0.00  0.00    +0.000 A 
ATOM      4  S   UNL     1       1.885   2.987  21.550  0.00  0.00    +0.000 S 
ATOM      5  C   UNL     1       2.253   2.318  19.965  0.00  0.00    +0.000 A 
ATOM      6  C   UNL     1       2.289   3.235  18.971  0.00  0.00    +0.000 A 
ATOM      7  N   UNL     1       2.032   4.518  19.468  0.00  0.00    +0.000 N 
ATOM      8  N   UNL     1       1.974   5.788  18.997  0.00  0.00    +0.000 NA
ENDROOT
BRANCH   1  12
ATOM      9  C   UNL     1       0.806  10.708  20.294  0.00  0.00    +0.000 A 
ATOM     10  C   UNL     1       1.256  10.131  19.099  0.00  0.00    +0.000 A 
ATOM     11  C   UNL     1       1.634   8.782  19.050  0.00  0.00    +0.000 A 
ATOM     12  C   UNL     1       1.502   7.960  20.170  0.00  0.00    +0.000 A 
ATOM     13  C   UNL     1       1.130   8.569  21.379  0.00  0.00    +0.000 A 
ATOM     14  C   UNL     1       0.826   9.940  21.464  0.00  0.00    +0.000 A 
BRANCH   9  16
ATOM     15  C   UNL     1      -0.620  12.372  19.401  0.00  0.00    +0.000 C 
ATOM     16  O   UNL     1       0.391  12.011  20.342  0.00  0.00    +0.000 OA
ENDBRANCH   9  16
BRANCH  14  17
ATOM     17  O   UNL     1       0.542  10.335  22.746  0.00  0.00    +0.000 OA
ATOM     18  C   UNL     1      -0.812  10.313  23.174  0.00  0.00    +0.000 C 
ENDBRANCH  14  17
ENDBRANCH   1  12
BRANCH   6  19
ATOM     19  C   UNL     1       2.662   2.874  17.561  0.00  0.00    +0.000 C 
BRANCH  19  20
ATOM     20  C   UNL     1       4.112   3.024  17.088  0.00  0.00    +0.000 C 
BRANCH  20  21
ATOM     21  N   UNL     1       5.016   3.241  18.222  0.00  0.00    +0.000 NA
ATOM     22  H   UNL     1       5.648   2.466  18.433  0.00  0.00    +0.000 HD
BRANCH  21  23
ATOM     23  S   UNL     1       5.879   4.687  18.259  0.00  0.00    +0.000 S 
ATOM     24  O   UNL     1       5.279   5.523  19.268  0.00  0.00    +0.000 OA
ATOM     25  O   UNL     1       7.280   4.336  18.299  0.00  0.00    +0.000 OA
BRANCH  23  26
ATOM     26  C   UNL     1       5.654   5.517  16.786  0.00  0.00    +0.000 A 
ATOM     27  C   UNL     1       6.155   5.173  15.515  0.00  0.00    +0.000 A 
ATOM     28  C   UNL     1       6.984   4.029  15.107  0.00  0.00    +0.000 C 
ATOM     29  N   UNL     1       5.791   6.074  14.589  0.00  0.00    +0.000 NA
ATOM     30  O   UNL     1       5.041   7.022  15.261  0.00  0.00    +0.000 OA
ATOM     31  C   UNL     1       4.964   6.687  16.577  0.00  0.00    +0.000 A 
ATOM     32  C   UNL     1       4.209   7.614  17.434  0.00  0.00    +0.000 C 
ENDBRANCH  23  26
ENDBRANCH  21  23
ENDBRANCH  20  21
ENDBRANCH  19  20
ENDBRANCH   6  19
TORSDOF 8
ENDMDL
MODEL 4
REMARK VINA RESULT:      -7.6      1.282      1.936
REMARK  Name = 
REMARK  12 active torsions:
REMARK  status: ('A' for Active; 'I' for Inactive)
REMARK    1  A    between atoms: C_1  and  O_2
REMARK    2  A    between atoms: O_2  and  C_3
REMARK    3  A    between atoms: C_6  and  C_7
REMARK    4  A    between atoms: C_12  and  C_13
REMARK    5  A    between atoms: C_13  and  C_14
REMARK    6  A    between atoms: C_14  and  N_15
REMARK    7  A    between atoms: N_15  and  S_16
REMARK    8  A    between atoms: S_16  and  C_19
REMARK    9  A    between atoms: C_20  and  C_21
REMARK   10  A    between atoms: C_24  and  C_25
REMARK   11  A    between atoms: C_29  and  O_30
REMARK   12  A    between atoms: O_30  and  C_31
REMARK                            x       y       z     vdW  Elec       q    Type
REMARK                         _______ _______ _______ _____ _____    ______ ____
ROOT
ATOM      1  C   UNL     1       3.987   4.346  17.700  0.00  0.00    +0.000 A 
ATOM      2  N   UNL     1       3.409   3.096  17.820  0.00  0.00    +0.000 NA
ATOM      3  C   UNL     1       2.525   3.299  18.747  0.00  0.00    +0.000 A 
ATOM      4  S   UNL     1       1.323   2.314  19.500  0.00  0.00    +0.000 S 
ATOM      5  C   UNL     1       0.827   3.719  20.434  0.00  0.00    +0.000 A 
ATOM      6  C   UNL     1       1.547   4.836  20.180  0.00  0.00    +0.000 A 
ATOM      7  N   UNL     1       2.521   4.590  19.205  0.00  0.00    +0.000 N 
ATOM      8  N   UNL     1       3.473   5.283  18.534  0.00  0.00    +0.000 NA
ENDROOT
BRANCH   1  12
ATOM      9  C   UNL     1       7.103   5.193  14.857  0.00  0.00    +0.000 A 
ATOM     10  C   UNL     1       6.275   4.077  14.686  0.00  0.00    +0.000 A 
ATOM     11  C   UNL     1       5.311   3.743  15.648  0.00  0.00    +0.000 A 
ATOM     12  C   UNL     1       5.102   4.555  16.764  0.00  0.00    +0.000 A 
ATOM     13  C   UNL     1       5.992   5.621  16.964  0.00  0.00    +0.000 A 
ATOM     14  C   UNL     1       7.019   5.921  16.050  0.00  0.00    +0.000 A 
BRANCH   9  16
ATOM     15  C   UNL     1       7.729   5.111  12.576  0.00  0.00    +0.000 C 
ATOM     16  O   UNL     1       8.015   5.554  13.903  0.00  0.00    +0.000 OA
ENDBRANCH   9  16
BRANCH  14  17
ATOM     17  O   UNL     1       7.804   6.964  16.468  0.00  0.00    +0.000 OA
ATOM     18  C   UNL     1       7.638   7.444  17.795  0.00  0.00    +0.000 C 
ENDBRANCH  14  17
ENDBRANCH   1  12
BRANCH   6  19
ATOM     19  C   UNL     1       1.229   6.158  20.820  0.00  0.00    +0.000 C 
BRANCH  19  20
ATOM     20  C   UNL     1       1.890   7.440  20.302  0.00  0.00    +0.000 C 
BRANCH  20  21
ATOM     21  N   UNL     1       1.346   8.622  20.977  0.00  0.00    +0.000 NA
ATOM     22  H   UNL     1       1.970   9.067  21.653  0.00  0.00    +0.000 HD
BRANCH  21  23
ATOM     23  S   UNL     1       0.637   9.808  20.012  0.00  0.00    +0.000 S 
ATOM     24  O   UNL     1       1.541  10.075  18.922  0.00  0.00    +0.000 OA
ATOM     25  O   UNL     1      -0.728   9.398  19.782  0.00  0.00    +0.000 OA
BRANCH  23  26
ATOM     26  C   UNL     1       0.540  11.266  20.892  0.00  0.00    +0.000 A 
ATOM     27  C   UNL     1       1.177  12.491  20.608  0.00  0.00    +0.000 A 
ATOM     28  C   UNL     1       2.075  12.851  19.500  0.00  0.00    +0.000 C 
ATOM     29  N   UNL     1       0.884  13.417  21.534  0.00  0.00    +0.000 NA
ATOM     30  O   UNL     1       0.044  12.793  22.437  0.00  0.00    +0.000 OA
ATOM     31  C   UNL     1      -0.157  11.505  22.051  0.00  0.00    +0.000 A 
ATOM     32  C   UNL     1      -1.021  10.697  22.927  0.00  0.00    +0.000 C 
ENDBRANCH  23  26
ENDBRANCH  21  23
ENDBRANCH  20  21
ENDBRANCH  19  20
ENDBRANCH   6  19
TORSDOF 8
ENDMDL
MODEL 5
REMARK VINA RESULT:      -7.5      3.449      5.409
REMARK  Name = 
REMARK  12 active torsions:
REMARK  status: ('A' for Active; 'I' for Inactive)
REMARK    1  A    between atoms: C_1  and  O_2
REMARK    2  A    between atoms: O_2  and  C_3
REMARK    3  A    between atoms: C_6  and  C_7
REMARK    4  A    between atoms: C_12  and  C_13
REMARK    5  A    between atoms: C_13  and  C_14
REMARK    6  A    between atoms: C_14  and  N_15
REMARK    7  A    between atoms: N_15  and  S_16
REMARK    8  A    between atoms: S_16  and  C_19
REMARK    9  A    between atoms: C_20  and  C_21
REMARK   10  A    between atoms: C_24  and  C_25
REMARK   11  A    between atoms: C_29  and  O_30
REMARK   12  A    between atoms: O_30  and  C_31
REMARK                            x       y       z     vdW  Elec       q    Type
REMARK                         _______ _______ _______ _____ _____    ______ ____
ROOT
ATOM      1  C   UNL     1       2.320   7.651  18.750  0.00  0.00    +0.000 A 
ATOM      2  N   UNL     1       2.174   7.524  20.118  0.00  0.00    +0.000 NA
ATOM      3  C   UNL     1       1.347   8.485  20.388  0.00  0.00    +0.000 A 
ATOM      4  S   UNL     1       0.578   9.041  21.831  0.00  0.00    +0.000 S 
ATOM      5  C   UNL     1      -0.260  10.246  20.861  0.00  0.00    +0.000 A 
ATOM      6  C   UNL     1       0.051  10.212  19.545  0.00  0.00    +0.000 A 
ATOM      7  N   UNL     1       0.973   9.194  19.277  0.00  0.00    +0.000 N 
ATOM      8  N   UNL     1       1.604   8.664  18.201  0.00  0.00    +0.000 NA
ENDROOT
BRANCH   1  12
ATOM      9  C   UNL     1       5.141   4.999  16.874  0.00  0.00    +0.000 A 
ATOM     10  C   UNL     1       5.180   6.374  16.609  0.00  0.00    +0.000 A 
ATOM     11  C   UNL     1       4.215   7.237  17.148  0.00  0.00    +0.000 A 
ATOM     12  C   UNL     1       3.236   6.761  18.021  0.00  0.00    +0.000 A 
ATOM     13  C   UNL     1       3.159   5.372  18.211  0.00  0.00    +0.000 A 
ATOM     14  C   UNL     1       4.069   4.483  17.611  0.00  0.00    +0.000 A 
BRANCH   9  16
ATOM     15  C   UNL     1       6.021   3.856  14.997  0.00  0.00    +0.000 C 
ATOM     16  O   UNL     1       6.105   4.155  16.391  0.00  0.00    +0.000 OA
ENDBRANCH   9  16
BRANCH  14  17
ATOM     17  O   UNL     1       3.778   3.171  17.884  0.00  0.00    +0.000 OA
ATOM     18  C   UNL     1       2.472   2.695  17.590  0.00  0.00    +0.000 C 
ENDBRANCH  14  17
ENDBRANCH   1  12
BRANCH   6  19
ATOM     19  C   UNL     1      -0.616  11.109  18.541  0.00  0.00    +0.000 C 
BRANCH  19  20
ATOM     20  C   UNL     1      -0.622  12.627  18.753  0.00  0.00    +0.000 C 
BRANCH  20  21
ATOM     21  N   UNL     1       0.445  13.271  17.981  0.00  0.00    +0.000 NA
ATOM     22  H   UNL     1       0.170  14.113  17.471  0.00  0.00    +0.000 HD
BRANCH  21  23
ATOM     23  S   UNL     1       1.909  13.551  18.765  0.00  0.00    +0.000 S 
ATOM     24  O   UNL     1       1.663  13.466  20.182  0.00  0.00    +0.000 OA
ATOM     25  O   UNL     1       2.896  12.720  18.116  0.00  0.00    +0.000 OA
BRANCH  23  26
ATOM     26  C   UNL     1       2.402  15.159  18.483  0.00  0.00    +0.000 A 
ATOM     27  C   UNL     1       1.616  16.327  18.542  0.00  0.00    +0.000 A 
ATOM     28  C   UNL     1       0.189  16.486  18.862  0.00  0.00    +0.000 C 
ATOM     29  N   UNL     1       2.339  17.416  18.238  0.00  0.00    +0.000 NA
ATOM     30  O   UNL     1       3.617  16.957  17.977  0.00  0.00    +0.000 OA
ATOM     31  C   UNL     1       3.650  15.605  18.121  0.00  0.00    +0.000 A 
ATOM     32  C   UNL     1       4.946  14.961  17.857  0.00  0.00    +0.000 C 
ENDBRANCH  23  26
ENDBRANCH  21  23
ENDBRANCH  20  21
ENDBRANCH  19  20
ENDBRANCH   6  19
TORSDOF 8
ENDMDL
MODEL 6
REMARK VINA RESULT:      -7.5      1.562      1.766
REMARK  Name = 
REMARK  12 active torsions:
REMARK  status: ('A' for Active; 'I' for Inactive)
REMARK    1  A    between atoms: C_1  and  O_2
REMARK    2  A    between atoms: O_2  and  C_3
REMARK    3  A    between atoms: C_6  and  C_7
REMARK    4  A    between atoms: C_12  and  C_13
REMARK    5  A    between atoms: C_13  and  C_14
REMARK    6  A    between atoms: C_14  and  N_15
REMARK    7  A    between atoms: N_15  and  S_16
REMARK    8  A    between atoms: S_16  and  C_19
REMARK    9  A    between atoms: C_20  and  C_21
REMARK   10  A    between atoms: C_24  and  C_25
REMARK   11  A    between atoms: C_29  and  O_30
REMARK   12  A    between atoms: O_30  and  C_31
REMARK                            x       y       z     vdW  Elec       q    Type
REMARK                         _______ _______ _______ _____ _____    ______ ____
ROOT
ATOM      1  C   UNL     1       4.294   4.402  18.199  0.00  0.00    +0.000 A 
ATOM      2  N   UNL     1       4.155   3.180  18.830  0.00  0.00    +0.000 NA
ATOM      3  C   UNL     1       3.245   3.439  19.717  0.00  0.00    +0.000 A 
ATOM      4  S   UNL     1       2.425   2.498  20.910  0.00  0.00    +0.000 S 
ATOM      5  C   UNL     1       1.486   3.928  21.322  0.00  0.00    +0.000 A 
ATOM      6  C   UNL     1       1.804   5.026  20.598  0.00  0.00    +0.000 A 
ATOM      7  N   UNL     1       2.813   4.739  19.673  0.00  0.00    +0.000 N 
ATOM      8  N   UNL     1       3.492   5.380  18.691  0.00  0.00    +0.000 NA
ENDROOT
BRANCH   1  12
ATOM      9  C   UNL     1       7.046   5.127  14.974  0.00  0.00    +0.000 A 
ATOM     10  C   UNL     1       6.195   4.015  14.940  0.00  0.00    +0.000 A 
ATOM     11  C   UNL     1       5.353   3.722  16.022  0.00  0.00    +0.000 A 
ATOM     12  C   UNL     1       5.287   4.570  17.129  0.00  0.00    +0.000 A 
ATOM     13  C   UNL     1       6.204   5.631  17.185  0.00  0.00    +0.000 A 
ATOM     14  C   UNL     1       7.113   5.892  16.144  0.00  0.00    +0.000 A 
BRANCH   9  16
ATOM     15  C   UNL     1       7.482   4.834  12.666  0.00  0.00    +0.000 C 
ATOM     16  O   UNL     1       7.838   5.448  13.904  0.00  0.00    +0.000 OA
ENDBRANCH   9  16
BRANCH  14  17
ATOM     17  O   UNL     1       7.952   6.938  16.430  0.00  0.00    +0.000 OA
ATOM     18  C   UNL     1       7.663   7.742  17.565  0.00  0.00    +0.000 C 
ENDBRANCH  14  17
ENDBRANCH   1  12
BRANCH   6  19
ATOM     19  C   UNL     1       1.063   6.325  20.748  0.00  0.00    +0.000 C 
BRANCH  19  20
ATOM     20  C   UNL     1       1.800   7.655  20.553  0.00  0.00    +0.000 C 
BRANCH  20  21
ATOM     21  N   UNL     1       0.961   8.786  20.960  0.00  0.00    +0.000 NA
ATOM     22  H   UNL     1       1.270   9.282  21.799  0.00  0.00    +0.000 HD
BRANCH  21  23
ATOM     23  S   UNL     1       0.545   9.909  19.775  0.00  0.00    +0.000 S 
ATOM     24  O   UNL     1       1.517   9.799  18.716  0.00  0.00    +0.000 OA
ATOM     25  O   UNL     1      -0.868   9.748  19.526  0.00  0.00    +0.000 OA
BRANCH  23  26
ATOM     26  C   UNL     1       0.728  11.484  20.401  0.00  0.00    +0.000 A 
ATOM     27  C   UNL     1       0.151  12.022  21.569  0.00  0.00    +0.000 A 
ATOM     28  C   UNL     1      -0.739  11.393  22.556  0.00  0.00    +0.000 C 
ATOM     29  N   UNL     1       0.502  13.307  21.737  0.00  0.00    +0.000 NA
ATOM     30  O   UNL     1       1.319  13.617  20.666  0.00  0.00    +0.000 OA
ATOM     31  C   UNL     1       1.449  12.524  19.866  0.00  0.00    +0.000 A 
ATOM     32  C   UNL     1       2.280  12.700  18.665  0.00  0.00    +0.000 C 
ENDBRANCH  23  26
ENDBRANCH  21  23
ENDBRANCH  20  21
ENDBRANCH  19  20
ENDBRANCH   6  19
TORSDOF 8
ENDMDL
MODEL 7
REMARK VINA RESULT:      -7.4      1.420      1.673
REMARK  Name = 
REMARK  12 active torsions:
REMARK  status: ('A' for Active; 'I' for Inactive)
REMARK    1  A    between atoms: C_1  and  O_2
REMARK    2  A    between atoms: O_2  and  C_3
REMARK    3  A    between atoms: C_6  and  C_7
REMARK    4  A    between atoms: C_12  and  C_13
REMARK    5  A    between atoms: C_13  and  C_14
REMARK    6  A    between atoms: C_14  and  N_15
REMARK    7  A    between atoms: N_15  and  S_16
REMARK    8  A    between atoms: S_16  and  C_19
REMARK    9  A    between atoms: C_20  and  C_21
REMARK   10  A    between atoms: C_24  and  C_25
REMARK   11  A    between atoms: C_29  and  O_30
REMARK   12  A    between atoms: O_30  and  C_31
REMARK                            x       y       z     vdW  Elec       q    Type
REMARK                         _______ _______ _______ _____ _____    ______ ____
ROOT
ATOM      1  C   UNL     1       4.023   4.587  17.860  0.00  0.00    +0.000 A 
ATOM      2  N   UNL     1       3.341   3.395  18.014  0.00  0.00    +0.000 NA
ATOM      3  C   UNL     1       2.515   3.682  18.971  0.00  0.00    +0.000 A 
ATOM      4  S   UNL     1       1.260   2.813  19.778  0.00  0.00    +0.000 S 
ATOM      5  C   UNL     1       0.926   4.263  20.716  0.00  0.00    +0.000 A 
ATOM      6  C   UNL     1       1.732   5.310  20.424  0.00  0.00    +0.000 A 
ATOM      7  N   UNL     1       2.642   4.972  19.416  0.00  0.00    +0.000 N 
ATOM      8  N   UNL     1       3.626   5.573  18.703  0.00  0.00    +0.000 NA
ENDROOT
BRANCH   1  12
ATOM      9  C   UNL     1       7.085   5.128  14.887  0.00  0.00    +0.000 A 
ATOM     10  C   UNL     1       6.183   4.062  14.786  0.00  0.00    +0.000 A 
ATOM     11  C   UNL     1       5.234   3.826  15.791  0.00  0.00    +0.000 A 
ATOM     12  C   UNL     1       5.115   4.690  16.881  0.00  0.00    +0.000 A 
ATOM     13  C   UNL     1       6.077   5.703  17.010  0.00  0.00    +0.000 A 
ATOM     14  C   UNL     1       7.088   5.904  16.052  0.00  0.00    +0.000 A 
BRANCH   9  16
ATOM     15  C   UNL     1       7.619   4.934  12.589  0.00  0.00    +0.000 C 
ATOM     16  O   UNL     1       7.984   5.395  13.890  0.00  0.00    +0.000 OA
ENDBRANCH   9  16
BRANCH  14  17
ATOM     17  O   UNL     1       7.951   6.909  16.403  0.00  0.00    +0.000 OA
ATOM     18  C   UNL     1       7.639   7.698  17.543  0.00  0.00    +0.000 C 
ENDBRANCH  14  17
ENDBRANCH   1  12
BRANCH   6  19
ATOM     19  C   UNL     1       1.556   6.659  21.061  0.00  0.00    +0.000 C 
BRANCH  19  20
ATOM     20  C   UNL     1       1.627   7.928  20.204  0.00  0.00    +0.000 C 
BRANCH  20  21
ATOM     21  N   UNL     1       0.470   8.794  20.448  0.00  0.00    +0.000 NA
ATOM     22  H   UNL     1      -0.056   8.593  21.301  0.00  0.00    +0.000 HD
BRANCH  21  23
ATOM     23  S   UNL     1       0.706  10.457  20.322  0.00  0.00    +0.000 S 
ATOM     24  O   UNL     1       1.218  10.918  21.588  0.00  0.00    +0.000 OA
ATOM     25  O   UNL     1       1.420  10.685  19.088  0.00  0.00    +0.000 OA
BRANCH  23  26
ATOM     26  C   UNL     1      -0.803  11.229  20.132  0.00  0.00    +0.000 A 
ATOM     27  C   UNL     1      -1.444  12.106  21.030  0.00  0.00    +0.000 A 
ATOM     28  C   UNL     1      -1.003  12.596  22.344  0.00  0.00    +0.000 C 
ATOM     29  N   UNL     1      -2.634  12.503  20.554  0.00  0.00    +0.000 NA
ATOM     30  O   UNL     1      -2.776  11.880  19.329  0.00  0.00    +0.000 OA
ATOM     31  C   UNL     1      -1.679  11.115  19.081  0.00  0.00    +0.000 A 
ATOM     32  C   UNL     1      -1.688  10.368  17.813  0.00  0.00    +0.000 C 
ENDBRANCH  23  26
ENDBRANCH  21  23
ENDBRANCH  20  21
ENDBRANCH  19  20
ENDBRANCH   6  19
TORSDOF 8
ENDMDL
MODEL 8
REMARK VINA RESULT:      -7.3      4.123      6.351
REMARK  Name = 
REMARK  12 active torsions:
REMARK  status: ('A' for Active; 'I' for Inactive)
REMARK    1  A    between atoms: C_1  and  O_2
REMARK    2  A    between atoms: O_2  and  C_3
REMARK    3  A    between atoms: C_6  and  C_7
REMARK    4  A    between atoms: C_12  and  C_13
REMARK    5  A    between atoms: C_13  and  C_14
REMARK    6  A    between atoms: C_14  and  N_15
REMARK    7  A    between atoms: N_15  and  S_16
REMARK    8  A    between atoms: S_16  and  C_19
REMARK    9  A    between atoms: C_20  and  C_21
REMARK   10  A    between atoms: C_24  and  C_25
REMARK   11  A    between atoms: C_29  and  O_30
REMARK   12  A    between atoms: O_30  and  C_31
REMARK                            x       y       z     vdW  Elec       q    Type
REMARK                         _______ _______ _______ _____ _____    ______ ____
ROOT
ATOM      1  C   UNL     1       1.694   8.166  19.799  0.00  0.00    +0.000 A 
ATOM      2  N   UNL     1       1.495   7.990  21.156  0.00  0.00    +0.000 NA
ATOM      3  C   UNL     1       0.747   9.008  21.449  0.00  0.00    +0.000 A 
ATOM      4  S   UNL     1      -0.016   9.563  22.896  0.00  0.00    +0.000 S 
ATOM      5  C   UNL     1      -0.715  10.881  21.962  0.00  0.00    +0.000 A 
ATOM      6  C   UNL     1      -0.367  10.879  20.655  0.00  0.00    +0.000 A 
ATOM      7  N   UNL     1       0.471   9.797  20.363  0.00  0.00    +0.000 N 
ATOM      8  N   UNL     1       1.087   9.262  19.281  0.00  0.00    +0.000 NA
ENDROOT
BRANCH   1  12
ATOM      9  C   UNL     1       4.405   5.466  17.831  0.00  0.00    +0.000 A 
ATOM     10  C   UNL     1       4.148   6.731  17.287  0.00  0.00    +0.000 A 
ATOM     11  C   UNL     1       3.204   7.587  17.873  0.00  0.00    +0.000 A 
ATOM     12  C   UNL     1       2.551   7.232  19.054  0.00  0.00    +0.000 A 
ATOM     13  C   UNL     1       2.756   5.931  19.540  0.00  0.00    +0.000 A 
ATOM     14  C   UNL     1       3.638   5.029  18.918  0.00  0.00    +0.000 A 
BRANCH   9  16
ATOM     15  C   UNL     1       6.658   4.744  17.872  0.00  0.00    +0.000 C 
ATOM     16  O   UNL     1       5.356   4.642  17.294  0.00  0.00    +0.000 OA
ENDBRANCH   9  16
BRANCH  14  17
ATOM     17  O   UNL     1       3.644   3.800  19.523  0.00  0.00    +0.000 OA
ATOM     18  C   UNL     1       2.798   2.785  19.000  0.00  0.00    +0.000 C 
ENDBRANCH  14  17
ENDBRANCH   1  12
BRANCH   6  19
ATOM     19  C   UNL     1      -0.921  11.877  19.678  0.00  0.00    +0.000 C 
BRANCH  19  20
ATOM     20  C   UNL     1      -1.669  13.115  20.185  0.00  0.00    +0.000 C 
BRANCH  20  21
ATOM     21  N   UNL     1      -3.013  13.192  19.606  0.00  0.00    +0.000 NA
ATOM     22  H   UNL     1      -3.195  12.549  18.832  0.00  0.00    +0.000 HD
BRANCH  21  23
ATOM     23  S   UNL     1      -4.319  13.160  20.671  0.00  0.00    +0.000 S 
ATOM     24  O   UNL     1      -3.874  12.518  21.882  0.00  0.00    +0.000 OA
ATOM     25  O   UNL     1      -4.881  14.491  20.681  0.00  0.00    +0.000 OA
BRANCH  23  26
ATOM     26  C   UNL     1      -5.538  12.148  20.039  0.00  0.00    +0.000 A 
ATOM     27  C   UNL     1      -6.770  11.806  20.632  0.00  0.00    +0.000 A 
ATOM     28  C   UNL     1      -7.341  12.219  21.922  0.00  0.00    +0.000 C 
ATOM     29  N   UNL     1      -7.468  10.967  19.851  0.00  0.00    +0.000 NA
ATOM     30  O   UNL     1      -6.685  10.756  18.732  0.00  0.00    +0.000 OA
ATOM     31  C   UNL     1      -5.529  11.462  18.849  0.00  0.00    +0.000 A 
ATOM     32  C   UNL     1      -4.574  11.326  17.737  0.00  0.00    +0.000 C 
ENDBRANCH  23  26
ENDBRANCH  21  23
ENDBRANCH  20  21
ENDBRANCH  19  20
ENDBRANCH   6  19
TORSDOF 8
ENDMDL
MODEL 9
REMARK VINA RESULT:      -7.3      2.291      7.932
REMARK  Name = 
REMARK  12 active torsions:
REMARK  status: ('A' for Active; 'I' for Inactive)
REMARK    1  A    between atoms: C_1  and  O_2
REMARK    2  A    between atoms: O_2  and  C_3
REMARK    3  A    between atoms: C_6  and  C_7
REMARK    4  A    between atoms: C_12  and  C_13
REMARK    5  A    between atoms: C_13  and  C_14
REMARK    6  A    between atoms: C_14  and  N_15
REMARK    7  A    between atoms: N_15  and  S_16
REMARK    8  A    between atoms: S_16  and  C_19
REMARK    9  A    between atoms: C_20  and  C_21
REMARK   10  A    between atoms: C_24  and  C_25
REMARK   11  A    between atoms: C_29  and  O_30
REMARK   12  A    between atoms: O_30  and  C_31
REMARK                            x       y       z     vdW  Elec       q    Type
REMARK                         _______ _______ _______ _____ _____    ______ ____
ROOT
ATOM      1  C   UNL     1       1.595   6.445  19.971  0.00  0.00    +0.000 A 
ATOM      2  N   UNL     1       1.471   5.735  21.151  0.00  0.00    +0.000 NA
ATOM      3  C   UNL     1       1.656   4.516  20.749  0.00  0.00    +0.000 A 
ATOM      4  S   UNL     1       1.720   2.984  21.543  0.00  0.00    +0.000 S 
ATOM      5  C   UNL     1       2.076   2.247  19.986  0.00  0.00    +0.000 A 
ATOM      6  C   UNL     1       2.124   3.123  18.956  0.00  0.00    +0.000 A 
ATOM      7  N   UNL     1       1.886   4.428  19.401  0.00  0.00    +0.000 N 
ATOM      8  N   UNL     1       1.845   5.679  18.880  0.00  0.00    +0.000 NA
ENDROOT
BRANCH   1  12
ATOM      9  C   UNL     1       0.753  10.663  19.895  0.00  0.00    +0.000 A 
ATOM     10  C   UNL     1       1.512  10.075  18.874  0.00  0.00    +0.000 A 
ATOM     11  C   UNL     1       1.863   8.719  18.931  0.00  0.00    +0.000 A 
ATOM     12  C   UNL     1       1.405   7.903  19.966  0.00  0.00    +0.000 A 
ATOM     13  C   UNL     1       0.718   8.522  21.022  0.00  0.00    +0.000 A 
ATOM     14  C   UNL     1       0.428   9.898  21.021  0.00  0.00    +0.000 A 
BRANCH   9  16
ATOM     15  C   UNL     1      -0.597  12.282  18.819  0.00  0.00    +0.000 C 
ATOM     16  O   UNL     1       0.366  11.974  19.827  0.00  0.00    +0.000 OA
ENDBRANCH   9  16
BRANCH  14  17
ATOM     17  O   UNL     1      -0.198  10.302  22.172  0.00  0.00    +0.000 OA
ATOM     18  C   UNL     1       0.077   9.596  23.373  0.00  0.00    +0.000 C 
ENDBRANCH  14  17
ENDBRANCH   1  12
BRANCH   6  19
ATOM     19  C   UNL     1       2.490   2.701  17.561  0.00  0.00    +0.000 C 
BRANCH  19  20
ATOM     20  C   UNL     1       3.675   3.358  16.846  0.00  0.00    +0.000 C 
BRANCH  20  21
ATOM     21  N   UNL     1       4.888   3.293  17.667  0.00  0.00    +0.000 NA
ATOM     22  H   UNL     1       5.621   2.672  17.318  0.00  0.00    +0.000 HD
BRANCH  21  23
ATOM     23  S   UNL     1       5.579   4.752  18.146  0.00  0.00    +0.000 S 
ATOM     24  O   UNL     1       4.511   5.707  18.301  0.00  0.00    +0.000 OA
ATOM     25  O   UNL     1       6.487   4.449  19.228  0.00  0.00    +0.000 OA
BRANCH  23  26
ATOM     26  C   UNL     1       6.553   5.357  16.883  0.00  0.00    +0.000 A 
ATOM     27  C   UNL     1       6.723   4.821  15.591  0.00  0.00    +0.000 A 
ATOM     28  C   UNL     1       6.120   3.627  14.980  0.00  0.00    +0.000 C 
ATOM     29  N   UNL     1       7.585   5.555  14.870  0.00  0.00    +0.000 NA
ATOM     30  O   UNL     1       7.986   6.586  15.699  0.00  0.00    +0.000 OA
ATOM     31  C   UNL     1       7.368   6.462  16.905  0.00  0.00    +0.000 A 
ATOM     32  C   UNL     1       7.708   7.482  17.910  0.00  0.00    +0.000 C 
ENDBRANCH  23  26
ENDBRANCH  21  23
ENDBRANCH  20  21
ENDBRANCH  19  20
ENDBRANCH   6  19
TORSDOF 8
ENDMDL
