MODEL 1
REMARK VINA RESULT:      -7.1      0.000      0.000
REMARK  Name = 
REMARK  3 active torsions:
REMARK  status: ('A' for Active; 'I' for Inactive)
REMARK    1  A    between atoms: N_6  and  N_7
REMARK    2  A    between atoms: C_8  and  C_9
REMARK    3  A    between atoms: C_10  and  C_11
REMARK                            x       y       z     vdW  Elec       q    Type
REMARK                         _______ _______ _______ _____ _____    ______ ____
ROOT
ATOM      1  N   UNL     1       7.544   7.500  17.133  0.00  0.00    +0.000 NA
ATOM      2  C   UNL     1       7.744   8.264  18.158  0.00  0.00    +0.000 C 
ENDROOT
BRANCH   1   8
ATOM      3  O   UNL     1       7.429   4.813  13.193  0.00  0.00    +0.000 OA
ATOM      4  C   UNL     1       6.930   4.796  14.310  0.00  0.00    +0.000 C 
ATOM      5  C   UNL     1       6.005   3.714  14.814  0.00  0.00    +0.000 C 
ATOM      6  S   UNL     1       5.515   4.223  16.490  0.00  0.00    +0.000 S 
ATOM      7  C   UNL     1       6.528   5.632  16.449  0.00  0.00    +0.000 C 
ATOM      8  N   UNL     1       6.659   6.454  17.435  0.00  0.00    +0.000 NA
ATOM      9  N   UNL     1       7.152   5.749  15.255  0.00  0.00    +0.000 N 
ATOM     10  H   UNL     1       7.755   6.542  15.104  0.00  0.00    +0.000 HD
ENDBRANCH   1   8
BRANCH   2  11
ATOM     11  C   UNL     1       8.640   9.434  18.055  0.00  0.00    +0.000 C 
ATOM     12  C   UNL     1       9.255   9.934  19.135  0.00  0.00    +0.000 C 
BRANCH  12  13
ATOM     13  C   UNL     1      10.101  11.124  19.021  0.00  0.00    +0.000 A 
ATOM     14  C   UNL     1      10.510  11.570  17.759  0.00  0.00    +0.000 A 
ATOM     15  C   UNL     1      11.342  12.685  17.638  0.00  0.00    +0.000 A 
ATOM     16  C   UNL     1      11.769  13.363  18.779  0.00  0.00    +0.000 A 
ATOM     17  C   UNL     1      11.365  12.925  20.040  0.00  0.00    +0.000 A 
ATOM     18  C   UNL     1      10.534  11.808  20.162  0.00  0.00    +0.000 A 
ENDBRANCH  12  13
ENDBRANCH   2  11
TORSDOF 3
ENDMDL
MODEL 2
REMARK VINA RESULT:      -7.1      0.631      1.327
REMARK  Name = 
REMARK  3 active torsions:
REMARK  status: ('A' for Active; 'I' for Inactive)
REMARK    1  A    between atoms: N_6  and  N_7
REMARK    2  A    between atoms: C_8  and  C_9
REMARK    3  A    between atoms: C_10  and  C_11
REMARK                            x       y       z     vdW  Elec       q    Type
REMARK                         _______ _______ _______ _____ _____    ______ ____
ROOT
ATOM      1  N   UNL     1       7.690   6.835  18.050  0.00  0.00    +0.000 NA
ATOM      2  C   UNL     1       7.322   8.039  17.750  0.00  0.00    +0.000 C 
ENDROOT
BRANCH   1   8
ATOM      3  O   UNL     1       7.926   5.341  13.526  0.00  0.00    +0.000 OA
ATOM      4  C   UNL     1       7.236   5.122  14.512  0.00  0.00    +0.000 C 
ATOM      5  C   UNL     1       6.098   4.131  14.554  0.00  0.00    +0.000 C 
ATOM      6  S   UNL     1       5.387   4.262  16.223  0.00  0.00    +0.000 S 
ATOM      7  C   UNL     1       6.571   5.426  16.727  0.00  0.00    +0.000 C 
ATOM      8  N   UNL     1       6.633   5.923  17.915  0.00  0.00    +0.000 NA
ATOM      9  N   UNL     1       7.411   5.738  15.714  0.00  0.00    +0.000 N 
ATOM     10  H   UNL     1       8.132   6.421  15.880  0.00  0.00    +0.000 HD
ENDBRANCH   1   8
BRANCH   2  11
ATOM     11  C   UNL     1       8.286   9.156  17.818  0.00  0.00    +0.000 C 
ATOM     12  C   UNL     1       8.821   9.541  18.983  0.00  0.00    +0.000 C 
BRANCH  12  13
ATOM     13  C   UNL     1       9.738  10.682  19.036  0.00  0.00    +0.000 A 
ATOM     14  C   UNL     1      10.081  11.243  20.271  0.00  0.00    +0.000 A 
ATOM     15  C   UNL     1      10.930  12.351  20.333  0.00  0.00    +0.000 A 
ATOM     16  C   UNL     1      11.442  12.904  19.159  0.00  0.00    +0.000 A 
ATOM     17  C   UNL     1      11.104  12.349  17.926  0.00  0.00    +0.000 A 
ATOM     18  C   UNL     1      10.253  11.242  17.862  0.00  0.00    +0.000 A 
ENDBRANCH  12  13
ENDBRANCH   2  11
TORSDOF 3
ENDMDL
MODEL 3
REMARK VINA RESULT:      -6.9      2.242      2.794
REMARK  Name = 
REMARK  3 active torsions:
REMARK  status: ('A' for Active; 'I' for Inactive)
REMARK    1  A    between atoms: N_6  and  N_7
REMARK    2  A    between atoms: C_8  and  C_9
REMARK    3  A    between atoms: C_10  and  C_11
REMARK                            x       y       z     vdW  Elec       q    Type
REMARK                         _______ _______ _______ _____ _____    ______ ____
ROOT
ATOM      1  N   UNL     1       7.629   6.684  17.290  0.00  0.00    +0.000 NA
ATOM      2  C   UNL     1       7.503   7.971  17.333  0.00  0.00    +0.000 C 
ENDROOT
BRANCH   1   8
ATOM      3  O   UNL     1       5.157   3.470  19.804  0.00  0.00    +0.000 OA
ATOM      4  C   UNL     1       5.185   3.887  18.654  0.00  0.00    +0.000 C 
ATOM      5  C   UNL     1       4.262   3.419  17.555  0.00  0.00    +0.000 C 
ATOM      6  S   UNL     1       4.782   4.309  16.057  0.00  0.00    +0.000 S 
ATOM      7  C   UNL     1       5.994   5.210  16.912  0.00  0.00    +0.000 C 
ATOM      8  N   UNL     1       6.742   6.109  16.368  0.00  0.00    +0.000 NA
ATOM      9  N   UNL     1       6.047   4.843  18.213  0.00  0.00    +0.000 N 
ATOM     10  H   UNL     1       6.729   5.285  18.809  0.00  0.00    +0.000 HD
ENDBRANCH   1   8
BRANCH   2  11
ATOM     11  C   UNL     1       8.350   8.777  18.237  0.00  0.00    +0.000 C 
ATOM     12  C   UNL     1       8.738  10.014  17.904  0.00  0.00    +0.000 C 
BRANCH  12  13
ATOM     13  C   UNL     1       9.618  10.779  18.792  0.00  0.00    +0.000 A 
ATOM     14  C   UNL     1       9.293  10.914  20.146  0.00  0.00    +0.000 A 
ATOM     15  C   UNL     1      10.107  11.665  20.997  0.00  0.00    +0.000 A 
ATOM     16  C   UNL     1      11.252  12.286  20.498  0.00  0.00    +0.000 A 
ATOM     17  C   UNL     1      11.581  12.155  19.149  0.00  0.00    +0.000 A 
ATOM     18  C   UNL     1      10.766  11.405  18.297  0.00  0.00    +0.000 A 
ENDBRANCH  12  13
ENDBRANCH   2  11
TORSDOF 3
ENDMDL
MODEL 4
REMARK VINA RESULT:      -6.9      0.608      1.129
REMARK  Name = 
REMARK  3 active torsions:
REMARK  status: ('A' for Active; 'I' for Inactive)
REMARK    1  A    between atoms: N_6  and  N_7
REMARK    2  A    between atoms: C_8  and  C_9
REMARK    3  A    between atoms: C_10  and  C_11
REMARK                            x       y       z     vdW  Elec       q    Type
REMARK                         _______ _______ _______ _____ _____    ______ ____
ROOT
ATOM      1  N   UNL     1       7.487   7.713  17.119  0.00  0.00    +0.000 NA
ATOM      2  C   UNL     1       7.836   8.460  18.116  0.00  0.00    +0.000 C 
ENDROOT
BRANCH   1   8
ATOM      3  O   UNL     1       7.296   4.770  13.370  0.00  0.00    +0.000 OA
ATOM      4  C   UNL     1       6.851   4.808  14.509  0.00  0.00    +0.000 C 
ATOM      5  C   UNL     1       5.997   3.728  15.127  0.00  0.00    +0.000 C 
ATOM      6  S   UNL     1       5.565   4.327  16.789  0.00  0.00    +0.000 S 
ATOM      7  C   UNL     1       6.517   5.767  16.608  0.00  0.00    +0.000 C 
ATOM      8  N   UNL     1       6.661   6.656  17.531  0.00  0.00    +0.000 NA
ATOM      9  N   UNL     1       7.079   5.829  15.379  0.00  0.00    +0.000 N 
ATOM     10  H   UNL     1       7.641   6.632  15.148  0.00  0.00    +0.000 HD
ENDBRANCH   1   8
BRANCH   2  11
ATOM     11  C   UNL     1       8.703   9.637  17.902  0.00  0.00    +0.000 C 
ATOM     12  C   UNL     1       9.289  10.263  18.930  0.00  0.00    +0.000 C 
BRANCH  12  13
ATOM     13  C   UNL     1      10.106  11.458  18.702  0.00  0.00    +0.000 A 
ATOM     14  C   UNL     1      11.293  11.638  19.421  0.00  0.00    +0.000 A 
ATOM     15  C   UNL     1      12.065  12.787  19.234  0.00  0.00    +0.000 A 
ATOM     16  C   UNL     1      11.655  13.763  18.326  0.00  0.00    +0.000 A 
ATOM     17  C   UNL     1      10.473  13.589  17.607  0.00  0.00    +0.000 A 
ATOM     18  C   UNL     1       9.699  12.441  17.794  0.00  0.00    +0.000 A 
ENDBRANCH  12  13
ENDBRANCH   2  11
TORSDOF 3
ENDMDL
MODEL 5
REMARK VINA RESULT:      -6.8      2.212      2.547
REMARK  Name = 
REMARK  3 active torsions:
REMARK  status: ('A' for Active; 'I' for Inactive)
REMARK    1  A    between atoms: N_6  and  N_7
REMARK    2  A    between atoms: C_8  and  C_9
REMARK    3  A    between atoms: C_10  and  C_11
REMARK                            x       y       z     vdW  Elec       q    Type
REMARK                         _______ _______ _______ _____ _____    ______ ____
ROOT
ATOM      1  N   UNL     1       7.569   6.810  16.935  0.00  0.00    +0.000 NA
ATOM      2  C   UNL     1       7.394   8.053  17.247  0.00  0.00    +0.000 C 
ENDROOT
BRANCH   1   8
ATOM      3  O   UNL     1       5.508   3.517  19.705  0.00  0.00    +0.000 OA
ATOM      4  C   UNL     1       5.329   4.002  18.596  0.00  0.00    +0.000 C 
ATOM      5  C   UNL     1       4.196   3.624  17.674  0.00  0.00    +0.000 C 
ATOM      6  S   UNL     1       4.451   4.587  16.153  0.00  0.00    +0.000 S 
ATOM      7  C   UNL     1       5.837   5.404  16.803  0.00  0.00    +0.000 C 
ATOM      8  N   UNL     1       6.500   6.314  16.174  0.00  0.00    +0.000 NA
ATOM      9  N   UNL     1       6.126   4.959  18.048  0.00  0.00    +0.000 N 
ATOM     10  H   UNL     1       6.925   5.347  18.523  0.00  0.00    +0.000 HD
ENDBRANCH   1   8
BRANCH   2  11
ATOM     11  C   UNL     1       8.407   8.775  18.044  0.00  0.00    +0.000 C 
ATOM     12  C   UNL     1       8.461  10.113  18.052  0.00  0.00    +0.000 C 
BRANCH  12  13
ATOM     13  C   UNL     1       9.504  10.808  18.810  0.00  0.00    +0.000 A 
ATOM     14  C   UNL     1      10.714  11.137  18.190  0.00  0.00    +0.000 A 
ATOM     15  C   UNL     1      11.728  11.773  18.910  0.00  0.00    +0.000 A 
ATOM     16  C   UNL     1      11.537  12.085  20.256  0.00  0.00    +0.000 A 
ATOM     17  C   UNL     1      10.333  11.760  20.880  0.00  0.00    +0.000 A 
ATOM     18  C   UNL     1       9.319  11.122  20.161  0.00  0.00    +0.000 A 
ENDBRANCH  12  13
ENDBRANCH   2  11
TORSDOF 3
ENDMDL
MODEL 6
REMARK VINA RESULT:      -6.7      6.751      8.237
REMARK  Name = 
REMARK  3 active torsions:
REMARK  status: ('A' for Active; 'I' for Inactive)
REMARK    1  A    between atoms: N_6  and  N_7
REMARK    2  A    between atoms: C_8  and  C_9
REMARK    3  A    between atoms: C_10  and  C_11
REMARK                            x       y       z     vdW  Elec       q    Type
REMARK                         _______ _______ _______ _____ _____    ______ ____
ROOT
ATOM      1  N   UNL     1       4.411   5.056  18.202  0.00  0.00    +0.000 NA
ATOM      2  C   UNL     1       5.568   4.494  18.068  0.00  0.00    +0.000 C 
ENDROOT
BRANCH   1   8
ATOM      3  O   UNL     1       0.547   2.263  18.383  0.00  0.00    +0.000 OA
ATOM      4  C   UNL     1       1.218   2.925  19.164  0.00  0.00    +0.000 C 
ATOM      5  C   UNL     1       0.954   3.020  20.647  0.00  0.00    +0.000 C 
ATOM      6  S   UNL     1       2.197   4.177  21.299  0.00  0.00    +0.000 S 
ATOM      7  C   UNL     1       2.957   4.365  19.750  0.00  0.00    +0.000 C 
ATOM      8  N   UNL     1       4.005   5.088  19.544  0.00  0.00    +0.000 NA
ATOM      9  N   UNL     1       2.306   3.658  18.798  0.00  0.00    +0.000 N 
ATOM     10  H   UNL     1       2.643   3.704  17.850  0.00  0.00    +0.000 HD
ENDBRANCH   1   8
BRANCH   2  11
ATOM     11  C   UNL     1       6.187   4.362  16.733  0.00  0.00    +0.000 C 
ATOM     12  C   UNL     1       5.499   4.642  15.618  0.00  0.00    +0.000 C 
BRANCH  12  13
ATOM     13  C   UNL     1       6.116   4.459  14.302  0.00  0.00    +0.000 A 
ATOM     14  C   UNL     1       7.249   5.202  13.954  0.00  0.00    +0.000 A 
ATOM     15  C   UNL     1       7.828   5.059  12.692  0.00  0.00    +0.000 A 
ATOM     16  C   UNL     1       7.277   4.171  11.768  0.00  0.00    +0.000 A 
ATOM     17  C   UNL     1       6.148   3.427  12.109  0.00  0.00    +0.000 A 
ATOM     18  C   UNL     1       5.566   3.571  13.371  0.00  0.00    +0.000 A 
ENDBRANCH  12  13
ENDBRANCH   2  11
TORSDOF 3
ENDMDL
MODEL 7
REMARK VINA RESULT:      -6.7      6.085      8.363
REMARK  Name = 
REMARK  3 active torsions:
REMARK  status: ('A' for Active; 'I' for Inactive)
REMARK    1  A    between atoms: N_6  and  N_7
REMARK    2  A    between atoms: C_8  and  C_9
REMARK    3  A    between atoms: C_10  and  C_11
REMARK                            x       y       z     vdW  Elec       q    Type
REMARK                         _______ _______ _______ _____ _____    ______ ____
ROOT
ATOM      1  N   UNL     1       6.522   4.486  16.201  0.00  0.00    +0.000 NA
ATOM      2  C   UNL     1       5.680   5.272  16.789  0.00  0.00    +0.000 C 
ENDROOT
BRANCH   1   8
ATOM      3  O   UNL     1       5.625   2.563  11.928  0.00  0.00    +0.000 OA
ATOM      4  C   UNL     1       6.326   3.456  12.386  0.00  0.00    +0.000 C 
ATOM      5  C   UNL     1       7.225   4.343  11.558  0.00  0.00    +0.000 C 
ATOM      6  S   UNL     1       8.073   5.432  12.742  0.00  0.00    +0.000 S 
ATOM      7  C   UNL     1       7.209   4.774  14.095  0.00  0.00    +0.000 C 
ATOM      8  N   UNL     1       7.346   5.188  15.309  0.00  0.00    +0.000 NA
ATOM      9  N   UNL     1       6.380   3.778  13.707  0.00  0.00    +0.000 N 
ATOM     10  H   UNL     1       5.837   3.303  14.410  0.00  0.00    +0.000 HD
ENDBRANCH   1   8
BRANCH   2  11
ATOM     11  C   UNL     1       4.720   4.737  17.777  0.00  0.00    +0.000 C 
ATOM     12  C   UNL     1       3.409   4.681  17.511  0.00  0.00    +0.000 C 
BRANCH  12  13
ATOM     13  C   UNL     1       2.468   4.191  18.522  0.00  0.00    +0.000 A 
ATOM     14  C   UNL     1       1.696   3.054  18.263  0.00  0.00    +0.000 A 
ATOM     15  C   UNL     1       0.774   2.595  19.206  0.00  0.00    +0.000 A 
ATOM     16  C   UNL     1       0.619   3.271  20.416  0.00  0.00    +0.000 A 
ATOM     17  C   UNL     1       1.385   4.405  20.680  0.00  0.00    +0.000 A 
ATOM     18  C   UNL     1       2.307   4.867  19.737  0.00  0.00    +0.000 A 
ENDBRANCH  12  13
ENDBRANCH   2  11
TORSDOF 3
ENDMDL
MODEL 8
REMARK VINA RESULT:      -6.6      6.667      8.160
REMARK  Name = 
REMARK  3 active torsions:
REMARK  status: ('A' for Active; 'I' for Inactive)
REMARK    1  A    between atoms: N_6  and  N_7
REMARK    2  A    between atoms: C_8  and  C_9
REMARK    3  A    between atoms: C_10  and  C_11
REMARK                            x       y       z     vdW  Elec       q    Type
REMARK                         _______ _______ _______ _____ _____    ______ ____
ROOT
ATOM      1  N   UNL     1       4.515   5.200  18.434  0.00  0.00    +0.000 NA
ATOM      2  C   UNL     1       5.632   4.594  18.190  0.00  0.00    +0.000 C 
ENDROOT
BRANCH   1   8
ATOM      3  O   UNL     1       0.626   2.438  18.330  0.00  0.00    +0.000 OA
ATOM      4  C   UNL     1       1.319   2.988  19.176  0.00  0.00    +0.000 C 
ATOM      5  C   UNL     1       1.084   2.891  20.664  0.00  0.00    +0.000 C 
ATOM      6  S   UNL     1       2.352   3.943  21.435  0.00  0.00    +0.000 S 
ATOM      7  C   UNL     1       3.084   4.325  19.909  0.00  0.00    +0.000 C 
ATOM      8  N   UNL     1       4.135   5.060  19.777  0.00  0.00    +0.000 NA
ATOM      9  N   UNL     1       2.407   3.753  18.887  0.00  0.00    +0.000 N 
ATOM     10  H   UNL     1       2.727   3.919  17.946  0.00  0.00    +0.000 HD
ENDBRANCH   1   8
BRANCH   2  11
ATOM     11  C   UNL     1       6.218   4.622  16.834  0.00  0.00    +0.000 C 
ATOM     12  C   UNL     1       5.474   4.366  15.751  0.00  0.00    +0.000 C 
BRANCH  12  13
ATOM     13  C   UNL     1       6.084   4.351  14.419  0.00  0.00    +0.000 A 
ATOM     14  C   UNL     1       5.554   3.529  13.419  0.00  0.00    +0.000 A 
ATOM     15  C   UNL     1       6.145   3.482  12.155  0.00  0.00    +0.000 A 
ATOM     16  C   UNL     1       7.271   4.259  11.882  0.00  0.00    +0.000 A 
ATOM     17  C   UNL     1       7.804   5.081  12.874  0.00  0.00    +0.000 A 
ATOM     18  C   UNL     1       7.215   5.126  14.140  0.00  0.00    +0.000 A 
ENDBRANCH  12  13
ENDBRANCH   2  11
TORSDOF 3
ENDMDL
MODEL 9
REMARK VINA RESULT:      -6.6      2.603      2.963
REMARK  Name = 
REMARK  3 active torsions:
REMARK  status: ('A' for Active; 'I' for Inactive)
REMARK    1  A    between atoms: N_6  and  N_7
REMARK    2  A    between atoms: C_8  and  C_9
REMARK    3  A    between atoms: C_10  and  C_11
REMARK                            x       y       z     vdW  Elec       q    Type
REMARK                         _______ _______ _______ _____ _____    ______ ____
ROOT
ATOM      1  N   UNL     1       6.518   7.453  16.957  0.00  0.00    +0.000 NA
ATOM      2  C   UNL     1       7.674   7.651  17.502  0.00  0.00    +0.000 C 
ENDROOT
BRANCH   1   8
ATOM      3  O   UNL     1       2.201   6.581  18.791  0.00  0.00    +0.000 OA
ATOM      4  C   UNL     1       3.069   5.958  18.195  0.00  0.00    +0.000 C 
ATOM      5  C   UNL     1       2.959   4.505  17.803  0.00  0.00    +0.000 C 
ATOM      6  S   UNL     1       4.542   4.082  17.013  0.00  0.00    +0.000 S 
ATOM      7  C   UNL     1       5.142   5.704  17.157  0.00  0.00    +0.000 C 
ATOM      8  N   UNL     1       6.290   6.090  16.712  0.00  0.00    +0.000 NA
ATOM      9  N   UNL     1       4.252   6.499  17.792  0.00  0.00    +0.000 N 
ATOM     10  H   UNL     1       4.497   7.463  17.953  0.00  0.00    +0.000 HD
ENDBRANCH   1   8
BRANCH   2  11
ATOM     11  C   UNL     1       8.114   9.018  17.851  0.00  0.00    +0.000 C 
ATOM     12  C   UNL     1       8.931   9.241  18.887  0.00  0.00    +0.000 C 
BRANCH  12  13
ATOM     13  C   UNL     1       9.316  10.608  19.246  0.00  0.00    +0.000 A 
ATOM     14  C   UNL     1       9.514  11.562  18.242  0.00  0.00    +0.000 A 
ATOM     15  C   UNL     1       9.911  12.861  18.568  0.00  0.00    +0.000 A 
ATOM     16  C   UNL     1      10.112  13.214  19.903  0.00  0.00    +0.000 A 
ATOM     17  C   UNL     1       9.916  12.268  20.908  0.00  0.00    +0.000 A 
ATOM     18  C   UNL     1       9.521  10.967  20.582  0.00  0.00    +0.000 A 
ENDBRANCH  12  13
ENDBRANCH   2  11
TORSDOF 3
ENDMDL
