MODEL 1
REMARK VINA RESULT:      -7.8      0.000      0.000
REMARK  Name = 
REMARK  6 active torsions:
REMARK  status: ('A' for Active; 'I' for Inactive)
REMARK    1  A    between atoms: C_2  and  C_3
REMARK    2  A    between atoms: C_3  and  N_4
REMARK    3  A    between atoms: C_5  and  C_7
REMARK    4  A    between atoms: N_14  and  N_15
REMARK    5  A    between atoms: C_16  and  C_17
REMARK    6  A    between atoms: C_20  and  N_21
REMARK                            x       y       z     vdW  Elec       q    Type
REMARK                         _______ _______ _______ _____ _____    ______ ____
ROOT
ATOM      1  O   UNL     1       7.494   5.605  19.940  0.00  0.00    +0.000 OA
ATOM      2  C   UNL     1       7.385   5.715  18.720  0.00  0.00    +0.000 C 
ATOM      3  N   UNL     1       7.764   6.826  17.975  0.00  0.00    +0.000 N 
ATOM      4  H   UNL     1       7.439   6.920  17.014  0.00  0.00    +0.000 HD
ENDROOT
BRANCH   3   5
ATOM      5  N   UNL     1       8.397   7.861  18.603  0.00  0.00    +0.000 NA
ATOM      6  C   UNL     1       8.267   9.034  18.070  0.00  0.00    +0.000 C 
BRANCH   6   7
ATOM      7  C   UNL     1       8.900  10.176  18.691  0.00  0.00    +0.000 A 
ATOM      8  C   UNL     1       9.534  10.250  19.918  0.00  0.00    +0.000 A 
ATOM      9  C   UNL     1      10.014  11.563  20.204  0.00  0.00    +0.000 A 
ATOM     10  C   UNL     1       9.730  12.435  19.176  0.00  0.00    +0.000 A 
ATOM     11  S   UNL     1       8.916  11.685  17.885  0.00  0.00    +0.000 S 
BRANCH  10  12
ATOM     12  N   UNL     1      10.051  13.840  19.131  0.00  0.00    +0.000 N 
ATOM     13  O   UNL     1       9.101  14.617  18.974  0.00  0.00    +0.000 OA
ATOM     14  O   UNL     1      11.238  14.172  19.247  0.00  0.00    +0.000 OA
ENDBRANCH  10  12
ENDBRANCH   6   7
ENDBRANCH   3   5
BRANCH   2  15
ATOM     15  C   UNL     1       6.731   4.623  17.878  0.00  0.00    +0.000 C 
BRANCH  15  16
ATOM     16  N   UNL     1       5.484   4.178  18.470  0.00  0.00    +0.000 N 
ATOM     17  C   UNL     1       4.270   4.569  17.957  0.00  0.00    +0.000 C 
ATOM     18  O   UNL     1       4.189   5.285  16.961  0.00  0.00    +0.000 OA
ATOM     19  H   UNL     1       5.528   3.759  19.393  0.00  0.00    +0.000 HD
BRANCH  17  20
ATOM     20  C   UNL     1       3.037   4.050  18.620  0.00  0.00    +0.000 A 
ATOM     21  C   UNL     1       2.684   2.721  18.316  0.00  0.00    +0.000 A 
ATOM     22  C   UNL     1       1.556   2.127  18.890  0.00  0.00    +0.000 A 
ATOM     23  C   UNL     1       0.763   2.855  19.770  0.00  0.00    +0.000 A 
ATOM     24  C   UNL     1       1.094   4.176  20.073  0.00  0.00    +0.000 A 
ATOM     25  C   UNL     1       2.225   4.778  19.500  0.00  0.00    +0.000 A 
ATOM     26 CL   UNL     1       2.505   6.432  19.914  0.00  0.00    +0.000 Cl
ENDBRANCH  17  20
ENDBRANCH  15  16
ENDBRANCH   2  15
TORSDOF 6
ENDMDL
MODEL 2
REMARK VINA RESULT:      -7.6      1.505      1.676
REMARK  Name = 
REMARK  6 active torsions:
REMARK  status: ('A' for Active; 'I' for Inactive)
REMARK    1  A    between atoms: C_2  and  C_3
REMARK    2  A    between atoms: C_3  and  N_4
REMARK    3  A    between atoms: C_5  and  C_7
REMARK    4  A    between atoms: N_14  and  N_15
REMARK    5  A    between atoms: C_16  and  C_17
REMARK    6  A    between atoms: C_20  and  N_21
REMARK                            x       y       z     vdW  Elec       q    Type
REMARK                         _______ _______ _______ _____ _____    ______ ____
ROOT
ATOM      1  O   UNL     1       7.420   6.488  16.168  0.00  0.00    +0.000 OA
ATOM      2  C   UNL     1       7.585   6.194  17.351  0.00  0.00    +0.000 C 
ATOM      3  N   UNL     1       7.979   7.076  18.351  0.00  0.00    +0.000 N 
ATOM      4  H   UNL     1       8.302   6.708  19.246  0.00  0.00    +0.000 HD
ENDROOT
BRANCH   3   5
ATOM      5  N   UNL     1       8.114   8.402  18.053  0.00  0.00    +0.000 NA
ATOM      6  C   UNL     1       8.868   9.103  18.837  0.00  0.00    +0.000 C 
BRANCH   6   7
ATOM      7  C   UNL     1       9.064  10.511  18.571  0.00  0.00    +0.000 A 
ATOM      8  C   UNL     1       8.372  11.328  17.696  0.00  0.00    +0.000 A 
ATOM      9  C   UNL     1       8.875  12.664  17.685  0.00  0.00    +0.000 A 
ATOM     10  C   UNL     1       9.931  12.808  18.559  0.00  0.00    +0.000 A 
ATOM     11  S   UNL     1      10.297  11.370  19.390  0.00  0.00    +0.000 S 
BRANCH  10  12
ATOM     12  N   UNL     1      10.689  14.011  18.795  0.00  0.00    +0.000 N 
ATOM     13  O   UNL     1      10.449  14.615  19.849  0.00  0.00    +0.000 OA
ATOM     14  O   UNL     1      11.514  14.359  17.941  0.00  0.00    +0.000 OA
ENDBRANCH  10  12
ENDBRANCH   6   7
ENDBRANCH   3   5
BRANCH   2  15
ATOM     15  C   UNL     1       7.434   4.758  17.842  0.00  0.00    +0.000 C 
BRANCH  15  16
ATOM     16  N   UNL     1       6.059   4.465  18.197  0.00  0.00    +0.000 N 
ATOM     17  C   UNL     1       5.167   3.986  17.267  0.00  0.00    +0.000 C 
ATOM     18  O   UNL     1       5.502   3.758  16.107  0.00  0.00    +0.000 OA
ATOM     19  H   UNL     1       5.716   4.829  19.081  0.00  0.00    +0.000 HD
BRANCH  17  20
ATOM     20  C   UNL     1       3.775   3.697  17.725  0.00  0.00    +0.000 A 
ATOM     21  C   UNL     1       3.439   2.336  17.862  0.00  0.00    +0.000 A 
ATOM     22  C   UNL     1       2.168   1.950  18.296  0.00  0.00    +0.000 A 
ATOM     23  C   UNL     1       1.214   2.918  18.594  0.00  0.00    +0.000 A 
ATOM     24  C   UNL     1       1.529   4.269  18.454  0.00  0.00    +0.000 A 
ATOM     25  C   UNL     1       2.803   4.664  18.019  0.00  0.00    +0.000 A 
ATOM     26 CL   UNL     1       3.059   6.363  17.839  0.00  0.00    +0.000 Cl
ENDBRANCH  17  20
ENDBRANCH  15  16
ENDBRANCH   2  15
TORSDOF 6
ENDMDL
MODEL 3
REMARK VINA RESULT:      -7.6      1.704      2.073
REMARK  Name = 
REMARK  6 active torsions:
REMARK  status: ('A' for Active; 'I' for Inactive)
REMARK    1  A    between atoms: C_2  and  C_3
REMARK    2  A    between atoms: C_3  and  N_4
REMARK    3  A    between atoms: C_5  and  C_7
REMARK    4  A    between atoms: N_14  and  N_15
REMARK    5  A    between atoms: C_16  and  C_17
REMARK    6  A    between atoms: C_20  and  N_21
REMARK                            x       y       z     vdW  Elec       q    Type
REMARK                         _______ _______ _______ _____ _____    ______ ____
ROOT
ATOM      1  O   UNL     1       7.437   7.528  16.835  0.00  0.00    +0.000 OA
ATOM      2  C   UNL     1       7.813   7.274  17.978  0.00  0.00    +0.000 C 
ATOM      3  N   UNL     1       8.501   8.148  18.812  0.00  0.00    +0.000 N 
ATOM      4  H   UNL     1       8.962   7.787  19.646  0.00  0.00    +0.000 HD
ENDROOT
BRANCH   3   5
ATOM      5  N   UNL     1       8.712   9.433  18.398  0.00  0.00    +0.000 NA
ATOM      6  C   UNL     1       9.379  10.202  19.198  0.00  0.00    +0.000 C 
BRANCH   6   7
ATOM      7  C   UNL     1       9.649  11.569  18.816  0.00  0.00    +0.000 A 
ATOM      8  C   UNL     1      10.265  12.040  17.670  0.00  0.00    +0.000 A 
ATOM      9  C   UNL     1      10.380  13.462  17.659  0.00  0.00    +0.000 A 
ATOM     10  C   UNL     1       9.841  14.017  18.800  0.00  0.00    +0.000 A 
ATOM     11  S   UNL     1       9.193  12.851  19.854  0.00  0.00    +0.000 S 
BRANCH  10  12
ATOM     12  N   UNL     1       9.798  15.419  19.131  0.00  0.00    +0.000 N 
ATOM     13  O   UNL     1       8.827  16.056  18.702  0.00  0.00    +0.000 OA
ATOM     14  O   UNL     1      10.720  15.889  19.810  0.00  0.00    +0.000 OA
ENDBRANCH  10  12
ENDBRANCH   6   7
ENDBRANCH   3   5
BRANCH   2  15
ATOM     15  C   UNL     1       7.614   5.890  18.591  0.00  0.00    +0.000 C 
BRANCH  15  16
ATOM     16  N   UNL     1       6.213   5.519  18.607  0.00  0.00    +0.000 N 
ATOM     17  C   UNL     1       5.673   4.725  17.622  0.00  0.00    +0.000 C 
ATOM     18  O   UNL     1       6.358   4.275  16.707  0.00  0.00    +0.000 OA
ATOM     19  H   UNL     1       5.600   6.034  19.230  0.00  0.00    +0.000 HD
BRANCH  17  20
ATOM     20  C   UNL     1       4.225   4.379  17.727  0.00  0.00    +0.000 A 
ATOM     21  C   UNL     1       3.914   3.005  17.712  0.00  0.00    +0.000 A 
ATOM     22  C   UNL     1       2.591   2.566  17.818  0.00  0.00    +0.000 A 
ATOM     23  C   UNL     1       1.561   3.493  17.933  0.00  0.00    +0.000 A 
ATOM     24  C   UNL     1       1.852   4.857  17.940  0.00  0.00    +0.000 A 
ATOM     25  C   UNL     1       3.177   5.305  17.834  0.00  0.00    +0.000 A 
ATOM     26 CL   UNL     1       3.408   7.017  17.806  0.00  0.00    +0.000 Cl
ENDBRANCH  17  20
ENDBRANCH  15  16
ENDBRANCH   2  15
TORSDOF 6
ENDMDL
MODEL 4
REMARK VINA RESULT:      -7.5      1.896      2.413
REMARK  Name = 
REMARK  6 active torsions:
REMARK  status: ('A' for Active; 'I' for Inactive)
REMARK    1  A    between atoms: C_2  and  C_3
REMARK    2  A    between atoms: C_3  and  N_4
REMARK    3  A    between atoms: C_5  and  C_7
REMARK    4  A    between atoms: N_14  and  N_15
REMARK    5  A    between atoms: C_16  and  C_17
REMARK    6  A    between atoms: C_20  and  N_21
REMARK                            x       y       z     vdW  Elec       q    Type
REMARK                         _______ _______ _______ _____ _____    ______ ____
ROOT
ATOM      1  O   UNL     1       7.106   7.493  16.941  0.00  0.00    +0.000 OA
ATOM      2  C   UNL     1       7.665   7.155  17.984  0.00  0.00    +0.000 C 
ATOM      3  N   UNL     1       8.488   7.967  18.755  0.00  0.00    +0.000 N 
ATOM      4  H   UNL     1       9.078   7.546  19.472  0.00  0.00    +0.000 HD
ENDROOT
BRANCH   3   5
ATOM      5  N   UNL     1       8.638   9.280  18.410  0.00  0.00    +0.000 NA
ATOM      6  C   UNL     1       9.276  10.035  19.247  0.00  0.00    +0.000 C 
BRANCH   6   7
ATOM      7  C   UNL     1       9.481  11.431  18.937  0.00  0.00    +0.000 A 
ATOM      8  C   UNL     1       9.003  12.156  17.860  0.00  0.00    +0.000 A 
ATOM      9  C   UNL     1       9.444  13.514  17.879  0.00  0.00    +0.000 A 
ATOM     10  C   UNL     1      10.238  13.767  18.976  0.00  0.00    +0.000 A 
ATOM     11  S   UNL     1      10.434  12.404  19.974  0.00  0.00    +0.000 S 
BRANCH  10  12
ATOM     12  N   UNL     1      10.868  15.021  19.306  0.00  0.00    +0.000 N 
ATOM     13  O   UNL     1      12.096  15.075  19.161  0.00  0.00    +0.000 OA
ATOM     14  O   UNL     1      10.152  15.947  19.710  0.00  0.00    +0.000 OA
ENDBRANCH  10  12
ENDBRANCH   6   7
ENDBRANCH   3   5
BRANCH   2  15
ATOM     15  C   UNL     1       7.559   5.728  18.515  0.00  0.00    +0.000 C 
BRANCH  15  16
ATOM     16  N   UNL     1       6.296   5.513  19.194  0.00  0.00    +0.000 N 
ATOM     17  C   UNL     1       5.256   4.858  18.578  0.00  0.00    +0.000 C 
ATOM     18  O   UNL     1       5.361   4.404  17.441  0.00  0.00    +0.000 OA
ATOM     19  H   UNL     1       6.123   6.044  20.041  0.00  0.00    +0.000 HD
BRANCH  17  20
ATOM     20  C   UNL     1       3.998   4.666  19.358  0.00  0.00    +0.000 A 
ATOM     21  C   UNL     1       3.191   5.809  19.523  0.00  0.00    +0.000 A 
ATOM     22  C   UNL     1       1.984   5.743  20.225  0.00  0.00    +0.000 A 
ATOM     23  C   UNL     1       1.570   4.535  20.777  0.00  0.00    +0.000 A 
ATOM     24  C   UNL     1       2.363   3.397  20.631  0.00  0.00    +0.000 A 
ATOM     25  C   UNL     1       3.575   3.457  19.928  0.00  0.00    +0.000 A 
ATOM     26 CL   UNL     1       4.492   1.994  19.855  0.00  0.00    +0.000 Cl
ENDBRANCH  17  20
ENDBRANCH  15  16
ENDBRANCH   2  15
TORSDOF 6
ENDMDL
MODEL 5
REMARK VINA RESULT:      -7.5      1.701      2.033
REMARK  Name = 
REMARK  6 active torsions:
REMARK  status: ('A' for Active; 'I' for Inactive)
REMARK    1  A    between atoms: C_2  and  C_3
REMARK    2  A    between atoms: C_3  and  N_4
REMARK    3  A    between atoms: C_5  and  C_7
REMARK    4  A    between atoms: N_14  and  N_15
REMARK    5  A    between atoms: C_16  and  C_17
REMARK    6  A    between atoms: C_20  and  N_21
REMARK                            x       y       z     vdW  Elec       q    Type
REMARK                         _______ _______ _______ _____ _____    ______ ____
ROOT
ATOM      1  O   UNL     1       7.107   7.993  17.015  0.00  0.00    +0.000 OA
ATOM      2  C   UNL     1       7.728   7.501  17.956  0.00  0.00    +0.000 C 
ATOM      3  N   UNL     1       8.617   8.185  18.777  0.00  0.00    +0.000 N 
ATOM      4  H   UNL     1       9.246   7.659  19.383  0.00  0.00    +0.000 HD
ENDROOT
BRANCH   3   5
ATOM      5  N   UNL     1       8.770   9.533  18.615  0.00  0.00    +0.000 NA
ATOM      6  C   UNL     1       9.374  10.171  19.566  0.00  0.00    +0.000 C 
BRANCH   6   7
ATOM      7  C   UNL     1       9.580  11.597  19.452  0.00  0.00    +0.000 A 
ATOM      8  C   UNL     1      10.185  12.456  20.351  0.00  0.00    +0.000 A 
ATOM      9  C   UNL     1      10.176  13.811  19.900  0.00  0.00    +0.000 A 
ATOM     10  C   UNL     1       9.567  13.924  18.669  0.00  0.00    +0.000 A 
ATOM     11  S   UNL     1       9.032  12.429  18.060  0.00  0.00    +0.000 S 
BRANCH  10  12
ATOM     12  N   UNL     1       9.367  15.141  17.921  0.00  0.00    +0.000 N 
ATOM     13  O   UNL     1       8.195  15.431  17.647  0.00  0.00    +0.000 OA
ATOM     14  O   UNL     1      10.363  15.803  17.605  0.00  0.00    +0.000 OA
ENDBRANCH  10  12
ENDBRANCH   6   7
ENDBRANCH   3   5
BRANCH   2  15
ATOM     15  C   UNL     1       7.630   6.014  18.283  0.00  0.00    +0.000 C 
BRANCH  15  16
ATOM     16  N   UNL     1       6.248   5.590  18.396  0.00  0.00    +0.000 N 
ATOM     17  C   UNL     1       5.639   4.866  17.399  0.00  0.00    +0.000 C 
ATOM     18  O   UNL     1       6.245   4.522  16.387  0.00  0.00    +0.000 OA
ATOM     19  H   UNL     1       5.683   6.026  19.117  0.00  0.00    +0.000 HD
BRANCH  17  20
ATOM     20  C   UNL     1       4.218   4.458  17.607  0.00  0.00    +0.000 A 
ATOM     21  C   UNL     1       3.972   3.072  17.651  0.00  0.00    +0.000 A 
ATOM     22  C   UNL     1       2.681   2.577  17.854  0.00  0.00    +0.000 A 
ATOM     23  C   UNL     1       1.617   3.459  18.010  0.00  0.00    +0.000 A 
ATOM     24  C   UNL     1       1.844   4.834  17.959  0.00  0.00    +0.000 A 
ATOM     25  C   UNL     1       3.137   5.339  17.755  0.00  0.00    +0.000 A 
ATOM     26 CL   UNL     1       3.284   7.058  17.663  0.00  0.00    +0.000 Cl
ENDBRANCH  17  20
ENDBRANCH  15  16
ENDBRANCH   2  15
TORSDOF 6
ENDMDL
MODEL 6
REMARK VINA RESULT:      -7.5      1.447      1.943
REMARK  Name = 
REMARK  6 active torsions:
REMARK  status: ('A' for Active; 'I' for Inactive)
REMARK    1  A    between atoms: C_2  and  C_3
REMARK    2  A    between atoms: C_3  and  N_4
REMARK    3  A    between atoms: C_5  and  C_7
REMARK    4  A    between atoms: N_14  and  N_15
REMARK    5  A    between atoms: C_16  and  C_17
REMARK    6  A    between atoms: C_20  and  N_21
REMARK                            x       y       z     vdW  Elec       q    Type
REMARK                         _______ _______ _______ _____ _____    ______ ____
ROOT
ATOM      1  O   UNL     1       5.791   6.797  15.913  0.00  0.00    +0.000 OA
ATOM      2  C   UNL     1       6.437   6.166  16.748  0.00  0.00    +0.000 C 
ATOM      3  N   UNL     1       7.448   6.690  17.546  0.00  0.00    +0.000 N 
ATOM      4  H   UNL     1       8.072   6.057  18.045  0.00  0.00    +0.000 HD
ENDROOT
BRANCH   3   5
ATOM      5  N   UNL     1       7.711   8.029  17.492  0.00  0.00    +0.000 NA
ATOM      6  C   UNL     1       8.375   8.535  18.481  0.00  0.00    +0.000 C 
BRANCH   6   7
ATOM      7  C   UNL     1       8.698   9.944  18.480  0.00  0.00    +0.000 A 
ATOM      8  C   UNL     1       8.404  10.896  17.522  0.00  0.00    +0.000 A 
ATOM      9  C   UNL     1       8.916  12.185  17.860  0.00  0.00    +0.000 A 
ATOM     10  C   UNL     1       9.577  12.160  19.069  0.00  0.00    +0.000 A 
ATOM     11  S   UNL     1       9.567  10.620  19.791  0.00  0.00    +0.000 S 
BRANCH  10  12
ATOM     12  N   UNL     1      10.231  13.273  19.710  0.00  0.00    +0.000 N 
ATOM     13  O   UNL     1      10.884  13.014  20.729  0.00  0.00    +0.000 OA
ATOM     14  O   UNL     1      10.096  14.398  19.211  0.00  0.00    +0.000 OA
ENDBRANCH  10  12
ENDBRANCH   6   7
ENDBRANCH   3   5
BRANCH   2  15
ATOM     15  C   UNL     1       6.229   4.668  16.949  0.00  0.00    +0.000 C 
BRANCH  15  16
ATOM     16  N   UNL     1       5.017   4.402  17.698  0.00  0.00    +0.000 N 
ATOM     17  C   UNL     1       5.005   4.435  19.072  0.00  0.00    +0.000 C 
ATOM     18  O   UNL     1       6.008   4.720  19.721  0.00  0.00    +0.000 OA
ATOM     19  H   UNL     1       4.242   3.976  17.199  0.00  0.00    +0.000 HD
BRANCH  17  20
ATOM     20  C   UNL     1       3.708   4.163  19.761  0.00  0.00    +0.000 A 
ATOM     21  C   UNL     1       3.585   2.901  20.374  0.00  0.00    +0.000 A 
ATOM     22  C   UNL     1       2.419   2.545  21.058  0.00  0.00    +0.000 A 
ATOM     23  C   UNL     1       1.359   3.441  21.134  0.00  0.00    +0.000 A 
ATOM     24  C   UNL     1       1.462   4.691  20.523  0.00  0.00    +0.000 A 
ATOM     25  C   UNL     1       2.629   5.056  19.835  0.00  0.00    +0.000 A 
ATOM     26 CL   UNL     1       2.620   6.610  19.080  0.00  0.00    +0.000 Cl
ENDBRANCH  17  20
ENDBRANCH  15  16
ENDBRANCH   2  15
TORSDOF 6
ENDMDL
MODEL 7
REMARK VINA RESULT:      -7.5      1.722      2.275
REMARK  Name = 
REMARK  6 active torsions:
REMARK  status: ('A' for Active; 'I' for Inactive)
REMARK    1  A    between atoms: C_2  and  C_3
REMARK    2  A    between atoms: C_3  and  N_4
REMARK    3  A    between atoms: C_5  and  C_7
REMARK    4  A    between atoms: N_14  and  N_15
REMARK    5  A    between atoms: C_16  and  C_17
REMARK    6  A    between atoms: C_20  and  N_21
REMARK                            x       y       z     vdW  Elec       q    Type
REMARK                         _______ _______ _______ _____ _____    ______ ____
ROOT
ATOM      1  O   UNL     1       5.423   7.207  16.311  0.00  0.00    +0.000 OA
ATOM      2  C   UNL     1       6.281   6.406  16.680  0.00  0.00    +0.000 C 
ATOM      3  N   UNL     1       7.556   6.740  17.121  0.00  0.00    +0.000 N 
ATOM      4  H   UNL     1       8.267   6.013  17.196  0.00  0.00    +0.000 HD
ENDROOT
BRANCH   3   5
ATOM      5  N   UNL     1       7.888   8.058  17.257  0.00  0.00    +0.000 NA
ATOM      6  C   UNL     1       8.393   8.419  18.394  0.00  0.00    +0.000 C 
BRANCH   6   7
ATOM      7  C   UNL     1       8.778   9.796  18.600  0.00  0.00    +0.000 A 
ATOM      8  C   UNL     1       9.591  10.327  19.585  0.00  0.00    +0.000 A 
ATOM      9  C   UNL     1       9.719  11.745  19.481  0.00  0.00    +0.000 A 
ATOM     10  C   UNL     1       8.998  12.235  18.413  0.00  0.00    +0.000 A 
ATOM     11  S   UNL     1       8.199  11.011  17.543  0.00  0.00    +0.000 S 
BRANCH  10  12
ATOM     12  N   UNL     1       8.885  13.617  18.018  0.00  0.00    +0.000 N 
ATOM     13  O   UNL     1       9.943  14.256  17.947  0.00  0.00    +0.000 OA
ATOM     14  O   UNL     1       7.757  14.068  17.782  0.00  0.00    +0.000 OA
ENDBRANCH  10  12
ENDBRANCH   6   7
ENDBRANCH   3   5
BRANCH   2  15
ATOM     15  C   UNL     1       6.040   4.900  16.621  0.00  0.00    +0.000 C 
BRANCH  15  16
ATOM     16  N   UNL     1       4.826   4.534  17.323  0.00  0.00    +0.000 N 
ATOM     17  C   UNL     1       4.844   4.203  18.657  0.00  0.00    +0.000 C 
ATOM     18  O   UNL     1       5.880   4.232  19.317  0.00  0.00    +0.000 OA
ATOM     19  H   UNL     1       4.009   4.314  16.762  0.00  0.00    +0.000 HD
BRANCH  17  20
ATOM     20  C   UNL     1       3.543   3.855  19.303  0.00  0.00    +0.000 A 
ATOM     21  C   UNL     1       2.911   4.889  20.020  0.00  0.00    +0.000 A 
ATOM     22  C   UNL     1       1.683   4.678  20.654  0.00  0.00    +0.000 A 
ATOM     23  C   UNL     1       1.073   3.431  20.585  0.00  0.00    +0.000 A 
ATOM     24  C   UNL     1       1.692   2.394  19.886  0.00  0.00    +0.000 A 
ATOM     25  C   UNL     1       2.924   2.598  19.248  0.00  0.00    +0.000 A 
ATOM     26 CL   UNL     1       3.613   1.226  18.456  0.00  0.00    +0.000 Cl
ENDBRANCH  17  20
ENDBRANCH  15  16
ENDBRANCH   2  15
TORSDOF 6
ENDMDL
MODEL 8
REMARK VINA RESULT:      -7.4      1.747      2.194
REMARK  Name = 
REMARK  6 active torsions:
REMARK  status: ('A' for Active; 'I' for Inactive)
REMARK    1  A    between atoms: C_2  and  C_3
REMARK    2  A    between atoms: C_3  and  N_4
REMARK    3  A    between atoms: C_5  and  C_7
REMARK    4  A    between atoms: N_14  and  N_15
REMARK    5  A    between atoms: C_16  and  C_17
REMARK    6  A    between atoms: C_20  and  N_21
REMARK                            x       y       z     vdW  Elec       q    Type
REMARK                         _______ _______ _______ _____ _____    ______ ____
ROOT
ATOM      1  O   UNL     1       6.781   6.447  15.998  0.00  0.00    +0.000 OA
ATOM      2  C   UNL     1       7.184   6.039  17.087  0.00  0.00    +0.000 C 
ATOM      3  N   UNL     1       7.809   6.816  18.055  0.00  0.00    +0.000 N 
ATOM      4  H   UNL     1       8.302   6.361  18.823  0.00  0.00    +0.000 HD
ENDROOT
BRANCH   3   5
ATOM      5  N   UNL     1       7.919   8.163  17.857  0.00  0.00    +0.000 NA
ATOM      6  C   UNL     1       8.658   8.818  18.694  0.00  0.00    +0.000 C 
BRANCH   6   7
ATOM      7  C   UNL     1       8.828  10.245  18.534  0.00  0.00    +0.000 A 
ATOM      8  C   UNL     1       8.269  11.079  17.583  0.00  0.00    +0.000 A 
ATOM      9  C   UNL     1       8.697  12.433  17.728  0.00  0.00    +0.000 A 
ATOM     10  C   UNL     1       9.563  12.574  18.790  0.00  0.00    +0.000 A 
ATOM     11  S   UNL     1       9.843  11.109  19.608  0.00  0.00    +0.000 S 
BRANCH  10  12
ATOM     12  N   UNL     1      10.202  13.793  19.218  0.00  0.00    +0.000 N 
ATOM     13  O   UNL     1      11.247  13.666  19.871  0.00  0.00    +0.000 OA
ATOM     14  O   UNL     1       9.673  14.869  18.914  0.00  0.00    +0.000 OA
ENDBRANCH  10  12
ENDBRANCH   6   7
ENDBRANCH   3   5
BRANCH   2  15
ATOM     15  C   UNL     1       7.095   4.564  17.466  0.00  0.00    +0.000 C 
BRANCH  15  16
ATOM     16  N   UNL     1       6.020   4.327  18.410  0.00  0.00    +0.000 N 
ATOM     17  C   UNL     1       4.712   4.240  17.996  0.00  0.00    +0.000 C 
ATOM     18  O   UNL     1       4.401   4.329  16.811  0.00  0.00    +0.000 OA
ATOM     19  H   UNL     1       6.228   4.448  19.396  0.00  0.00    +0.000 HD
BRANCH  17  20
ATOM     20  C   UNL     1       3.672   3.978  19.035  0.00  0.00    +0.000 A 
ATOM     21  C   UNL     1       3.234   5.098  19.769  0.00  0.00    +0.000 A 
ATOM     22  C   UNL     1       2.254   4.972  20.757  0.00  0.00    +0.000 A 
ATOM     23  C   UNL     1       1.704   3.724  21.031  0.00  0.00    +0.000 A 
ATOM     24  C   UNL     1       2.135   2.604  20.320  0.00  0.00    +0.000 A 
ATOM     25  C   UNL     1       3.117   2.724  19.326  0.00  0.00    +0.000 A 
ATOM     26 CL   UNL     1       3.603   1.259  18.549  0.00  0.00    +0.000 Cl
ENDBRANCH  17  20
ENDBRANCH  15  16
ENDBRANCH   2  15
TORSDOF 6
ENDMDL
MODEL 9
REMARK VINA RESULT:      -7.3      1.671      1.949
REMARK  Name = 
REMARK  6 active torsions:
REMARK  status: ('A' for Active; 'I' for Inactive)
REMARK    1  A    between atoms: C_2  and  C_3
REMARK    2  A    between atoms: C_3  and  N_4
REMARK    3  A    between atoms: C_5  and  C_7
REMARK    4  A    between atoms: N_14  and  N_15
REMARK    5  A    between atoms: C_16  and  C_17
REMARK    6  A    between atoms: C_20  and  N_21
REMARK                            x       y       z     vdW  Elec       q    Type
REMARK                         _______ _______ _______ _____ _____    ______ ____
ROOT
ATOM      1  O   UNL     1       7.362   7.295  17.062  0.00  0.00    +0.000 OA
ATOM      2  C   UNL     1       7.852   7.047  18.162  0.00  0.00    +0.000 C 
ATOM      3  N   UNL     1       8.572   7.944  18.943  0.00  0.00    +0.000 N 
ATOM      4  H   UNL     1       9.122   7.597  19.728  0.00  0.00    +0.000 HD
ENDROOT
BRANCH   3   5
ATOM      5  N   UNL     1       8.686   9.241  18.530  0.00  0.00    +0.000 NA
ATOM      6  C   UNL     1       9.317  10.052  19.319  0.00  0.00    +0.000 C 
BRANCH   6   7
ATOM      7  C   UNL     1       9.485  11.435  18.936  0.00  0.00    +0.000 A 
ATOM      8  C   UNL     1       9.852  11.952  17.707  0.00  0.00    +0.000 A 
ATOM      9  C   UNL     1       9.943  13.377  17.720  0.00  0.00    +0.000 A 
ATOM     10  C   UNL     1       9.636  13.886  18.963  0.00  0.00    +0.000 A 
ATOM     11  S   UNL     1       9.229  12.676  20.087  0.00  0.00    +0.000 S 
BRANCH  10  12
ATOM     12  N   UNL     1       9.641  15.277  19.344  0.00  0.00    +0.000 N 
ATOM     13  O   UNL     1       8.994  15.571  20.358  0.00  0.00    +0.000 OA
ATOM     14  O   UNL     1      10.277  16.073  18.642  0.00  0.00    +0.000 OA
ENDBRANCH  10  12
ENDBRANCH   6   7
ENDBRANCH   3   5
BRANCH   2  15
ATOM     15  C   UNL     1       7.772   5.650  18.771  0.00  0.00    +0.000 C 
BRANCH  15  16
ATOM     16  N   UNL     1       6.461   5.398  19.337  0.00  0.00    +0.000 N 
ATOM     17  C   UNL     1       5.505   4.698  18.640  0.00  0.00    +0.000 C 
ATOM     18  O   UNL     1       5.728   4.233  17.525  0.00  0.00    +0.000 OA
ATOM     19  H   UNL     1       6.194   5.934  20.156  0.00  0.00    +0.000 HD
BRANCH  17  20
ATOM     20  C   UNL     1       4.188   4.471  19.307  0.00  0.00    +0.000 A 
ATOM     21  C   UNL     1       4.020   3.221  19.934  0.00  0.00    +0.000 A 
ATOM     22  C   UNL     1       2.833   2.905  20.600  0.00  0.00    +0.000 A 
ATOM     23  C   UNL     1       1.795   3.830  20.643  0.00  0.00    +0.000 A 
ATOM     24  C   UNL     1       1.943   5.068  20.017  0.00  0.00    +0.000 A 
ATOM     25  C   UNL     1       3.132   5.392  19.347  0.00  0.00    +0.000 A 
ATOM     26 CL   UNL     1       3.179   6.935  18.571  0.00  0.00    +0.000 Cl
ENDBRANCH  17  20
ENDBRANCH  15  16
ENDBRANCH   2  15
TORSDOF 6
ENDMDL
