MODEL 1
REMARK VINA RESULT:      -7.9      0.000      0.000
REMARK  Name = 
REMARK  2 active torsions:
REMARK  status: ('A' for Active; 'I' for Inactive)
REMARK    1  A    between atoms: C_2  and  C_3
REMARK    2  A    between atoms: N_9  and  C_10
REMARK                            x       y       z     vdW  Elec       q    Type
REMARK                         _______ _______ _______ _____ _____    ______ ____
ROOT
ATOM      1  O   UNL     1       4.693   3.656  15.920  0.00  0.00    +0.000 OA
ATOM      2  C   UNL     1       4.885   4.583  16.707  0.00  0.00    +0.000 C 
ATOM      3  N   UNL     1       3.974   5.021  17.645  0.00  0.00    +0.000 N 
ATOM      4  C   UNL     1       3.757   6.370  18.064  0.00  0.00    +0.000 A 
ATOM      5  O   UNL     1       4.344   7.360  17.644  0.00  0.00    +0.000 OA
ATOM      6  N   UNL     1       2.741   6.332  19.044  0.00  0.00    +0.000 N 
ATOM      7  C   UNL     1       2.272   5.003  19.146  0.00  0.00    +0.000 A 
ATOM      8  N   UNL     1       1.258   4.540  19.899  0.00  0.00    +0.000 NA
ATOM      9  C   UNL     1       0.963   3.229  19.747  0.00  0.00    +0.000 A 
ATOM     10  C   UNL     1       1.636   2.379  18.874  0.00  0.00    +0.000 A 
ATOM     11  C   UNL     1       2.681   2.886  18.097  0.00  0.00    +0.000 A 
ATOM     12  C   UNL     1       2.995   4.223  18.254  0.00  0.00    +0.000 A 
ENDROOT
BRANCH   6  13
ATOM     13  C   UNL     1       1.944   7.399  19.501  0.00  0.00    +0.000 A 
ATOM     14  C   UNL     1       1.649   7.519  20.879  0.00  0.00    +0.000 A 
ATOM     15  C   UNL     1       1.182   8.728  21.408  0.00  0.00    +0.000 A 
ATOM     16  C   UNL     1       1.007   9.776  20.535  0.00  0.00    +0.000 A 
ATOM     17  C   UNL     1       1.172   9.622  19.178  0.00  0.00    +0.000 A 
ATOM     18  C   UNL     1       1.596   8.438  18.628  0.00  0.00    +0.000 A 
ATOM     19  O   UNL     1       0.987  10.786  18.498  0.00  0.00    +0.000 OA
ATOM     20  C   UNL     1       1.008  11.710  19.602  0.00  0.00    +0.000 C 
ATOM     21  O   UNL     1       0.739  11.068  20.868  0.00  0.00    +0.000 OA
ENDBRANCH   6  13
BRANCH   2  22
ATOM     22  C   UNL     1       6.201   5.291  16.733  0.00  0.00    +0.000 C 
ATOM     23  C   UNL     1       7.384   4.627  17.394  0.00  0.00    +0.000 C 
ATOM     24  C   UNL     1       7.377   4.847  15.907  0.00  0.00    +0.000 C 
ENDBRANCH   2  22
TORSDOF 2
ENDMDL
MODEL 2
REMARK VINA RESULT:      -7.6      0.989      1.594
REMARK  Name = 
REMARK  2 active torsions:
REMARK  status: ('A' for Active; 'I' for Inactive)
REMARK    1  A    between atoms: C_2  and  C_3
REMARK    2  A    between atoms: N_9  and  C_10
REMARK                            x       y       z     vdW  Elec       q    Type
REMARK                         _______ _______ _______ _____ _____    ______ ____
ROOT
ATOM      1  O   UNL     1       4.383   3.389  16.312  0.00  0.00    +0.000 OA
ATOM      2  C   UNL     1       4.688   4.479  16.795  0.00  0.00    +0.000 C 
ATOM      3  N   UNL     1       3.913   5.191  17.686  0.00  0.00    +0.000 N 
ATOM      4  C   UNL     1       3.771   6.610  17.755  0.00  0.00    +0.000 A 
ATOM      5  O   UNL     1       4.313   7.428  17.020  0.00  0.00    +0.000 OA
ATOM      6  N   UNL     1       2.889   6.879  18.826  0.00  0.00    +0.000 N 
ATOM      7  C   UNL     1       2.419   5.647  19.332  0.00  0.00    +0.000 A 
ATOM      8  N   UNL     1       1.504   5.446  20.297  0.00  0.00    +0.000 NA
ATOM      9  C   UNL     1       1.173   4.157  20.536  0.00  0.00    +0.000 A 
ATOM     10  C   UNL     1       1.715   3.076  19.846  0.00  0.00    +0.000 A 
ATOM     11  C   UNL     1       2.659   3.312  18.841  0.00  0.00    +0.000 A 
ATOM     12  C   UNL     1       3.009   4.627  18.599  0.00  0.00    +0.000 A 
ENDROOT
BRANCH   6  13
ATOM     13  C   UNL     1       2.173   8.066  19.076  0.00  0.00    +0.000 A 
ATOM     14  C   UNL     1       1.582   8.772  18.003  0.00  0.00    +0.000 A 
ATOM     15  C   UNL     1       0.585   9.726  18.238  0.00  0.00    +0.000 A 
ATOM     16  C   UNL     1       0.223   9.956  19.545  0.00  0.00    +0.000 A 
ATOM     17  C   UNL     1       0.886   9.362  20.593  0.00  0.00    +0.000 A 
ATOM     18  C   UNL     1       1.891   8.449  20.394  0.00  0.00    +0.000 A 
ATOM     19  O   UNL     1       0.351   9.694  21.800  0.00  0.00    +0.000 OA
ATOM     20  C   UNL     1      -0.885  10.285  21.355  0.00  0.00    +0.000 C 
ATOM     21  O   UNL     1      -0.835  10.697  19.972  0.00  0.00    +0.000 OA
ENDBRANCH   6  13
BRANCH   2  22
ATOM     22  C   UNL     1       6.007   5.106  16.473  0.00  0.00    +0.000 C 
ATOM     23  C   UNL     1       7.265   4.533  17.080  0.00  0.00    +0.000 C 
ATOM     24  C   UNL     1       7.031   4.436  15.599  0.00  0.00    +0.000 C 
ENDBRANCH   2  22
TORSDOF 2
ENDMDL
MODEL 3
REMARK VINA RESULT:      -7.5      1.743      6.492
REMARK  Name = 
REMARK  2 active torsions:
REMARK  status: ('A' for Active; 'I' for Inactive)
REMARK    1  A    between atoms: C_2  and  C_3
REMARK    2  A    between atoms: N_9  and  C_10
REMARK                            x       y       z     vdW  Elec       q    Type
REMARK                         _______ _______ _______ _____ _____    ______ ____
ROOT
ATOM      1  O   UNL     1       0.976   8.773  21.134  0.00  0.00    +0.000 OA
ATOM      2  C   UNL     1       1.206   8.736  19.926  0.00  0.00    +0.000 C 
ATOM      3  N   UNL     1       2.015   7.807  19.306  0.00  0.00    +0.000 N 
ATOM      4  C   UNL     1       2.880   8.030  18.192  0.00  0.00    +0.000 A 
ATOM      5  O   UNL     1       3.050   9.096  17.612  0.00  0.00    +0.000 OA
ATOM      6  N   UNL     1       3.495   6.792  17.900  0.00  0.00    +0.000 N 
ATOM      7  C   UNL     1       3.095   5.857  18.880  0.00  0.00    +0.000 A 
ATOM      8  N   UNL     1       3.508   4.585  19.025  0.00  0.00    +0.000 NA
ATOM      9  C   UNL     1       3.026   3.928  20.104  0.00  0.00    +0.000 A 
ATOM     10  C   UNL     1       2.161   4.497  21.035  0.00  0.00    +0.000 A 
ATOM     11  C   UNL     1       1.753   5.823  20.867  0.00  0.00    +0.000 A 
ATOM     12  C   UNL     1       2.235   6.498  19.760  0.00  0.00    +0.000 A 
ENDROOT
BRANCH   6  13
ATOM     13  C   UNL     1       4.658   6.566  17.139  0.00  0.00    +0.000 A 
ATOM     14  C   UNL     1       5.931   6.688  17.743  0.00  0.00    +0.000 A 
ATOM     15  C   UNL     1       7.065   6.133  17.139  0.00  0.00    +0.000 A 
ATOM     16  C   UNL     1       6.891   5.486  15.938  0.00  0.00    +0.000 A 
ATOM     17  C   UNL     1       5.678   5.478  15.291  0.00  0.00    +0.000 A 
ATOM     18  C   UNL     1       4.556   6.044  15.843  0.00  0.00    +0.000 A 
ATOM     19  O   UNL     1       5.710   4.755  14.138  0.00  0.00    +0.000 OA
ATOM     20  C   UNL     1       6.966   4.074  14.323  0.00  0.00    +0.000 C 
ATOM     21  O   UNL     1       7.817   4.732  15.286  0.00  0.00    +0.000 OA
ENDBRANCH   6  13
BRANCH   2  22
ATOM     22  C   UNL     1       0.550   9.709  19.001  0.00  0.00    +0.000 C 
ATOM     23  C   UNL     1      -0.815  10.254  19.349  0.00  0.00    +0.000 C 
ATOM     24  C   UNL     1       0.380  11.165  19.343  0.00  0.00    +0.000 C 
ENDBRANCH   2  22
TORSDOF 2
ENDMDL
MODEL 4
REMARK VINA RESULT:      -7.2      2.935      7.022
REMARK  Name = 
REMARK  2 active torsions:
REMARK  status: ('A' for Active; 'I' for Inactive)
REMARK    1  A    between atoms: C_2  and  C_3
REMARK    2  A    between atoms: N_9  and  C_10
REMARK                            x       y       z     vdW  Elec       q    Type
REMARK                         _______ _______ _______ _____ _____    ______ ____
ROOT
ATOM      1  O   UNL     1       0.742   4.304  19.562  0.00  0.00    +0.000 OA
ATOM      2  C   UNL     1       1.847   3.791  19.393  0.00  0.00    +0.000 C 
ATOM      3  N   UNL     1       2.824   4.282  18.554  0.00  0.00    +0.000 N 
ATOM      4  C   UNL     1       3.741   3.520  17.767  0.00  0.00    +0.000 A 
ATOM      5  O   UNL     1       3.797   2.297  17.705  0.00  0.00    +0.000 OA
ATOM      6  N   UNL     1       4.556   4.447  17.081  0.00  0.00    +0.000 N 
ATOM      7  C   UNL     1       4.080   5.748  17.360  0.00  0.00    +0.000 A 
ATOM      8  N   UNL     1       4.515   6.914  16.850  0.00  0.00    +0.000 NA
ATOM      9  C   UNL     1       3.826   8.015  17.226  0.00  0.00    +0.000 A 
ATOM     10  C   UNL     1       2.726   7.987  18.079  0.00  0.00    +0.000 A 
ATOM     11  C   UNL     1       2.288   6.762  18.589  0.00  0.00    +0.000 A 
ATOM     12  C   UNL     1       2.995   5.633  18.217  0.00  0.00    +0.000 A 
ENDROOT
BRANCH   6  13
ATOM     13  C   UNL     1       5.358   4.216  15.946  0.00  0.00    +0.000 A 
ATOM     14  C   UNL     1       4.816   3.549  14.824  0.00  0.00    +0.000 A 
ATOM     15  C   UNL     1       5.446   3.620  13.576  0.00  0.00    +0.000 A 
ATOM     16  C   UNL     1       6.612   4.345  13.496  0.00  0.00    +0.000 A 
ATOM     17  C   UNL     1       7.204   4.887  14.612  0.00  0.00    +0.000 A 
ATOM     18  C   UNL     1       6.627   4.803  15.854  0.00  0.00    +0.000 A 
ATOM     19  O   UNL     1       8.328   5.594  14.311  0.00  0.00    +0.000 OA
ATOM     20  C   UNL     1       8.172   5.687  12.882  0.00  0.00    +0.000 C 
ATOM     21  O   UNL     1       7.274   4.686  12.356  0.00  0.00    +0.000 OA
ENDBRANCH   6  13
BRANCH   2  22
ATOM     22  C   UNL     1       2.240   2.573  20.166  0.00  0.00    +0.000 C 
ATOM     23  C   UNL     1       3.126   2.722  21.380  0.00  0.00    +0.000 C 
ATOM     24  C   UNL     1       1.700   2.274  21.538  0.00  0.00    +0.000 C 
ENDBRANCH   2  22
TORSDOF 2
ENDMDL
MODEL 5
REMARK VINA RESULT:      -7.1      1.634      6.409
REMARK  Name = 
REMARK  2 active torsions:
REMARK  status: ('A' for Active; 'I' for Inactive)
REMARK    1  A    between atoms: C_2  and  C_3
REMARK    2  A    between atoms: N_9  and  C_10
REMARK                            x       y       z     vdW  Elec       q    Type
REMARK                         _______ _______ _______ _____ _____    ______ ____
ROOT
ATOM      1  O   UNL     1       1.692   8.373  21.000  0.00  0.00    +0.000 OA
ATOM      2  C   UNL     1       1.852   8.186  19.794  0.00  0.00    +0.000 C 
ATOM      3  N   UNL     1       2.349   7.027  19.236  0.00  0.00    +0.000 N 
ATOM      4  C   UNL     1       3.194   6.921  18.090  0.00  0.00    +0.000 A 
ATOM      5  O   UNL     1       3.625   7.854  17.421  0.00  0.00    +0.000 OA
ATOM      6  N   UNL     1       3.433   5.544  17.887  0.00  0.00    +0.000 N 
ATOM      7  C   UNL     1       2.834   4.829  18.948  0.00  0.00    +0.000 A 
ATOM      8  N   UNL     1       2.888   3.506  19.187  0.00  0.00    +0.000 NA
ATOM      9  C   UNL     1       2.290   3.089  20.326  0.00  0.00    +0.000 A 
ATOM     10  C   UNL     1       1.655   3.940  21.225  0.00  0.00    +0.000 A 
ATOM     11  C   UNL     1       1.620   5.312  20.958  0.00  0.00    +0.000 A 
ATOM     12  C   UNL     1       2.220   5.745  19.790  0.00  0.00    +0.000 A 
ENDROOT
BRANCH   6  13
ATOM     13  C   UNL     1       4.457   4.950  17.123  0.00  0.00    +0.000 A 
ATOM     14  C   UNL     1       4.210   3.739  16.435  0.00  0.00    +0.000 A 
ATOM     15  C   UNL     1       5.057   3.319  15.402  0.00  0.00    +0.000 A 
ATOM     16  C   UNL     1       6.136   4.117  15.103  0.00  0.00    +0.000 A 
ATOM     17  C   UNL     1       6.445   5.226  15.855  0.00  0.00    +0.000 A 
ATOM     18  C   UNL     1       5.653   5.642  16.895  0.00  0.00    +0.000 A 
ATOM     19  O   UNL     1       7.528   5.895  15.372  0.00  0.00    +0.000 OA
ATOM     20  C   UNL     1       7.639   5.262  14.083  0.00  0.00    +0.000 C 
ATOM     21  O   UNL     1       6.965   3.986  14.032  0.00  0.00    +0.000 OA
ENDBRANCH   6  13
BRANCH   2  22
ATOM     22  C   UNL     1       1.450   9.233  18.807  0.00  0.00    +0.000 C 
ATOM     23  C   UNL     1       0.003   9.660  18.731  0.00  0.00    +0.000 C 
ATOM     24  C   UNL     1       1.047  10.624  19.218  0.00  0.00    +0.000 C 
ENDBRANCH   2  22
TORSDOF 2
ENDMDL
MODEL 6
REMARK VINA RESULT:      -6.8      1.771      3.916
REMARK  Name = 
REMARK  2 active torsions:
REMARK  status: ('A' for Active; 'I' for Inactive)
REMARK    1  A    between atoms: C_2  and  C_3
REMARK    2  A    between atoms: N_9  and  C_10
REMARK                            x       y       z     vdW  Elec       q    Type
REMARK                         _______ _______ _______ _____ _____    ______ ____
ROOT
ATOM      1  O   UNL     1       4.339   2.591  20.037  0.00  0.00    +0.000 OA
ATOM      2  C   UNL     1       3.292   3.180  19.769  0.00  0.00    +0.000 C 
ATOM      3  N   UNL     1       3.215   4.462  19.268  0.00  0.00    +0.000 N 
ATOM      4  C   UNL     1       2.221   5.442  19.569  0.00  0.00    +0.000 A 
ATOM      5  O   UNL     1       1.275   5.300  20.336  0.00  0.00    +0.000 OA
ATOM      6  N   UNL     1       2.544   6.594  18.818  0.00  0.00    +0.000 N 
ATOM      7  C   UNL     1       3.769   6.360  18.153  0.00  0.00    +0.000 A 
ATOM      8  N   UNL     1       4.476   7.220  17.399  0.00  0.00    +0.000 NA
ATOM      9  C   UNL     1       5.665   6.763  16.943  0.00  0.00    +0.000 A 
ATOM     10  C   UNL     1       6.166   5.494  17.220  0.00  0.00    +0.000 A 
ATOM     11  C   UNL     1       5.415   4.622  18.014  0.00  0.00    +0.000 A 
ATOM     12  C   UNL     1       4.194   5.078  18.475  0.00  0.00    +0.000 A 
ENDROOT
BRANCH   6  13
ATOM     13  C   UNL     1       2.091   7.911  19.021  0.00  0.00    +0.000 A 
ATOM     14  C   UNL     1       1.791   8.733  17.910  0.00  0.00    +0.000 A 
ATOM     15  C   UNL     1       1.014   9.887  18.063  0.00  0.00    +0.000 A 
ATOM     16  C   UNL     1       0.576  10.193  19.331  0.00  0.00    +0.000 A 
ATOM     17  C   UNL     1       0.973   9.464  20.428  0.00  0.00    +0.000 A 
ATOM     18  C   UNL     1       1.763   8.348  20.311  0.00  0.00    +0.000 A 
ATOM     19  O   UNL     1       0.401   9.908  21.580  0.00  0.00    +0.000 OA
ATOM     20  C   UNL     1      -0.616  10.763  21.023  0.00  0.00    +0.000 C 
ATOM     21  O   UNL     1      -0.328  11.154  19.663  0.00  0.00    +0.000 OA
ENDBRANCH   6  13
BRANCH   2  22
ATOM     22  C   UNL     1       1.975   2.489  19.926  0.00  0.00    +0.000 C 
ATOM     23  C   UNL     1       1.035   2.415  18.747  0.00  0.00    +0.000 C 
ATOM     24  C   UNL     1       1.672   1.164  19.281  0.00  0.00    +0.000 C 
ENDBRANCH   2  22
TORSDOF 2
ENDMDL
MODEL 7
REMARK VINA RESULT:      -6.8      3.590      5.617
REMARK  Name = 
REMARK  2 active torsions:
REMARK  status: ('A' for Active; 'I' for Inactive)
REMARK    1  A    between atoms: C_2  and  C_3
REMARK    2  A    between atoms: N_9  and  C_10
REMARK                            x       y       z     vdW  Elec       q    Type
REMARK                         _______ _______ _______ _____ _____    ______ ____
ROOT
ATOM      1  O   UNL     1       7.138   5.580  14.238  0.00  0.00    +0.000 OA
ATOM      2  C   UNL     1       6.351   4.656  14.444  0.00  0.00    +0.000 C 
ATOM      3  N   UNL     1       5.480   4.587  15.510  0.00  0.00    +0.000 N 
ATOM      4  C   UNL     1       5.091   3.413  16.224  0.00  0.00    +0.000 A 
ATOM      5  O   UNL     1       5.482   2.272  16.007  0.00  0.00    +0.000 OA
ATOM      6  N   UNL     1       4.179   3.826  17.221  0.00  0.00    +0.000 N 
ATOM      7  C   UNL     1       4.094   5.236  17.186  0.00  0.00    +0.000 A 
ATOM      8  N   UNL     1       3.405   6.042  18.013  0.00  0.00    +0.000 NA
ATOM      9  C   UNL     1       3.560   7.370  17.806  0.00  0.00    +0.000 A 
ATOM     10  C   UNL     1       4.378   7.910  16.817  0.00  0.00    +0.000 A 
ATOM     11  C   UNL     1       5.090   7.050  15.976  0.00  0.00    +0.000 A 
ATOM     12  C   UNL     1       4.928   5.692  16.175  0.00  0.00    +0.000 A 
ENDROOT
BRANCH   6  13
ATOM     13  C   UNL     1       3.787   3.123  18.376  0.00  0.00    +0.000 A 
ATOM     14  C   UNL     1       4.762   2.705  19.312  0.00  0.00    +0.000 A 
ATOM     15  C   UNL     1       4.393   2.337  20.612  0.00  0.00    +0.000 A 
ATOM     16  C   UNL     1       3.056   2.382  20.928  0.00  0.00    +0.000 A 
ATOM     17  C   UNL     1       2.099   2.665  19.982  0.00  0.00    +0.000 A 
ATOM     18  C   UNL     1       2.428   2.996  18.692  0.00  0.00    +0.000 A 
ATOM     19  O   UNL     1       0.843   2.694  20.507  0.00  0.00    +0.000 OA
ATOM     20  C   UNL     1       1.175   2.715  21.909  0.00  0.00    +0.000 C 
ATOM     21  O   UNL     1       2.514   2.241  22.169  0.00  0.00    +0.000 OA
ENDBRANCH   6  13
BRANCH   2  22
ATOM     22  C   UNL     1       6.247   3.522  13.475  0.00  0.00    +0.000 C 
ATOM     23  C   UNL     1       5.189   3.566  12.399  0.00  0.00    +0.000 C 
ATOM     24  C   UNL     1       6.643   3.652  12.030  0.00  0.00    +0.000 C 
ENDBRANCH   2  22
TORSDOF 2
ENDMDL
MODEL 8
REMARK VINA RESULT:      -6.6      4.178      6.957
REMARK  Name = 
REMARK  2 active torsions:
REMARK  status: ('A' for Active; 'I' for Inactive)
REMARK    1  A    between atoms: C_2  and  C_3
REMARK    2  A    between atoms: N_9  and  C_10
REMARK                            x       y       z     vdW  Elec       q    Type
REMARK                         _______ _______ _______ _____ _____    ______ ____
ROOT
ATOM      1  O   UNL     1       1.762   8.866  18.026  0.00  0.00    +0.000 OA
ATOM      2  C   UNL     1       1.429   8.886  19.210  0.00  0.00    +0.000 C 
ATOM      3  N   UNL     1       0.499   9.748  19.752  0.00  0.00    +0.000 N 
ATOM      4  C   UNL     1       0.537  10.343  21.050  0.00  0.00    +0.000 A 
ATOM      5  O   UNL     1       1.414  10.189  21.891  0.00  0.00    +0.000 OA
ATOM      6  N   UNL     1      -0.626  11.139  21.166  0.00  0.00    +0.000 N 
ATOM      7  C   UNL     1      -1.305  11.114  19.927  0.00  0.00    +0.000 A 
ATOM      8  N   UNL     1      -2.409  11.797  19.578  0.00  0.00    +0.000 NA
ATOM      9  C   UNL     1      -2.809  11.653  18.294  0.00  0.00    +0.000 A 
ATOM     10  C   UNL     1      -2.144  10.865  17.358  0.00  0.00    +0.000 A 
ATOM     11  C   UNL     1      -0.993  10.172  17.744  0.00  0.00    +0.000 A 
ATOM     12  C   UNL     1      -0.585  10.306  19.059  0.00  0.00    +0.000 A 
ENDROOT
BRANCH   6  13
ATOM     13  C   UNL     1      -0.873  12.174  22.088  0.00  0.00    +0.000 A 
ATOM     14  C   UNL     1      -0.190  13.406  21.965  0.00  0.00    +0.000 A 
ATOM     15  C   UNL     1      -0.659  14.552  22.618  0.00  0.00    +0.000 A 
ATOM     16  C   UNL     1      -1.791  14.424  23.389  0.00  0.00    +0.000 A 
ATOM     17  C   UNL     1      -2.379  13.200  23.610  0.00  0.00    +0.000 A 
ATOM     18  C   UNL     1      -1.921  12.055  23.011  0.00  0.00    +0.000 A 
ATOM     19  O   UNL     1      -3.505  13.296  24.370  0.00  0.00    +0.000 OA
ATOM     20  C   UNL     1      -3.705  14.722  24.315  0.00  0.00    +0.000 C 
ATOM     21  O   UNL     1      -2.504  15.437  23.952  0.00  0.00    +0.000 OA
ENDBRANCH   6  13
BRANCH   2  22
ATOM     22  C   UNL     1       1.999   7.895  20.173  0.00  0.00    +0.000 C 
ATOM     23  C   UNL     1       1.186   6.679  20.549  0.00  0.00    +0.000 C 
ATOM     24  C   UNL     1       2.449   6.522  19.752  0.00  0.00    +0.000 C 
ENDBRANCH   2  22
TORSDOF 2
ENDMDL
MODEL 9
REMARK VINA RESULT:      -6.6      4.176      8.811
REMARK  Name = 
REMARK  2 active torsions:
REMARK  status: ('A' for Active; 'I' for Inactive)
REMARK    1  A    between atoms: C_2  and  C_3
REMARK    2  A    between atoms: N_9  and  C_10
REMARK                            x       y       z     vdW  Elec       q    Type
REMARK                         _______ _______ _______ _____ _____    ______ ____
ROOT
ATOM      1  O   UNL     1      -4.740  12.963  20.283  0.00  0.00    +0.000 OA
ATOM      2  C   UNL     1      -3.522  13.078  20.409  0.00  0.00    +0.000 C 
ATOM      3  N   UNL     1      -2.589  12.233  19.846  0.00  0.00    +0.000 N 
ATOM      4  C   UNL     1      -1.348  11.821  20.421  0.00  0.00    +0.000 A 
ATOM      5  O   UNL     1      -0.917  12.149  21.521  0.00  0.00    +0.000 OA
ATOM      6  N   UNL     1      -0.727  10.969  19.481  0.00  0.00    +0.000 N 
ATOM      7  C   UNL     1      -1.617  10.778  18.400  0.00  0.00    +0.000 A 
ATOM      8  N   UNL     1      -1.457   9.979  17.331  0.00  0.00    +0.000 NA
ATOM      9  C   UNL     1      -2.505   9.921  16.477  0.00  0.00    +0.000 A 
ATOM     10  C   UNL     1      -3.694  10.621  16.661  0.00  0.00    +0.000 A 
ATOM     11  C   UNL     1      -3.838  11.439  17.785  0.00  0.00    +0.000 A 
ATOM     12  C   UNL     1      -2.767  11.512  18.656  0.00  0.00    +0.000 A 
ENDROOT
BRANCH   6  13
ATOM     13  C   UNL     1       0.317  10.051  19.707  0.00  0.00    +0.000 A 
ATOM     14  C   UNL     1       0.331   9.276  20.889  0.00  0.00    +0.000 A 
ATOM     15  C   UNL     1       1.126   8.127  20.982  0.00  0.00    +0.000 A 
ATOM     16  C   UNL     1       1.897   7.800  19.891  0.00  0.00    +0.000 A 
ATOM     17  C   UNL     1       1.979   8.623  18.792  0.00  0.00    +0.000 A 
ATOM     18  C   UNL     1       1.238   9.773  18.688  0.00  0.00    +0.000 A 
ATOM     19  O   UNL     1       2.766   8.101  17.811  0.00  0.00    +0.000 OA
ATOM     20  C   UNL     1       2.887   6.752  18.300  0.00  0.00    +0.000 C 
ATOM     21  O   UNL     1       2.591   6.644  19.710  0.00  0.00    +0.000 OA
ENDBRANCH   6  13
BRANCH   2  22
ATOM     22  C   UNL     1      -2.946  14.227  21.171  0.00  0.00    +0.000 C 
ATOM     23  C   UNL     1      -3.429  15.627  20.875  0.00  0.00    +0.000 C 
ATOM     24  C   UNL     1      -3.731  14.991  22.203  0.00  0.00    +0.000 C 
ENDBRANCH   2  22
TORSDOF 2
ENDMDL
