MODEL 1
REMARK VINA RESULT:      -7.4      0.000      0.000
REMARK  Name = 
REMARK  6 active torsions:
REMARK  status: ('A' for Active; 'I' for Inactive)
REMARK    1  A    between atoms: C_2  and  C_3
REMARK    2  A    between atoms: C_3  and  N_4
REMARK    3  A    between atoms: C_5  and  C_6
REMARK    4  A    between atoms: N_15  and  N_16
REMARK    5  A    between atoms: C_17  and  C_18
REMARK    6  A    between atoms: C_19  and  C_20
REMARK                            x       y       z     vdW  Elec       q    Type
REMARK                         _______ _______ _______ _____ _____    ______ ____
ROOT
ATOM      1  N   UNL     1       5.355   5.362  17.309  0.00  0.00    +0.000 N 
ATOM      2  C   UNL     1       4.896   4.699  18.453  0.00  0.00    +0.000 A 
ATOM      3  C   UNL     1       5.622   4.908  19.565  0.00  0.00    +0.000 A 
ATOM      4  S   UNL     1       6.960   5.973  19.265  0.00  0.00    +0.000 S 
ATOM      5  C   UNL     1       6.486   6.147  17.532  0.00  0.00    +0.000 A 
ATOM      6  N   UNL     1       7.110   6.907  16.678  0.00  0.00    +0.000 NA
ENDROOT
BRANCH   2   7
ATOM      7  C   UNL     1       3.705   3.847  18.470  0.00  0.00    +0.000 A 
ATOM      8  C   UNL     1       3.806   2.479  18.182  0.00  0.00    +0.000 A 
ATOM      9  C   UNL     1       2.658   1.683  18.126  0.00  0.00    +0.000 A 
ATOM     10  C   UNL     1       1.406   2.245  18.373  0.00  0.00    +0.000 A 
ATOM     11  C   UNL     1       1.298   3.601  18.681  0.00  0.00    +0.000 A 
ATOM     12  C   UNL     1       2.443   4.401  18.717  0.00  0.00    +0.000 A 
ENDBRANCH   2   7
BRANCH   6  13
ATOM     13  N   UNL     1       8.199   7.579  17.222  0.00  0.00    +0.000 NA
ATOM     14  C   UNL     1       7.870   8.692  17.784  0.00  0.00    +0.000 C 
BRANCH  14  15
ATOM     15  C   UNL     1       8.919   9.523  18.399  0.00  0.00    +0.000 C 
ATOM     16  C   UNL     1       9.078  10.806  18.057  0.00  0.00    +0.000 C 
BRANCH  16  17
ATOM     17  C   UNL     1      10.096  11.604  18.659  0.00  0.00    +0.000 A 
ATOM     18  C   UNL     1      10.454  11.757  19.991  0.00  0.00    +0.000 A 
ATOM     19  C   UNL     1      11.521  12.678  20.189  0.00  0.00    +0.000 A 
ATOM     20  C   UNL     1      11.966  13.205  19.003  0.00  0.00    +0.000 A 
ATOM     21  S   UNL     1      11.110  12.580  17.661  0.00  0.00    +0.000 S 
ENDBRANCH  16  17
ENDBRANCH  14  15
ENDBRANCH   6  13
BRANCH   1  22
ATOM     22  C   UNL     1       4.718   5.344  16.003  0.00  0.00    +0.000 C 
BRANCH  22  24
ATOM     23  C   UNL     1       5.694   4.293  13.936  0.00  0.00    +0.000 C 
ATOM     24  C   UNL     1       5.228   4.188  15.186  0.00  0.00    +0.000 C 
ENDBRANCH  22  24
ENDBRANCH   1  22
TORSDOF 6
ENDMDL
MODEL 2
REMARK VINA RESULT:      -7.4      0.318      1.034
REMARK  Name = 
REMARK  6 active torsions:
REMARK  status: ('A' for Active; 'I' for Inactive)
REMARK    1  A    between atoms: C_2  and  C_3
REMARK    2  A    between atoms: C_3  and  N_4
REMARK    3  A    between atoms: C_5  and  C_6
REMARK    4  A    between atoms: N_15  and  N_16
REMARK    5  A    between atoms: C_17  and  C_18
REMARK    6  A    between atoms: C_19  and  C_20
REMARK                            x       y       z     vdW  Elec       q    Type
REMARK                         _______ _______ _______ _____ _____    ______ ____
ROOT
ATOM      1  N   UNL     1       5.448   5.417  17.128  0.00  0.00    +0.000 N 
ATOM      2  C   UNL     1       4.911   4.774  18.250  0.00  0.00    +0.000 A 
ATOM      3  C   UNL     1       5.540   5.027  19.411  0.00  0.00    +0.000 A 
ATOM      4  S   UNL     1       6.877   6.114  19.190  0.00  0.00    +0.000 S 
ATOM      5  C   UNL     1       6.541   6.233  17.420  0.00  0.00    +0.000 A 
ATOM      6  N   UNL     1       7.217   6.983  16.599  0.00  0.00    +0.000 NA
ENDROOT
BRANCH   2   7
ATOM      7  C   UNL     1       3.739   3.896  18.194  0.00  0.00    +0.000 A 
ATOM      8  C   UNL     1       2.450   4.423  18.344  0.00  0.00    +0.000 A 
ATOM      9  C   UNL     1       1.339   3.575  18.364  0.00  0.00    +0.000 A 
ATOM     10  C   UNL     1       1.508   2.199  18.217  0.00  0.00    +0.000 A 
ATOM     11  C   UNL     1       2.786   1.667  18.046  0.00  0.00    +0.000 A 
ATOM     12  C   UNL     1       3.899   2.513  18.046  0.00  0.00    +0.000 A 
ENDBRANCH   2   7
BRANCH   6  13
ATOM     13  N   UNL     1       8.245   7.693  17.209  0.00  0.00    +0.000 NA
ATOM     14  C   UNL     1       7.838   8.780  17.770  0.00  0.00    +0.000 C 
BRANCH  14  15
ATOM     15  C   UNL     1       8.814   9.646  18.452  0.00  0.00    +0.000 C 
ATOM     16  C   UNL     1       9.184  10.821  17.931  0.00  0.00    +0.000 C 
BRANCH  16  17
ATOM     17  C   UNL     1      10.130  11.654  18.599  0.00  0.00    +0.000 A 
ATOM     18  C   UNL     1      10.839  11.451  19.775  0.00  0.00    +0.000 A 
ATOM     19  C   UNL     1      11.678  12.546  20.128  0.00  0.00    +0.000 A 
ATOM     20  C   UNL     1      11.601  13.562  19.208  0.00  0.00    +0.000 A 
ATOM     21  S   UNL     1      10.536  13.188  17.924  0.00  0.00    +0.000 S 
ENDBRANCH  16  17
ENDBRANCH  14  15
ENDBRANCH   6  13
BRANCH   1  22
ATOM     22  C   UNL     1       4.920   5.351  15.776  0.00  0.00    +0.000 C 
BRANCH  22  24
ATOM     23  C   UNL     1       5.659   4.158  13.687  0.00  0.00    +0.000 C 
ATOM     24  C   UNL     1       5.552   4.213  15.021  0.00  0.00    +0.000 C 
ENDBRANCH  22  24
ENDBRANCH   1  22
TORSDOF 6
ENDMDL
MODEL 3
REMARK VINA RESULT:      -7.1      1.833      2.620
REMARK  Name = 
REMARK  6 active torsions:
REMARK  status: ('A' for Active; 'I' for Inactive)
REMARK    1  A    between atoms: C_2  and  C_3
REMARK    2  A    between atoms: C_3  and  N_4
REMARK    3  A    between atoms: C_5  and  C_6
REMARK    4  A    between atoms: N_15  and  N_16
REMARK    5  A    between atoms: C_17  and  C_18
REMARK    6  A    between atoms: C_19  and  C_20
REMARK                            x       y       z     vdW  Elec       q    Type
REMARK                         _______ _______ _______ _____ _____    ______ ____
ROOT
ATOM      1  N   UNL     1       4.566   5.207  18.142  0.00  0.00    +0.000 N 
ATOM      2  C   UNL     1       3.215   5.517  18.338  0.00  0.00    +0.000 A 
ATOM      3  C   UNL     1       2.879   6.795  18.095  0.00  0.00    +0.000 A 
ATOM      4  S   UNL     1       4.252   7.731  17.588  0.00  0.00    +0.000 S 
ATOM      5  C   UNL     1       5.330   6.289  17.704  0.00  0.00    +0.000 A 
ATOM      6  N   UNL     1       6.596   6.298  17.398  0.00  0.00    +0.000 NA
ENDROOT
BRANCH   2   7
ATOM      7  C   UNL     1       2.215   4.534  18.762  0.00  0.00    +0.000 A 
ATOM      8  C   UNL     1       1.681   4.576  20.056  0.00  0.00    +0.000 A 
ATOM      9  C   UNL     1       0.782   3.593  20.482  0.00  0.00    +0.000 A 
ATOM     10  C   UNL     1       0.399   2.574  19.611  0.00  0.00    +0.000 A 
ATOM     11  C   UNL     1       0.910   2.535  18.314  0.00  0.00    +0.000 A 
ATOM     12  C   UNL     1       1.823   3.506  17.895  0.00  0.00    +0.000 A 
ENDBRANCH   2   7
BRANCH   6  13
ATOM     13  N   UNL     1       7.058   7.539  16.975  0.00  0.00    +0.000 NA
ATOM     14  C   UNL     1       7.783   8.132  17.862  0.00  0.00    +0.000 C 
BRANCH  14  15
ATOM     15  C   UNL     1       8.339   9.463  17.562  0.00  0.00    +0.000 C 
ATOM     16  C   UNL     1       9.021  10.154  18.482  0.00  0.00    +0.000 C 
BRANCH  16  17
ATOM     17  C   UNL     1       9.557  11.441  18.183  0.00  0.00    +0.000 A 
ATOM     18  C   UNL     1       8.920  12.635  17.873  0.00  0.00    +0.000 A 
ATOM     19  C   UNL     1       9.820  13.706  17.609  0.00  0.00    +0.000 A 
ATOM     20  C   UNL     1      11.129  13.313  17.733  0.00  0.00    +0.000 A 
ATOM     21  S   UNL     1      11.268  11.668  18.177  0.00  0.00    +0.000 S 
ENDBRANCH  16  17
ENDBRANCH  14  15
ENDBRANCH   6  13
BRANCH   1  22
ATOM     22  C   UNL     1       5.166   3.891  18.284  0.00  0.00    +0.000 C 
BRANCH  22  24
ATOM     23  C   UNL     1       4.546   2.192  20.033  0.00  0.00    +0.000 C 
ATOM     24  C   UNL     1       5.021   3.398  19.698  0.00  0.00    +0.000 C 
ENDBRANCH  22  24
ENDBRANCH   1  22
TORSDOF 6
ENDMDL
MODEL 4
REMARK VINA RESULT:      -7.1      6.789      8.682
REMARK  Name = 
REMARK  6 active torsions:
REMARK  status: ('A' for Active; 'I' for Inactive)
REMARK    1  A    between atoms: C_2  and  C_3
REMARK    2  A    between atoms: C_3  and  N_4
REMARK    3  A    between atoms: C_5  and  C_6
REMARK    4  A    between atoms: N_15  and  N_16
REMARK    5  A    between atoms: C_17  and  C_18
REMARK    6  A    between atoms: C_19  and  C_20
REMARK                            x       y       z     vdW  Elec       q    Type
REMARK                         _______ _______ _______ _____ _____    ______ ____
ROOT
ATOM      1  N   UNL     1       2.323   6.806  19.639  0.00  0.00    +0.000 N 
ATOM      2  C   UNL     1       2.828   7.081  18.363  0.00  0.00    +0.000 A 
ATOM      3  C   UNL     1       2.476   8.273  17.852  0.00  0.00    +0.000 A 
ATOM      4  S   UNL     1       1.466   9.165  18.948  0.00  0.00    +0.000 S 
ATOM      5  C   UNL     1       1.549   7.838  20.169  0.00  0.00    +0.000 A 
ATOM      6  N   UNL     1       0.985   7.890  21.342  0.00  0.00    +0.000 NA
ENDROOT
BRANCH   2   7
ATOM      7  C   UNL     1       3.695   6.161  17.623  0.00  0.00    +0.000 A 
ATOM      8  C   UNL     1       3.320   4.824  17.439  0.00  0.00    +0.000 A 
ATOM      9  C   UNL     1       4.182   3.931  16.796  0.00  0.00    +0.000 A 
ATOM     10  C   UNL     1       5.416   4.372  16.320  0.00  0.00    +0.000 A 
ATOM     11  C   UNL     1       5.789   5.706  16.480  0.00  0.00    +0.000 A 
ATOM     12  C   UNL     1       4.936   6.595  17.139  0.00  0.00    +0.000 A 
ENDBRANCH   2   7
BRANCH   6  13
ATOM     13  N   UNL     1       0.294   9.073  21.576  0.00  0.00    +0.000 NA
ATOM     14  C   UNL     1      -0.163   9.156  22.780  0.00  0.00    +0.000 C 
BRANCH  14  15
ATOM     15  C   UNL     1      -0.926  10.351  23.177  0.00  0.00    +0.000 C 
ATOM     16  C   UNL     1      -0.703  11.540  22.607  0.00  0.00    +0.000 C 
BRANCH  16  17
ATOM     17  C   UNL     1      -1.447  12.692  22.998  0.00  0.00    +0.000 A 
ATOM     18  C   UNL     1      -1.042  14.004  23.198  0.00  0.00    +0.000 A 
ATOM     19  C   UNL     1      -2.096  14.866  23.615  0.00  0.00    +0.000 A 
ATOM     20  C   UNL     1      -3.290  14.197  23.716  0.00  0.00    +0.000 A 
ATOM     21  S   UNL     1      -3.140  12.547  23.297  0.00  0.00    +0.000 S 
ENDBRANCH  16  17
ENDBRANCH  14  15
ENDBRANCH   6  13
BRANCH   1  22
ATOM     22  C   UNL     1       2.601   5.616  20.426  0.00  0.00    +0.000 C 
BRANCH  22  24
ATOM     23  C   UNL     1       1.378   3.418  20.461  0.00  0.00    +0.000 C 
ATOM     24  C   UNL     1       1.372   4.755  20.529  0.00  0.00    +0.000 C 
ENDBRANCH  22  24
ENDBRANCH   1  22
TORSDOF 6
ENDMDL
MODEL 5
REMARK VINA RESULT:      -7.0      6.771      8.751
REMARK  Name = 
REMARK  6 active torsions:
REMARK  status: ('A' for Active; 'I' for Inactive)
REMARK    1  A    between atoms: C_2  and  C_3
REMARK    2  A    between atoms: C_3  and  N_4
REMARK    3  A    between atoms: C_5  and  C_6
REMARK    4  A    between atoms: N_15  and  N_16
REMARK    5  A    between atoms: C_17  and  C_18
REMARK    6  A    between atoms: C_19  and  C_20
REMARK                            x       y       z     vdW  Elec       q    Type
REMARK                         _______ _______ _______ _____ _____    ______ ____
ROOT
ATOM      1  N   UNL     1       2.252   6.842  19.763  0.00  0.00    +0.000 N 
ATOM      2  C   UNL     1       2.745   7.071  18.473  0.00  0.00    +0.000 A 
ATOM      3  C   UNL     1       2.420   8.261  17.939  0.00  0.00    +0.000 A 
ATOM      4  S   UNL     1       1.455   9.209  19.029  0.00  0.00    +0.000 S 
ATOM      5  C   UNL     1       1.518   7.910  20.280  0.00  0.00    +0.000 A 
ATOM      6  N   UNL     1       0.975   8.007  21.460  0.00  0.00    +0.000 NA
ENDROOT
BRANCH   2   7
ATOM      7  C   UNL     1       3.572   6.108  17.742  0.00  0.00    +0.000 A 
ATOM      8  C   UNL     1       4.772   6.514  17.143  0.00  0.00    +0.000 A 
ATOM      9  C   UNL     1       5.522   5.611  16.384  0.00  0.00    +0.000 A 
ATOM     10  C   UNL     1       5.087   4.295  16.234  0.00  0.00    +0.000 A 
ATOM     11  C   UNL     1       3.905   3.877  16.843  0.00  0.00    +0.000 A 
ATOM     12  C   UNL     1       3.144   4.784  17.586  0.00  0.00    +0.000 A 
ENDBRANCH   2   7
BRANCH   6  13
ATOM     13  N   UNL     1       0.323   9.215  21.676  0.00  0.00    +0.000 NA
ATOM     14  C   UNL     1      -0.234   9.282  22.837  0.00  0.00    +0.000 C 
BRANCH  14  15
ATOM     15  C   UNL     1      -0.972  10.501  23.210  0.00  0.00    +0.000 C 
ATOM     16  C   UNL     1      -1.152  11.499  22.337  0.00  0.00    +0.000 C 
BRANCH  16  17
ATOM     17  C   UNL     1      -1.869  12.675  22.706  0.00  0.00    +0.000 A 
ATOM     18  C   UNL     1      -3.230  12.888  22.873  0.00  0.00    +0.000 A 
ATOM     19  C   UNL     1      -3.556  14.228  23.226  0.00  0.00    +0.000 A 
ATOM     20  C   UNL     1      -2.435  15.013  23.332  0.00  0.00    +0.000 A 
ATOM     21  S   UNL     1      -1.002  14.133  23.021  0.00  0.00    +0.000 S 
ENDBRANCH  16  17
ENDBRANCH  14  15
ENDBRANCH   6  13
BRANCH   1  22
ATOM     22  C   UNL     1       2.507   5.664  20.575  0.00  0.00    +0.000 C 
BRANCH  22  24
ATOM     23  C   UNL     1       1.341   3.445  20.787  0.00  0.00    +0.000 C 
ATOM     24  C   UNL     1       1.298   4.769  20.596  0.00  0.00    +0.000 C 
ENDBRANCH  22  24
ENDBRANCH   1  22
TORSDOF 6
ENDMDL
MODEL 6
REMARK VINA RESULT:      -6.9      8.096     10.577
REMARK  Name = 
REMARK  6 active torsions:
REMARK  status: ('A' for Active; 'I' for Inactive)
REMARK    1  A    between atoms: C_2  and  C_3
REMARK    2  A    between atoms: C_3  and  N_4
REMARK    3  A    between atoms: C_5  and  C_6
REMARK    4  A    between atoms: N_15  and  N_16
REMARK    5  A    between atoms: C_17  and  C_18
REMARK    6  A    between atoms: C_19  and  C_20
REMARK                            x       y       z     vdW  Elec       q    Type
REMARK                         _______ _______ _______ _____ _____    ______ ____
ROOT
ATOM      1  N   UNL     1      -0.761  11.474  21.135  0.00  0.00    +0.000 N 
ATOM      2  C   UNL     1      -1.048  11.365  22.500  0.00  0.00    +0.000 A 
ATOM      3  C   UNL     1      -0.500  10.304  23.117  0.00  0.00    +0.000 A 
ATOM      4  S   UNL     1       0.439   9.339  22.019  0.00  0.00    +0.000 S 
ATOM      5  C   UNL     1       0.069  10.461  20.654  0.00  0.00    +0.000 A 
ATOM      6  N   UNL     1       0.538  10.321  19.447  0.00  0.00    +0.000 NA
ENDROOT
BRANCH   2   7
ATOM      7  C   UNL     1      -1.868  12.333  23.233  0.00  0.00    +0.000 A 
ATOM      8  C   UNL     1      -3.200  12.037  23.551  0.00  0.00    +0.000 A 
ATOM      9  C   UNL     1      -4.003  12.991  24.185  0.00  0.00    +0.000 A 
ATOM     10  C   UNL     1      -3.474  14.237  24.519  0.00  0.00    +0.000 A 
ATOM     11  C   UNL     1      -2.144  14.532  24.225  0.00  0.00    +0.000 A 
ATOM     12  C   UNL     1      -1.346  13.587  23.573  0.00  0.00    +0.000 A 
ENDBRANCH   2   7
BRANCH   6  13
ATOM     13  N   UNL     1       1.357   9.208  19.294  0.00  0.00    +0.000 NA
ATOM     14  C   UNL     1       1.767   9.052  18.081  0.00  0.00    +0.000 C 
BRANCH  14  15
ATOM     15  C   UNL     1       2.638   7.909  17.758  0.00  0.00    +0.000 C 
ATOM     16  C   UNL     1       2.379   6.684  18.229  0.00  0.00    +0.000 C 
BRANCH  16  17
ATOM     17  C   UNL     1       3.228   5.583  17.911  0.00  0.00    +0.000 A 
ATOM     18  C   UNL     1       4.582   5.544  17.609  0.00  0.00    +0.000 A 
ATOM     19  C   UNL     1       5.061   4.235  17.319  0.00  0.00    +0.000 A 
ATOM     20  C   UNL     1       4.066   3.295  17.417  0.00  0.00    +0.000 A 
ATOM     21  S   UNL     1       2.569   3.989  17.867  0.00  0.00    +0.000 S 
ENDBRANCH  16  17
ENDBRANCH  14  15
ENDBRANCH   6  13
BRANCH   1  22
ATOM     22  C   UNL     1      -1.185  12.554  20.260  0.00  0.00    +0.000 C 
BRANCH  22  24
ATOM     23  C   UNL     1      -3.687  12.653  20.015  0.00  0.00    +0.000 C 
ATOM     24  C   UNL     1      -2.494  12.212  19.600  0.00  0.00    +0.000 C 
ENDBRANCH  22  24
ENDBRANCH   1  22
TORSDOF 6
ENDMDL
MODEL 7
REMARK VINA RESULT:      -6.9      7.126      9.023
REMARK  Name = 
REMARK  6 active torsions:
REMARK  status: ('A' for Active; 'I' for Inactive)
REMARK    1  A    between atoms: C_2  and  C_3
REMARK    2  A    between atoms: C_3  and  N_4
REMARK    3  A    between atoms: C_5  and  C_6
REMARK    4  A    between atoms: N_15  and  N_16
REMARK    5  A    between atoms: C_17  and  C_18
REMARK    6  A    between atoms: C_19  and  C_20
REMARK                            x       y       z     vdW  Elec       q    Type
REMARK                         _______ _______ _______ _____ _____    ______ ____
ROOT
ATOM      1  N   UNL     1       2.207   6.936  19.774  0.00  0.00    +0.000 N 
ATOM      2  C   UNL     1       2.763   6.952  18.490  0.00  0.00    +0.000 A 
ATOM      3  C   UNL     1       2.574   8.089  17.798  0.00  0.00    +0.000 A 
ATOM      4  S   UNL     1       1.671   9.254  18.717  0.00  0.00    +0.000 S 
ATOM      5  C   UNL     1       1.563   8.125  20.121  0.00  0.00    +0.000 A 
ATOM      6  N   UNL     1       0.992   8.421  21.253  0.00  0.00    +0.000 NA
ENDROOT
BRANCH   2   7
ATOM      7  C   UNL     1       3.517   5.831  17.922  0.00  0.00    +0.000 A 
ATOM      8  C   UNL     1       4.893   5.947  17.689  0.00  0.00    +0.000 A 
ATOM      9  C   UNL     1       5.596   4.903  17.080  0.00  0.00    +0.000 A 
ATOM     10  C   UNL     1       4.931   3.733  16.715  0.00  0.00    +0.000 A 
ATOM     11  C   UNL     1       3.565   3.601  16.962  0.00  0.00    +0.000 A 
ATOM     12  C   UNL     1       2.858   4.652  17.554  0.00  0.00    +0.000 A 
ENDBRANCH   2   7
BRANCH   6  13
ATOM     13  N   UNL     1       0.455   9.702  21.287  0.00  0.00    +0.000 NA
ATOM     14  C   UNL     1      -0.114   9.976  22.412  0.00  0.00    +0.000 C 
BRANCH  14  15
ATOM     15  C   UNL     1      -0.739  11.296  22.599  0.00  0.00    +0.000 C 
ATOM     16  C   UNL     1      -1.893  11.431  23.262  0.00  0.00    +0.000 C 
BRANCH  16  17
ATOM     17  C   UNL     1      -2.491  12.714  23.438  0.00  0.00    +0.000 A 
ATOM     18  C   UNL     1      -1.943  13.986  23.345  0.00  0.00    +0.000 A 
ATOM     19  C   UNL     1      -2.876  15.026  23.621  0.00  0.00    +0.000 A 
ATOM     20  C   UNL     1      -4.122  14.529  23.910  0.00  0.00    +0.000 A 
ATOM     21  S   UNL     1      -4.167  12.822  23.834  0.00  0.00    +0.000 S 
ENDBRANCH  16  17
ENDBRANCH  14  15
ENDBRANCH   6  13
BRANCH   1  22
ATOM     22  C   UNL     1       2.318   5.852  20.736  0.00  0.00    +0.000 C 
BRANCH  22  24
ATOM     23  C   UNL     1       1.288   3.558  20.812  0.00  0.00    +0.000 C 
ATOM     24  C   UNL     1       1.196   4.867  20.549  0.00  0.00    +0.000 C 
ENDBRANCH  22  24
ENDBRANCH   1  22
TORSDOF 6
ENDMDL
MODEL 8
REMARK VINA RESULT:      -6.9      8.157     10.451
REMARK  Name = 
REMARK  6 active torsions:
REMARK  status: ('A' for Active; 'I' for Inactive)
REMARK    1  A    between atoms: C_2  and  C_3
REMARK    2  A    between atoms: C_3  and  N_4
REMARK    3  A    between atoms: C_5  and  C_6
REMARK    4  A    between atoms: N_15  and  N_16
REMARK    5  A    between atoms: C_17  and  C_18
REMARK    6  A    between atoms: C_19  and  C_20
REMARK                            x       y       z     vdW  Elec       q    Type
REMARK                         _______ _______ _______ _____ _____    ______ ____
ROOT
ATOM      1  N   UNL     1      -1.055  11.602  20.940  0.00  0.00    +0.000 N 
ATOM      2  C   UNL     1      -1.193  11.522  22.330  0.00  0.00    +0.000 A 
ATOM      3  C   UNL     1      -0.589  10.469  22.907  0.00  0.00    +0.000 A 
ATOM      4  S   UNL     1       0.220   9.475  21.734  0.00  0.00    +0.000 S 
ATOM      5  C   UNL     1      -0.288  10.572  20.393  0.00  0.00    +0.000 A 
ATOM      6  N   UNL     1       0.047  10.403  19.146  0.00  0.00    +0.000 NA
ENDROOT
BRANCH   2   7
ATOM      7  C   UNL     1      -1.924  12.512  23.126  0.00  0.00    +0.000 A 
ATOM      8  C   UNL     1      -1.312  13.716  23.497  0.00  0.00    +0.000 A 
ATOM      9  C   UNL     1      -1.985  14.626  24.319  0.00  0.00    +0.000 A 
ATOM     10  C   UNL     1      -3.277  14.344  24.760  0.00  0.00    +0.000 A 
ATOM     11  C   UNL     1      -3.901  13.157  24.379  0.00  0.00    +0.000 A 
ATOM     12  C   UNL     1      -3.222  12.238  23.574  0.00  0.00    +0.000 A 
ENDBRANCH   2   7
BRANCH   6  13
ATOM     13  N   UNL     1       0.838   9.281  18.929  0.00  0.00    +0.000 NA
ATOM     14  C   UNL     1       1.764   9.483  18.055  0.00  0.00    +0.000 C 
BRANCH  14  15
ATOM     15  C   UNL     1       2.680   8.382  17.711  0.00  0.00    +0.000 C 
ATOM     16  C   UNL     1       2.507   7.153  18.210  0.00  0.00    +0.000 C 
BRANCH  16  17
ATOM     17  C   UNL     1       3.397   6.092  17.871  0.00  0.00    +0.000 A 
ATOM     18  C   UNL     1       3.247   4.717  17.982  0.00  0.00    +0.000 A 
ATOM     19  C   UNL     1       4.391   3.985  17.554  0.00  0.00    +0.000 A 
ATOM     20  C   UNL     1       5.391   4.815  17.113  0.00  0.00    +0.000 A 
ATOM     21  S   UNL     1       4.945   6.463  17.204  0.00  0.00    +0.000 S 
ENDBRANCH  16  17
ENDBRANCH  14  15
ENDBRANCH   6  13
BRANCH   1  22
ATOM     22  C   UNL     1      -1.564  12.668  20.093  0.00  0.00    +0.000 C 
BRANCH  22  24
ATOM     23  C   UNL     1      -3.404  11.764  18.634  0.00  0.00    +0.000 C 
ATOM     24  C   UNL     1      -3.003  12.411  19.735  0.00  0.00    +0.000 C 
ENDBRANCH  22  24
ENDBRANCH   1  22
TORSDOF 6
ENDMDL
MODEL 9
REMARK VINA RESULT:      -6.9      1.917      2.539
REMARK  Name = 
REMARK  6 active torsions:
REMARK  status: ('A' for Active; 'I' for Inactive)
REMARK    1  A    between atoms: C_2  and  C_3
REMARK    2  A    between atoms: C_3  and  N_4
REMARK    3  A    between atoms: C_5  and  C_6
REMARK    4  A    between atoms: N_15  and  N_16
REMARK    5  A    between atoms: C_17  and  C_18
REMARK    6  A    between atoms: C_19  and  C_20
REMARK                            x       y       z     vdW  Elec       q    Type
REMARK                         _______ _______ _______ _____ _____    ______ ____
ROOT
ATOM      1  N   UNL     1       4.658   5.204  18.196  0.00  0.00    +0.000 N 
ATOM      2  C   UNL     1       3.297   5.484  18.358  0.00  0.00    +0.000 A 
ATOM      3  C   UNL     1       2.934   6.747  18.075  0.00  0.00    +0.000 A 
ATOM      4  S   UNL     1       4.293   7.705  17.572  0.00  0.00    +0.000 S 
ATOM      5  C   UNL     1       5.404   6.293  17.746  0.00  0.00    +0.000 A 
ATOM      6  N   UNL     1       6.676   6.327  17.465  0.00  0.00    +0.000 NA
ENDROOT
BRANCH   2   7
ATOM      7  C   UNL     1       2.312   4.487  18.786  0.00  0.00    +0.000 A 
ATOM      8  C   UNL     1       1.887   3.485  17.904  0.00  0.00    +0.000 A 
ATOM      9  C   UNL     1       0.894   2.579  18.290  0.00  0.00    +0.000 A 
ATOM     10  C   UNL     1       0.333   2.660  19.563  0.00  0.00    +0.000 A 
ATOM     11  C   UNL     1       0.765   3.641  20.455  0.00  0.00    +0.000 A 
ATOM     12  C   UNL     1       1.743   4.559  20.063  0.00  0.00    +0.000 A 
ENDBRANCH   2   7
BRANCH   6  13
ATOM     13  N   UNL     1       7.115   7.568  17.020  0.00  0.00    +0.000 NA
ATOM     14  C   UNL     1       7.859   8.174  17.882  0.00  0.00    +0.000 C 
BRANCH  14  15
ATOM     15  C   UNL     1       8.396   9.506  17.556  0.00  0.00    +0.000 C 
ATOM     16  C   UNL     1       9.189  10.163  18.410  0.00  0.00    +0.000 C 
BRANCH  16  17
ATOM     17  C   UNL     1       9.705  11.453  18.087  0.00  0.00    +0.000 A 
ATOM     18  C   UNL     1      10.988  11.850  17.735  0.00  0.00    +0.000 A 
ATOM     19  C   UNL     1      11.106  13.251  17.511  0.00  0.00    +0.000 A 
ATOM     20  C   UNL     1       9.909  13.897  17.686  0.00  0.00    +0.000 A 
ATOM     21  S   UNL     1       8.650  12.818  18.104  0.00  0.00    +0.000 S 
ENDBRANCH  16  17
ENDBRANCH  14  15
ENDBRANCH   6  13
BRANCH   1  22
ATOM     22  C   UNL     1       5.288   3.907  18.382  0.00  0.00    +0.000 C 
BRANCH  22  24
ATOM     23  C   UNL     1       4.602   2.169  20.067  0.00  0.00    +0.000 C 
ATOM     24  C   UNL     1       5.041   3.400  19.777  0.00  0.00    +0.000 C 
ENDBRANCH  22  24
ENDBRANCH   1  22
TORSDOF 6
ENDMDL
