MODEL 1
REMARK VINA RESULT:      -7.7      0.000      0.000
REMARK  Name = 
REMARK  10 active torsions:
REMARK  status: ('A' for Active; 'I' for Inactive)
REMARK    1  A    between atoms: C_1  and  C_2
REMARK    2  A    between atoms: C_2  and  N_3
REMARK    3  A    between atoms: N_3  and  C_4
REMARK    4  A    between atoms: N_3  and  C_15
REMARK    5  A    between atoms: C_4  and  C_5
REMARK    6  A    between atoms: N_7  and  C_8
REMARK    7  A    between atoms: C_15  and  C_16
REMARK    8  A    between atoms: N_18  and  C_19
REMARK    9  A    between atoms: C_24  and  O_25
REMARK   10  A    between atoms: O_25  and  C_26
REMARK                            x       y       z     vdW  Elec       q    Type
REMARK                         _______ _______ _______ _____ _____    ______ ____
ROOT
ATOM      1  N   UNL     1       7.410   6.118  16.722  0.00  0.00    +0.000 NA
ENDROOT
BRANCH   1   3
ATOM      2  C   UNL     1       6.677   4.383  15.021  0.00  0.00    +0.000 C 
ATOM      3  C   UNL     1       6.576   5.816  15.531  0.00  0.00    +0.000 C 
ENDBRANCH   1   3
BRANCH   1   4
ATOM      4  C   UNL     1       6.937   7.331  17.446  0.00  0.00    +0.000 C 
BRANCH   4   5
ATOM      5  C   UNL     1       8.044   8.088  18.185  0.00  0.00    +0.000 C 
ATOM      6  O   UNL     1       8.780   7.522  18.994  0.00  0.00    +0.000 OA
ATOM      7  N   UNL     1       8.108   9.435  17.877  0.00  0.00    +0.000 N 
ATOM      8  H   UNL     1       7.307   9.861  17.417  0.00  0.00    +0.000 HD
BRANCH   7   9
ATOM      9  C   UNL     1       9.056  10.303  18.439  0.00  0.00    +0.000 A 
ATOM     10  C   UNL     1      10.008  10.880  17.594  0.00  0.00    +0.000 A 
ATOM     11  C   UNL     1      10.924  11.803  18.100  0.00  0.00    +0.000 A 
ATOM     12  C   UNL     1      10.936  12.097  19.462  0.00  0.00    +0.000 A 
ATOM     13  C   UNL     1      10.020  11.476  20.304  0.00  0.00    +0.000 A 
ATOM     14  F   UNL     1      10.059  11.732  21.620  0.00  0.00    +0.000 F 
ATOM     15  C   UNL     1       9.068  10.599  19.805  0.00  0.00    +0.000 A 
ENDBRANCH   7   9
ENDBRANCH   4   5
ENDBRANCH   1   4
BRANCH   1  16
ATOM     16  C   UNL     1       7.417   4.910  17.590  0.00  0.00    +0.000 C 
BRANCH  16  17
ATOM     17  C   UNL     1       6.380   4.982  18.714  0.00  0.00    +0.000 C 
ATOM     18  O   UNL     1       6.730   5.237  19.866  0.00  0.00    +0.000 OA
ATOM     19  N   UNL     1       5.093   4.671  18.305  0.00  0.00    +0.000 N 
ATOM     20  H   UNL     1       5.042   4.240  17.397  0.00  0.00    +0.000 HD
BRANCH  19  21
ATOM     21  C   UNL     1       3.927   4.727  19.108  0.00  0.00    +0.000 A 
ATOM     22  C   UNL     1       3.298   5.973  19.309  0.00  0.00    +0.000 A 
ATOM     23  C   UNL     1       2.130   6.113  20.068  0.00  0.00    +0.000 A 
ATOM     24  C   UNL     1       1.556   4.992  20.640  0.00  0.00    +0.000 A 
ATOM     25  C   UNL     1       2.140   3.743  20.434  0.00  0.00    +0.000 A 
ATOM     26  C   UNL     1       3.318   3.587  19.672  0.00  0.00    +0.000 A 
BRANCH  26  27
ATOM     27  O   UNL     1       3.671   2.267  19.616  0.00  0.00    +0.000 OA
ATOM     28  C   UNL     1       3.477   1.502  18.444  0.00  0.00    +0.000 C 
ENDBRANCH  26  27
ENDBRANCH  19  21
ENDBRANCH  16  17
ENDBRANCH   1  16
TORSDOF 8
ENDMDL
MODEL 2
REMARK VINA RESULT:      -7.6      3.917      6.967
REMARK  Name = 
REMARK  10 active torsions:
REMARK  status: ('A' for Active; 'I' for Inactive)
REMARK    1  A    between atoms: C_1  and  C_2
REMARK    2  A    between atoms: C_2  and  N_3
REMARK    3  A    between atoms: N_3  and  C_4
REMARK    4  A    between atoms: N_3  and  C_15
REMARK    5  A    between atoms: C_4  and  C_5
REMARK    6  A    between atoms: N_7  and  C_8
REMARK    7  A    between atoms: C_15  and  C_16
REMARK    8  A    between atoms: N_18  and  C_19
REMARK    9  A    between atoms: C_24  and  O_25
REMARK   10  A    between atoms: O_25  and  C_26
REMARK                            x       y       z     vdW  Elec       q    Type
REMARK                         _______ _______ _______ _____ _____    ______ ____
ROOT
ATOM      1  N   UNL     1       6.303   6.276  17.390  0.00  0.00    +0.000 NA
ENDROOT
BRANCH   1   3
ATOM      2  C   UNL     1       7.889   8.246  17.601  0.00  0.00    +0.000 C 
ATOM      3  C   UNL     1       6.451   7.750  17.489  0.00  0.00    +0.000 C 
ENDBRANCH   1   3
BRANCH   1   4
ATOM      4  C   UNL     1       7.274   5.677  16.432  0.00  0.00    +0.000 C 
BRANCH   4   5
ATOM      5  C   UNL     1       6.668   4.607  15.519  0.00  0.00    +0.000 C 
ATOM      6  O   UNL     1       6.118   3.606  15.979  0.00  0.00    +0.000 OA
ATOM      7  N   UNL     1       6.827   4.863  14.169  0.00  0.00    +0.000 N 
ATOM      8  H   UNL     1       7.515   5.557  13.889  0.00  0.00    +0.000 HD
BRANCH   7   9
ATOM      9  C   UNL     1       6.338   4.012  13.167  0.00  0.00    +0.000 A 
ATOM     10  C   UNL     1       4.966   4.021  12.901  0.00  0.00    +0.000 A 
ATOM     11  C   UNL     1       4.449   3.242  11.866  0.00  0.00    +0.000 A 
ATOM     12  C   UNL     1       5.290   2.400  11.141  0.00  0.00    +0.000 A 
ATOM     13  C   UNL     1       6.645   2.356  11.450  0.00  0.00    +0.000 A 
ATOM     14  F   UNL     1       7.445   1.515  10.777  0.00  0.00    +0.000 F 
ATOM     15  C   UNL     1       7.181   3.166  12.440  0.00  0.00    +0.000 A 
ENDBRANCH   7   9
ENDBRANCH   4   5
ENDBRANCH   1   4
BRANCH   1  16
ATOM     16  C   UNL     1       6.444   5.713  18.760  0.00  0.00    +0.000 C 
BRANCH  16  17
ATOM     17  C   UNL     1       5.367   4.677  19.090  0.00  0.00    +0.000 C 
ATOM     18  O   UNL     1       5.677   3.597  19.592  0.00  0.00    +0.000 OA
ATOM     19  N   UNL     1       4.091   5.060  18.707  0.00  0.00    +0.000 N 
ATOM     20  H   UNL     1       4.068   5.851  18.084  0.00  0.00    +0.000 HD
BRANCH  19  21
ATOM     21  C   UNL     1       2.896   4.339  18.951  0.00  0.00    +0.000 A 
ATOM     22  C   UNL     1       2.624   3.192  18.176  0.00  0.00    +0.000 A 
ATOM     23  C   UNL     1       1.480   2.408  18.367  0.00  0.00    +0.000 A 
ATOM     24  C   UNL     1       0.579   2.757  19.357  0.00  0.00    +0.000 A 
ATOM     25  C   UNL     1       0.837   3.869  20.157  0.00  0.00    +0.000 A 
ATOM     26  C   UNL     1       1.986   4.669  19.975  0.00  0.00    +0.000 A 
BRANCH  26  27
ATOM     27  O   UNL     1       2.004   5.682  20.893  0.00  0.00    +0.000 OA
ATOM     28  C   UNL     1       1.719   7.015  20.525  0.00  0.00    +0.000 C 
ENDBRANCH  26  27
ENDBRANCH  19  21
ENDBRANCH  16  17
ENDBRANCH   1  16
TORSDOF 8
ENDMDL
MODEL 3
REMARK VINA RESULT:      -7.6      6.212      9.198
REMARK  Name = 
REMARK  10 active torsions:
REMARK  status: ('A' for Active; 'I' for Inactive)
REMARK    1  A    between atoms: C_1  and  C_2
REMARK    2  A    between atoms: C_2  and  N_3
REMARK    3  A    between atoms: N_3  and  C_4
REMARK    4  A    between atoms: N_3  and  C_15
REMARK    5  A    between atoms: C_4  and  C_5
REMARK    6  A    between atoms: N_7  and  C_8
REMARK    7  A    between atoms: C_15  and  C_16
REMARK    8  A    between atoms: N_18  and  C_19
REMARK    9  A    between atoms: C_24  and  O_25
REMARK   10  A    between atoms: O_25  and  C_26
REMARK                            x       y       z     vdW  Elec       q    Type
REMARK                         _______ _______ _______ _____ _____    ______ ____
ROOT
ATOM      1  N   UNL     1       0.224   9.249  21.149  0.00  0.00    +0.000 NA
ENDROOT
BRANCH   1   3
ATOM      2  C   UNL     1      -0.858  10.433  23.115  0.00  0.00    +0.000 C 
ATOM      3  C   UNL     1      -0.462   9.115  22.458  0.00  0.00    +0.000 C 
ENDBRANCH   1   3
BRANCH   1   4
ATOM      4  C   UNL     1       0.446  10.673  20.775  0.00  0.00    +0.000 C 
BRANCH   4   5
ATOM      5  C   UNL     1      -0.430  11.157  19.616  0.00  0.00    +0.000 C 
ATOM      6  O   UNL     1      -0.386  12.322  19.220  0.00  0.00    +0.000 OA
ATOM      7  N   UNL     1      -1.268  10.185  19.099  0.00  0.00    +0.000 N 
ATOM      8  H   UNL     1      -1.430   9.348  19.652  0.00  0.00    +0.000 HD
BRANCH   7   9
ATOM      9  C   UNL     1      -2.144  10.422  18.029  0.00  0.00    +0.000 A 
ATOM     10  C   UNL     1      -3.300  11.169  18.272  0.00  0.00    +0.000 A 
ATOM     11  C   UNL     1      -4.161  11.486  17.221  0.00  0.00    +0.000 A 
ATOM     12  C   UNL     1      -3.905  11.000  15.941  0.00  0.00    +0.000 A 
ATOM     13  C   UNL     1      -2.781  10.211  15.719  0.00  0.00    +0.000 A 
ATOM     14  F   UNL     1      -2.559   9.712  14.495  0.00  0.00    +0.000 F 
ATOM     15  C   UNL     1      -1.888   9.934  16.744  0.00  0.00    +0.000 A 
ENDBRANCH   7   9
ENDBRANCH   4   5
ENDBRANCH   1   4
BRANCH   1  16
ATOM     16  C   UNL     1       1.497   8.481  21.223  0.00  0.00    +0.000 C 
BRANCH  16  17
ATOM     17  C   UNL     1       1.865   7.815  19.895  0.00  0.00    +0.000 C 
ATOM     18  O   UNL     1       1.625   8.380  18.829  0.00  0.00    +0.000 OA
ATOM     19  N   UNL     1       2.401   6.545  20.040  0.00  0.00    +0.000 N 
ATOM     20  H   UNL     1       2.281   6.149  20.958  0.00  0.00    +0.000 HD
BRANCH  19  21
ATOM     21  C   UNL     1       2.898   5.726  18.995  0.00  0.00    +0.000 A 
ATOM     22  C   UNL     1       4.134   6.057  18.402  0.00  0.00    +0.000 A 
ATOM     23  C   UNL     1       4.708   5.289  17.381  0.00  0.00    +0.000 A 
ATOM     24  C   UNL     1       4.052   4.155  16.937  0.00  0.00    +0.000 A 
ATOM     25  C   UNL     1       2.842   3.789  17.526  0.00  0.00    +0.000 A 
ATOM     26  C   UNL     1       2.251   4.554  18.554  0.00  0.00    +0.000 A 
BRANCH  26  27
ATOM     27  O   UNL     1       1.083   3.972  18.962  0.00  0.00    +0.000 OA
ATOM     28  C   UNL     1       0.947   2.568  19.038  0.00  0.00    +0.000 C 
ENDBRANCH  26  27
ENDBRANCH  19  21
ENDBRANCH  16  17
ENDBRANCH   1  16
TORSDOF 8
ENDMDL
MODEL 4
REMARK VINA RESULT:      -7.5      3.922      7.009
REMARK  Name = 
REMARK  10 active torsions:
REMARK  status: ('A' for Active; 'I' for Inactive)
REMARK    1  A    between atoms: C_1  and  C_2
REMARK    2  A    between atoms: C_2  and  N_3
REMARK    3  A    between atoms: N_3  and  C_4
REMARK    4  A    between atoms: N_3  and  C_15
REMARK    5  A    between atoms: C_4  and  C_5
REMARK    6  A    between atoms: N_7  and  C_8
REMARK    7  A    between atoms: C_15  and  C_16
REMARK    8  A    between atoms: N_18  and  C_19
REMARK    9  A    between atoms: C_24  and  O_25
REMARK   10  A    between atoms: O_25  and  C_26
REMARK                            x       y       z     vdW  Elec       q    Type
REMARK                         _______ _______ _______ _____ _____    ______ ____
ROOT
ATOM      1  N   UNL     1       6.902   6.243  16.615  0.00  0.00    +0.000 NA
ENDROOT
BRANCH   1   3
ATOM      2  C   UNL     1       7.848   8.375  17.615  0.00  0.00    +0.000 C 
ATOM      3  C   UNL     1       7.542   6.891  17.787  0.00  0.00    +0.000 C 
ENDBRANCH   1   3
BRANCH   1   4
ATOM      4  C   UNL     1       7.257   4.801  16.506  0.00  0.00    +0.000 C 
BRANCH   4   5
ATOM      5  C   UNL     1       6.400   4.021  15.506  0.00  0.00    +0.000 C 
ATOM      6  O   UNL     1       5.509   3.258  15.880  0.00  0.00    +0.000 OA
ATOM      7  N   UNL     1       6.743   4.236  14.182  0.00  0.00    +0.000 N 
ATOM      8  H   UNL     1       7.645   4.659  13.983  0.00  0.00    +0.000 HD
BRANCH   7   9
ATOM      9  C   UNL     1       6.075   3.624  13.111  0.00  0.00    +0.000 A 
ATOM     10  C   UNL     1       4.798   4.083  12.777  0.00  0.00    +0.000 A 
ATOM     11  C   UNL     1       4.129   3.548  11.676  0.00  0.00    +0.000 A 
ATOM     12  C   UNL     1       4.704   2.509  10.949  0.00  0.00    +0.000 A 
ATOM     13  C   UNL     1       5.951   2.021  11.322  0.00  0.00    +0.000 A 
ATOM     14  F   UNL     1       6.485   0.993  10.645  0.00  0.00    +0.000 F 
ATOM     15  C   UNL     1       6.651   2.580  12.382  0.00  0.00    +0.000 A 
ENDBRANCH   7   9
ENDBRANCH   4   5
ENDBRANCH   1   4
BRANCH   1  16
ATOM     16  C   UNL     1       5.433   6.454  16.725  0.00  0.00    +0.000 C 
BRANCH  16  17
ATOM     17  C   UNL     1       4.827   5.776  17.956  0.00  0.00    +0.000 C 
ATOM     18  O   UNL     1       5.445   5.754  19.020  0.00  0.00    +0.000 OA
ATOM     19  N   UNL     1       3.606   5.168  17.711  0.00  0.00    +0.000 N 
ATOM     20  H   UNL     1       3.385   5.066  16.734  0.00  0.00    +0.000 HD
BRANCH  19  21
ATOM     21  C   UNL     1       2.784   4.532  18.675  0.00  0.00    +0.000 A 
ATOM     22  C   UNL     1       2.150   5.323  19.655  0.00  0.00    +0.000 A 
ATOM     23  C   UNL     1       1.303   4.779  20.629  0.00  0.00    +0.000 A 
ATOM     24  C   UNL     1       1.065   3.416  20.633  0.00  0.00    +0.000 A 
ATOM     25  C   UNL     1       1.656   2.615  19.658  0.00  0.00    +0.000 A 
ATOM     26  C   UNL     1       2.513   3.149  18.671  0.00  0.00    +0.000 A 
BRANCH  26  27
ATOM     27  O   UNL     1       2.945   2.157  17.836  0.00  0.00    +0.000 OA
ATOM     28  C   UNL     1       3.876   1.185  18.266  0.00  0.00    +0.000 C 
ENDBRANCH  26  27
ENDBRANCH  19  21
ENDBRANCH  16  17
ENDBRANCH   1  16
TORSDOF 8
ENDMDL
MODEL 5
REMARK VINA RESULT:      -7.4      1.715      2.522
REMARK  Name = 
REMARK  10 active torsions:
REMARK  status: ('A' for Active; 'I' for Inactive)
REMARK    1  A    between atoms: C_1  and  C_2
REMARK    2  A    between atoms: C_2  and  N_3
REMARK    3  A    between atoms: N_3  and  C_4
REMARK    4  A    between atoms: N_3  and  C_15
REMARK    5  A    between atoms: C_4  and  C_5
REMARK    6  A    between atoms: N_7  and  C_8
REMARK    7  A    between atoms: C_15  and  C_16
REMARK    8  A    between atoms: N_18  and  C_19
REMARK    9  A    between atoms: C_24  and  O_25
REMARK   10  A    between atoms: O_25  and  C_26
REMARK                            x       y       z     vdW  Elec       q    Type
REMARK                         _______ _______ _______ _____ _____    ______ ____
ROOT
ATOM      1  N   UNL     1       6.965   6.150  17.238  0.00  0.00    +0.000 NA
ENDROOT
BRANCH   1   3
ATOM      2  C   UNL     1       4.998   6.855  15.797  0.00  0.00    +0.000 C 
ATOM      3  C   UNL     1       5.617   6.770  17.189  0.00  0.00    +0.000 C 
ENDBRANCH   1   3
BRANCH   1   4
ATOM      4  C   UNL     1       7.807   6.723  18.324  0.00  0.00    +0.000 C 
BRANCH   4   5
ATOM      5  C   UNL     1       8.128   8.210  18.146  0.00  0.00    +0.000 C 
ATOM      6  O   UNL     1       7.744   8.836  17.158  0.00  0.00    +0.000 OA
ATOM      7  N   UNL     1       8.895   8.747  19.165  0.00  0.00    +0.000 N 
ATOM      8  H   UNL     1       9.384   8.108  19.786  0.00  0.00    +0.000 HD
BRANCH   7   9
ATOM      9  C   UNL     1       9.290  10.093  19.196  0.00  0.00    +0.000 A 
ATOM     10  C   UNL     1       9.330  10.743  20.432  0.00  0.00    +0.000 A 
ATOM     11  C   UNL     1       9.784  12.060  20.514  0.00  0.00    +0.000 A 
ATOM     12  C   UNL     1      10.133  12.750  19.356  0.00  0.00    +0.000 A 
ATOM     13  C   UNL     1      10.037  12.112  18.124  0.00  0.00    +0.000 A 
ATOM     14  F   UNL     1      10.336  12.792  17.007  0.00  0.00    +0.000 F 
ATOM     15  C   UNL     1       9.640  10.786  18.033  0.00  0.00    +0.000 A 
ENDBRANCH   7   9
ENDBRANCH   4   5
ENDBRANCH   1   4
BRANCH   1  16
ATOM     16  C   UNL     1       6.783   4.680  17.382  0.00  0.00    +0.000 C 
BRANCH  16  17
ATOM     17  C   UNL     1       5.684   4.313  18.381  0.00  0.00    +0.000 C 
ATOM     18  O   UNL     1       5.944   4.205  19.579  0.00  0.00    +0.000 OA
ATOM     19  N   UNL     1       4.456   4.062  17.790  0.00  0.00    +0.000 N 
ATOM     20  H   UNL     1       4.496   3.945  16.791  0.00  0.00    +0.000 HD
BRANCH  19  21
ATOM     21  C   UNL     1       3.247   3.774  18.471  0.00  0.00    +0.000 A 
ATOM     22  C   UNL     1       2.649   2.509  18.289  0.00  0.00    +0.000 A 
ATOM     23  C   UNL     1       1.468   2.134  18.942  0.00  0.00    +0.000 A 
ATOM     24  C   UNL     1       0.861   3.026  19.807  0.00  0.00    +0.000 A 
ATOM     25  C   UNL     1       1.445   4.273  20.027  0.00  0.00    +0.000 A 
ATOM     26  C   UNL     1       2.635   4.665  19.376  0.00  0.00    +0.000 A 
BRANCH  26  27
ATOM     27  O   UNL     1       2.998   5.921  19.775  0.00  0.00    +0.000 OA
ATOM     28  C   UNL     1       2.430   7.074  19.189  0.00  0.00    +0.000 C 
ENDBRANCH  26  27
ENDBRANCH  19  21
ENDBRANCH  16  17
ENDBRANCH   1  16
TORSDOF 8
ENDMDL
MODEL 6
REMARK VINA RESULT:      -7.3      4.236      7.070
REMARK  Name = 
REMARK  10 active torsions:
REMARK  status: ('A' for Active; 'I' for Inactive)
REMARK    1  A    between atoms: C_1  and  C_2
REMARK    2  A    between atoms: C_2  and  N_3
REMARK    3  A    between atoms: N_3  and  C_4
REMARK    4  A    between atoms: N_3  and  C_15
REMARK    5  A    between atoms: C_4  and  C_5
REMARK    6  A    between atoms: N_7  and  C_8
REMARK    7  A    between atoms: C_15  and  C_16
REMARK    8  A    between atoms: N_18  and  C_19
REMARK    9  A    between atoms: C_24  and  O_25
REMARK   10  A    between atoms: O_25  and  C_26
REMARK                            x       y       z     vdW  Elec       q    Type
REMARK                         _______ _______ _______ _____ _____    ______ ____
ROOT
ATOM      1  N   UNL     1       1.494   3.948  19.736  0.00  0.00    +0.000 NA
ENDROOT
BRANCH   1   3
ATOM      2  C   UNL     1       2.197   2.729  21.848  0.00  0.00    +0.000 C 
ATOM      3  C   UNL     1       1.071   3.134  20.903  0.00  0.00    +0.000 C 
ENDBRANCH   1   3
BRANCH   1   4
ATOM      4  C   UNL     1       2.674   4.802  20.046  0.00  0.00    +0.000 C 
BRANCH   4   5
ATOM      5  C   UNL     1       2.437   6.298  19.820  0.00  0.00    +0.000 C 
ATOM      6  O   UNL     1       2.942   6.892  18.867  0.00  0.00    +0.000 OA
ATOM      7  N   UNL     1       1.647   6.896  20.786  0.00  0.00    +0.000 N 
ATOM      8  H   UNL     1       1.503   6.401  21.662  0.00  0.00    +0.000 HD
BRANCH   7   9
ATOM      9  C   UNL     1       1.304   8.256  20.758  0.00  0.00    +0.000 A 
ATOM     10  C   UNL     1       1.056   8.901  21.972  0.00  0.00    +0.000 A 
ATOM     11  C   UNL     1       0.781  10.269  21.993  0.00  0.00    +0.000 A 
ATOM     12  C   UNL     1       0.684  10.978  20.798  0.00  0.00    +0.000 A 
ATOM     13  C   UNL     1       0.877  10.316  19.591  0.00  0.00    +0.000 A 
ATOM     14  F   UNL     1       0.744  10.992  18.441  0.00  0.00    +0.000 F 
ATOM     15  C   UNL     1       1.206   8.968  19.559  0.00  0.00    +0.000 A 
ENDBRANCH   7   9
ENDBRANCH   4   5
ENDBRANCH   1   4
BRANCH   1  16
ATOM     16  C   UNL     1       1.755   3.018  18.604  0.00  0.00    +0.000 C 
BRANCH  16  17
ATOM     17  C   UNL     1       3.226   2.991  18.184  0.00  0.00    +0.000 C 
ATOM     18  O   UNL     1       3.974   2.105  18.598  0.00  0.00    +0.000 OA
ATOM     19  N   UNL     1       3.599   4.065  17.391  0.00  0.00    +0.000 N 
ATOM     20  H   UNL     1       2.929   4.816  17.373  0.00  0.00    +0.000 HD
BRANCH  19  21
ATOM     21  C   UNL     1       4.872   4.261  16.799  0.00  0.00    +0.000 A 
ATOM     22  C   UNL     1       4.981   4.214  15.393  0.00  0.00    +0.000 A 
ATOM     23  C   UNL     1       6.195   4.421  14.727  0.00  0.00    +0.000 A 
ATOM     24  C   UNL     1       7.335   4.692  15.463  0.00  0.00    +0.000 A 
ATOM     25  C   UNL     1       7.249   4.773  16.852  0.00  0.00    +0.000 A 
ATOM     26  C   UNL     1       6.033   4.565  17.538  0.00  0.00    +0.000 A 
BRANCH  26  27
ATOM     27  O   UNL     1       6.220   4.713  18.884  0.00  0.00    +0.000 OA
ATOM     28  C   UNL     1       7.216   5.573  19.399  0.00  0.00    +0.000 C 
ENDBRANCH  26  27
ENDBRANCH  19  21
ENDBRANCH  16  17
ENDBRANCH   1  16
TORSDOF 8
ENDMDL
MODEL 7
REMARK VINA RESULT:      -7.3      2.995      8.691
REMARK  Name = 
REMARK  10 active torsions:
REMARK  status: ('A' for Active; 'I' for Inactive)
REMARK    1  A    between atoms: C_1  and  C_2
REMARK    2  A    between atoms: C_2  and  N_3
REMARK    3  A    between atoms: N_3  and  C_4
REMARK    4  A    between atoms: N_3  and  C_15
REMARK    5  A    between atoms: C_4  and  C_5
REMARK    6  A    between atoms: N_7  and  C_8
REMARK    7  A    between atoms: C_15  and  C_16
REMARK    8  A    between atoms: N_18  and  C_19
REMARK    9  A    between atoms: C_24  and  O_25
REMARK   10  A    between atoms: O_25  and  C_26
REMARK                            x       y       z     vdW  Elec       q    Type
REMARK                         _______ _______ _______ _____ _____    ______ ____
ROOT
ATOM      1  N   UNL     1       6.996   6.810  17.033  0.00  0.00    +0.000 NA
ENDROOT
BRANCH   1   3
ATOM      2  C   UNL     1       7.009   4.867  15.401  0.00  0.00    +0.000 C 
ATOM      3  C   UNL     1       7.264   5.366  16.820  0.00  0.00    +0.000 C 
ENDBRANCH   1   3
BRANCH   1   4
ATOM      4  C   UNL     1       5.551   7.083  17.272  0.00  0.00    +0.000 C 
BRANCH   4   5
ATOM      5  C   UNL     1       4.824   5.970  18.033  0.00  0.00    +0.000 C 
ATOM      6  O   UNL     1       5.211   5.587  19.137  0.00  0.00    +0.000 OA
ATOM      7  N   UNL     1       3.740   5.441  17.355  0.00  0.00    +0.000 N 
ATOM      8  H   UNL     1       3.659   5.624  16.359  0.00  0.00    +0.000 HD
BRANCH   7   9
ATOM      9  C   UNL     1       2.935   4.419  17.882  0.00  0.00    +0.000 A 
ATOM     10  C   UNL     1       3.077   3.130  17.362  0.00  0.00    +0.000 A 
ATOM     11  C   UNL     1       2.346   2.073  17.905  0.00  0.00    +0.000 A 
ATOM     12  C   UNL     1       1.423   2.313  18.921  0.00  0.00    +0.000 A 
ATOM     13  C   UNL     1       1.249   3.609  19.394  0.00  0.00    +0.000 A 
ATOM     14  F   UNL     1       0.331   3.844  20.344  0.00  0.00    +0.000 F 
ATOM     15  C   UNL     1       2.008   4.660  18.900  0.00  0.00    +0.000 A 
ENDBRANCH   7   9
ENDBRANCH   4   5
ENDBRANCH   1   4
BRANCH   1  16
ATOM     16  C   UNL     1       7.849   7.269  18.162  0.00  0.00    +0.000 C 
BRANCH  16  17
ATOM     17  C   UNL     1       8.187   8.760  18.083  0.00  0.00    +0.000 C 
ATOM     18  O   UNL     1       7.692   9.462  17.202  0.00  0.00    +0.000 OA
ATOM     19  N   UNL     1       9.117   9.170  19.024  0.00  0.00    +0.000 N 
ATOM     20  H   UNL     1       9.600   8.415  19.484  0.00  0.00    +0.000 HD
BRANCH  19  21
ATOM     21  C   UNL     1       9.561  10.500  19.233  0.00  0.00    +0.000 A 
ATOM     22  C   UNL     1      10.210  11.173  18.177  0.00  0.00    +0.000 A 
ATOM     23  C   UNL     1      10.659  12.495  18.290  0.00  0.00    +0.000 A 
ATOM     24  C   UNL     1      10.454  13.180  19.474  0.00  0.00    +0.000 A 
ATOM     25  C   UNL     1       9.789  12.548  20.524  0.00  0.00    +0.000 A 
ATOM     26  C   UNL     1       9.333  11.216  20.425  0.00  0.00    +0.000 A 
BRANCH  26  27
ATOM     27  O   UNL     1       8.707  10.845  21.583  0.00  0.00    +0.000 OA
ATOM     28  C   UNL     1       8.318  11.800  22.548  0.00  0.00    +0.000 C 
ENDBRANCH  26  27
ENDBRANCH  19  21
ENDBRANCH  16  17
ENDBRANCH   1  16
TORSDOF 8
ENDMDL
MODEL 8
REMARK VINA RESULT:      -7.2      3.037      8.856
REMARK  Name = 
REMARK  10 active torsions:
REMARK  status: ('A' for Active; 'I' for Inactive)
REMARK    1  A    between atoms: C_1  and  C_2
REMARK    2  A    between atoms: C_2  and  N_3
REMARK    3  A    between atoms: N_3  and  C_4
REMARK    4  A    between atoms: N_3  and  C_15
REMARK    5  A    between atoms: C_4  and  C_5
REMARK    6  A    between atoms: N_7  and  C_8
REMARK    7  A    between atoms: C_15  and  C_16
REMARK    8  A    between atoms: N_18  and  C_19
REMARK    9  A    between atoms: C_24  and  O_25
REMARK   10  A    between atoms: O_25  and  C_26
REMARK                            x       y       z     vdW  Elec       q    Type
REMARK                         _______ _______ _______ _____ _____    ______ ____
ROOT
ATOM      1  N   UNL     1       6.962   6.408  18.049  0.00  0.00    +0.000 NA
ENDROOT
BRANCH   1   3
ATOM      2  C   UNL     1       6.247   5.152  15.963  0.00  0.00    +0.000 C 
ATOM      3  C   UNL     1       7.204   6.150  16.608  0.00  0.00    +0.000 C 
ENDBRANCH   1   3
BRANCH   1   4
ATOM      4  C   UNL     1       6.586   5.170  18.786  0.00  0.00    +0.000 C 
BRANCH   4   5
ATOM      5  C   UNL     1       5.086   5.044  19.069  0.00  0.00    +0.000 C 
ATOM      6  O   UNL     1       4.377   6.037  19.228  0.00  0.00    +0.000 OA
ATOM      7  N   UNL     1       4.637   3.738  19.154  0.00  0.00    +0.000 N 
ATOM      8  H   UNL     1       5.325   3.000  19.278  0.00  0.00    +0.000 HD
BRANCH   7   9
ATOM      9  C   UNL     1       3.296   3.406  19.398  0.00  0.00    +0.000 A 
ATOM     10  C   UNL     1       2.415   3.367  18.314  0.00  0.00    +0.000 A 
ATOM     11  C   UNL     1       1.090   2.974  18.503  0.00  0.00    +0.000 A 
ATOM     12  C   UNL     1       0.625   2.686  19.784  0.00  0.00    +0.000 A 
ATOM     13  C   UNL     1       1.495   2.780  20.865  0.00  0.00    +0.000 A 
ATOM     14  F   UNL     1       1.035   2.540  22.102  0.00  0.00    +0.000 F 
ATOM     15  C   UNL     1       2.829   3.117  20.683  0.00  0.00    +0.000 A 
ENDBRANCH   7   9
ENDBRANCH   4   5
ENDBRANCH   1   4
BRANCH   1  16
ATOM     16  C   UNL     1       8.185   7.046  18.608  0.00  0.00    +0.000 C 
BRANCH  16  17
ATOM     17  C   UNL     1       8.228   8.557  18.370  0.00  0.00    +0.000 C 
ATOM     18  O   UNL     1       7.462   9.080  17.560  0.00  0.00    +0.000 OA
ATOM     19  N   UNL     1       9.225   9.205  19.082  0.00  0.00    +0.000 N 
ATOM     20  H   UNL     1       9.911   8.588  19.484  0.00  0.00    +0.000 HD
BRANCH  19  21
ATOM     21  C   UNL     1       9.451  10.604  19.114  0.00  0.00    +0.000 A 
ATOM     22  C   UNL     1       9.875  11.251  17.934  0.00  0.00    +0.000 A 
ATOM     23  C   UNL     1      10.099  12.632  17.872  0.00  0.00    +0.000 A 
ATOM     24  C   UNL     1       9.890  13.402  19.001  0.00  0.00    +0.000 A 
ATOM     25  C   UNL     1       9.443  12.793  20.173  0.00  0.00    +0.000 A 
ATOM     26  C   UNL     1       9.215  11.402  20.251  0.00  0.00    +0.000 A 
BRANCH  26  27
ATOM     27  O   UNL     1       8.772  11.067  21.500  0.00  0.00    +0.000 OA
ATOM     28  C   UNL     1       8.490  12.053  22.471  0.00  0.00    +0.000 C 
ENDBRANCH  26  27
ENDBRANCH  19  21
ENDBRANCH  16  17
ENDBRANCH   1  16
TORSDOF 8
ENDMDL
MODEL 9
REMARK VINA RESULT:      -7.1      3.077      8.961
REMARK  Name = 
REMARK  10 active torsions:
REMARK  status: ('A' for Active; 'I' for Inactive)
REMARK    1  A    between atoms: C_1  and  C_2
REMARK    2  A    between atoms: C_2  and  N_3
REMARK    3  A    between atoms: N_3  and  C_4
REMARK    4  A    between atoms: N_3  and  C_15
REMARK    5  A    between atoms: C_4  and  C_5
REMARK    6  A    between atoms: N_7  and  C_8
REMARK    7  A    between atoms: C_15  and  C_16
REMARK    8  A    between atoms: N_18  and  C_19
REMARK    9  A    between atoms: C_24  and  O_25
REMARK   10  A    between atoms: O_25  and  C_26
REMARK                            x       y       z     vdW  Elec       q    Type
REMARK                         _______ _______ _______ _____ _____    ______ ____
ROOT
ATOM      1  N   UNL     1       6.910   6.861  18.103  0.00  0.00    +0.000 NA
ENDROOT
BRANCH   1   3
ATOM      2  C   UNL     1       7.224   5.174  16.233  0.00  0.00    +0.000 C 
ATOM      3  C   UNL     1       6.582   6.474  16.708  0.00  0.00    +0.000 C 
ENDBRANCH   1   3
BRANCH   1   4
ATOM      4  C   UNL     1       6.745   5.726  19.054  0.00  0.00    +0.000 C 
BRANCH   4   5
ATOM      5  C   UNL     1       5.301   5.237  19.196  0.00  0.00    +0.000 C 
ATOM      6  O   UNL     1       4.385   6.011  19.472  0.00  0.00    +0.000 OA
ATOM      7  N   UNL     1       5.148   3.873  19.018  0.00  0.00    +0.000 N 
ATOM      8  H   UNL     1       5.977   3.286  19.064  0.00  0.00    +0.000 HD
BRANCH   7   9
ATOM      9  C   UNL     1       3.905   3.227  19.099  0.00  0.00    +0.000 A 
ATOM     10  C   UNL     1       3.332   2.745  17.919  0.00  0.00    +0.000 A 
ATOM     11  C   UNL     1       2.131   2.035  17.965  0.00  0.00    +0.000 A 
ATOM     12  C   UNL     1       1.468   1.866  19.179  0.00  0.00    +0.000 A 
ATOM     13  C   UNL     1       2.019   2.397  20.340  0.00  0.00    +0.000 A 
ATOM     14  F   UNL     1       1.359   2.268  21.500  0.00  0.00    +0.000 F 
ATOM     15  C   UNL     1       3.239   3.057  20.316  0.00  0.00    +0.000 A 
ENDBRANCH   7   9
ENDBRANCH   4   5
ENDBRANCH   1   4
BRANCH   1  16
ATOM     16  C   UNL     1       8.295   7.404  18.111  0.00  0.00    +0.000 C 
BRANCH  16  17
ATOM     17  C   UNL     1       8.337   8.917  18.338  0.00  0.00    +0.000 C 
ATOM     18  O   UNL     1       7.622   9.666  17.672  0.00  0.00    +0.000 OA
ATOM     19  N   UNL     1       9.276   9.313  19.277  0.00  0.00    +0.000 N 
ATOM     20  H   UNL     1       9.940   8.597  19.523  0.00  0.00    +0.000 HD
BRANCH  19  21
ATOM     21  C   UNL     1       9.485  10.636  19.741  0.00  0.00    +0.000 A 
ATOM     22  C   UNL     1       9.096  10.964  21.057  0.00  0.00    +0.000 A 
ATOM     23  C   UNL     1       9.287  12.240  21.601  0.00  0.00    +0.000 A 
ATOM     24  C   UNL     1       9.889  13.221  20.833  0.00  0.00    +0.000 A 
ATOM     25  C   UNL     1      10.309  12.915  19.540  0.00  0.00    +0.000 A 
ATOM     26  C   UNL     1      10.121  11.635  18.976  0.00  0.00    +0.000 A 
BRANCH  26  27
ATOM     27  O   UNL     1      10.632  11.598  17.709  0.00  0.00    +0.000 OA
ATOM     28  C   UNL     1      11.215  12.740  17.116  0.00  0.00    +0.000 C 
ENDBRANCH  26  27
ENDBRANCH  19  21
ENDBRANCH  16  17
ENDBRANCH   1  16
TORSDOF 8
ENDMDL
