MODEL 1
REMARK VINA RESULT:      -6.8      0.000      0.000
REMARK  Name = 
REMARK  3 active torsions:
REMARK  status: ('A' for Active; 'I' for Inactive)
REMARK    1  A    between atoms: C_1  and  C_2
REMARK    2  A    between atoms: C_2  and  C_3
REMARK    3  A    between atoms: C_7  and  C_8
REMARK                            x       y       z     vdW  Elec       q    Type
REMARK                         _______ _______ _______ _____ _____    ______ ____
ROOT
ATOM      1  C   UNL     1       7.792   5.501  13.503  0.00  0.00    +0.000 C 
ATOM      2  C   UNL     1       6.934   4.934  14.636  0.00  0.00    +0.000 C 
ATOM      3  C   UNL     1       6.207   3.681  14.130  0.00  0.00    +0.000 C 
ATOM      4  N   UNL     1       7.709   4.624  15.789  0.00  0.00    +0.000 N 
ATOM      5  C   UNL     1       7.014   4.871  16.953  0.00  0.00    +0.000 C 
ATOM      6  O   UNL     1       7.312   4.412  18.046  0.00  0.00    +0.000 OA
ATOM      7  C   UNL     1       5.924   5.865  16.594  0.00  0.00    +0.000 C 
ATOM      8  N   UNL     1       5.970   5.932  15.105  0.00  0.00    +0.000 NA
ATOM      9  H   UNL     1       8.409   3.895  15.802  0.00  0.00    +0.000 HD
ATOM     10  H   UNL     1       6.317   6.860  14.874  0.00  0.00    +0.000 HD
ENDROOT
BRANCH   7  11
ATOM     11  C   UNL     1       4.550   5.572  17.163  0.00  0.00    +0.000 A 
ATOM     12  C   UNL     1       3.808   6.599  17.766  0.00  0.00    +0.000 A 
ATOM     13  C   UNL     1       2.534   6.359  18.291  0.00  0.00    +0.000 A 
ATOM     14  C   UNL     1       1.975   5.085  18.211  0.00  0.00    +0.000 A 
ATOM     15  C   UNL     1       2.683   4.060  17.599  0.00  0.00    +0.000 A 
ATOM     16  C   UNL     1       3.956   4.300  17.075  0.00  0.00    +0.000 A 
ENDBRANCH   7  11
TORSDOF 1
ENDMDL
MODEL 2
REMARK VINA RESULT:      -6.7      0.068      1.286
REMARK  Name = 
REMARK  3 active torsions:
REMARK  status: ('A' for Active; 'I' for Inactive)
REMARK    1  A    between atoms: C_1  and  C_2
REMARK    2  A    between atoms: C_2  and  C_3
REMARK    3  A    between atoms: C_7  and  C_8
REMARK                            x       y       z     vdW  Elec       q    Type
REMARK                         _______ _______ _______ _____ _____    ______ ____
ROOT
ATOM      1  C   UNL     1       7.799   5.399  13.458  0.00  0.00    +0.000 C 
ATOM      2  C   UNL     1       6.933   4.875  14.605  0.00  0.00    +0.000 C 
ATOM      3  C   UNL     1       6.184   3.623  14.133  0.00  0.00    +0.000 C 
ATOM      4  N   UNL     1       7.705   4.582  15.765  0.00  0.00    +0.000 N 
ATOM      5  C   UNL     1       7.015   4.871  16.924  0.00  0.00    +0.000 C 
ATOM      6  O   UNL     1       7.307   4.434  18.027  0.00  0.00    +0.000 OA
ATOM      7  C   UNL     1       5.942   5.874  16.540  0.00  0.00    +0.000 C 
ATOM      8  N   UNL     1       5.987   5.902  15.050  0.00  0.00    +0.000 NA
ATOM      9  H   UNL     1       8.391   3.841  15.797  0.00  0.00    +0.000 HD
ATOM     10  H   UNL     1       6.350   6.818  14.795  0.00  0.00    +0.000 HD
ENDROOT
BRANCH   7  11
ATOM     11  C   UNL     1       4.564   5.619  17.118  0.00  0.00    +0.000 A 
ATOM     12  C   UNL     1       4.034   4.319  17.116  0.00  0.00    +0.000 A 
ATOM     13  C   UNL     1       2.769   4.054  17.650  0.00  0.00    +0.000 A 
ATOM     14  C   UNL     1       2.016   5.086  18.209  0.00  0.00    +0.000 A 
ATOM     15  C   UNL     1       2.532   6.373  18.241  0.00  0.00    +0.000 A 
ATOM     16  C   UNL     1       3.795   6.639  17.707  0.00  0.00    +0.000 A 
ENDBRANCH   7  11
TORSDOF 1
ENDMDL
MODEL 3
REMARK VINA RESULT:      -6.5      3.382      5.611
REMARK  Name = 
REMARK  3 active torsions:
REMARK  status: ('A' for Active; 'I' for Inactive)
REMARK    1  A    between atoms: C_1  and  C_2
REMARK    2  A    between atoms: C_2  and  C_3
REMARK    3  A    between atoms: C_7  and  C_8
REMARK                            x       y       z     vdW  Elec       q    Type
REMARK                         _______ _______ _______ _____ _____    ______ ____
ROOT
ATOM      1  C   UNL     1       2.193   3.318  21.677  0.00  0.00    +0.000 C 
ATOM      2  C   UNL     1       2.558   3.348  20.192  0.00  0.00    +0.000 C 
ATOM      3  C   UNL     1       3.411   2.117  19.864  0.00  0.00    +0.000 C 
ATOM      4  N   UNL     1       1.403   3.385  19.359  0.00  0.00    +0.000 N 
ATOM      5  C   UNL     1       1.612   4.149  18.231  0.00  0.00    +0.000 C 
ATOM      6  O   UNL     1       0.921   4.095  17.224  0.00  0.00    +0.000 OA
ATOM      7  C   UNL     1       2.764   5.082  18.557  0.00  0.00    +0.000 C 
ATOM      8  N   UNL     1       3.282   4.578  19.861  0.00  0.00    +0.000 NA
ATOM      9  H   UNL     1       0.745   2.621  19.298  0.00  0.00    +0.000 HD
ATOM     10  H   UNL     1       3.054   5.291  20.551  0.00  0.00    +0.000 HD
ENDROOT
BRANCH   7  11
ATOM     11  C   UNL     1       3.821   5.226  17.480  0.00  0.00    +0.000 A 
ATOM     12  C   UNL     1       4.296   4.089  16.809  0.00  0.00    +0.000 A 
ATOM     13  C   UNL     1       5.264   4.193  15.805  0.00  0.00    +0.000 A 
ATOM     14  C   UNL     1       5.766   5.443  15.446  0.00  0.00    +0.000 A 
ATOM     15  C   UNL     1       5.293   6.582  16.082  0.00  0.00    +0.000 A 
ATOM     16  C   UNL     1       4.326   6.478  17.084  0.00  0.00    +0.000 A 
ENDBRANCH   7  11
TORSDOF 1
ENDMDL
MODEL 4
REMARK VINA RESULT:      -6.5      2.886      5.186
REMARK  Name = 
REMARK  3 active torsions:
REMARK  status: ('A' for Active; 'I' for Inactive)
REMARK    1  A    between atoms: C_1  and  C_2
REMARK    2  A    between atoms: C_2  and  C_3
REMARK    3  A    between atoms: C_7  and  C_8
REMARK                            x       y       z     vdW  Elec       q    Type
REMARK                         _______ _______ _______ _____ _____    ______ ____
ROOT
ATOM      1  C   UNL     1       0.670   3.125  20.315  0.00  0.00    +0.000 C 
ATOM      2  C   UNL     1       1.949   3.809  19.828  0.00  0.00    +0.000 C 
ATOM      3  C   UNL     1       1.917   5.283  20.252  0.00  0.00    +0.000 C 
ATOM      4  N   UNL     1       3.119   3.174  20.334  0.00  0.00    +0.000 N 
ATOM      5  C   UNL     1       4.147   3.193  19.416  0.00  0.00    +0.000 C 
ATOM      6  O   UNL     1       5.323   3.008  19.693  0.00  0.00    +0.000 OA
ATOM      7  C   UNL     1       3.499   3.385  18.056  0.00  0.00    +0.000 C 
ATOM      8  N   UNL     1       2.076   3.695  18.373  0.00  0.00    +0.000 NA
ATOM      9  H   UNL     1       3.361   3.168  21.315  0.00  0.00    +0.000 HD
ATOM     10  H   UNL     1       1.534   2.894  18.057  0.00  0.00    +0.000 HD
ENDROOT
BRANCH   7  11
ATOM     11  C   UNL     1       4.169   4.394  17.143  0.00  0.00    +0.000 A 
ATOM     12  C   UNL     1       4.063   5.766  17.419  0.00  0.00    +0.000 A 
ATOM     13  C   UNL     1       4.678   6.717  16.599  0.00  0.00    +0.000 A 
ATOM     14  C   UNL     1       5.421   6.310  15.493  0.00  0.00    +0.000 A 
ATOM     15  C   UNL     1       5.556   4.957  15.216  0.00  0.00    +0.000 A 
ATOM     16  C   UNL     1       4.942   4.006  16.035  0.00  0.00    +0.000 A 
ENDBRANCH   7  11
TORSDOF 1
ENDMDL
MODEL 5
REMARK VINA RESULT:      -6.5      3.365      5.462
REMARK  Name = 
REMARK  3 active torsions:
REMARK  status: ('A' for Active; 'I' for Inactive)
REMARK    1  A    between atoms: C_1  and  C_2
REMARK    2  A    between atoms: C_2  and  C_3
REMARK    3  A    between atoms: C_7  and  C_8
REMARK                            x       y       z     vdW  Elec       q    Type
REMARK                         _______ _______ _______ _____ _____    ______ ____
ROOT
ATOM      1  C   UNL     1       2.107   3.197  21.546  0.00  0.00    +0.000 C 
ATOM      2  C   UNL     1       2.480   3.262  20.064  0.00  0.00    +0.000 C 
ATOM      3  C   UNL     1       3.275   2.003  19.696  0.00  0.00    +0.000 C 
ATOM      4  N   UNL     1       1.332   3.383  19.230  0.00  0.00    +0.000 N 
ATOM      5  C   UNL     1       1.582   4.175  18.130  0.00  0.00    +0.000 C 
ATOM      6  O   UNL     1       0.895   4.190  17.119  0.00  0.00    +0.000 OA
ATOM      7  C   UNL     1       2.776   5.040  18.492  0.00  0.00    +0.000 C 
ATOM      8  N   UNL     1       3.264   4.466  19.779  0.00  0.00    +0.000 NA
ATOM      9  H   UNL     1       0.638   2.654  19.139  0.00  0.00    +0.000 HD
ATOM     10  H   UNL     1       3.066   5.164  20.493  0.00  0.00    +0.000 HD
ENDROOT
BRANCH   7  11
ATOM     11  C   UNL     1       3.844   5.171  17.424  0.00  0.00    +0.000 A 
ATOM     12  C   UNL     1       4.370   6.434  17.111  0.00  0.00    +0.000 A 
ATOM     13  C   UNL     1       5.362   6.583  16.136  0.00  0.00    +0.000 A 
ATOM     14  C   UNL     1       5.855   5.465  15.465  0.00  0.00    +0.000 A 
ATOM     15  C   UNL     1       5.364   4.205  15.775  0.00  0.00    +0.000 A 
ATOM     16  C   UNL     1       4.373   4.056  16.749  0.00  0.00    +0.000 A 
ENDBRANCH   7  11
TORSDOF 1
ENDMDL
MODEL 6
REMARK VINA RESULT:      -6.5      2.375      3.603
REMARK  Name = 
REMARK  3 active torsions:
REMARK  status: ('A' for Active; 'I' for Inactive)
REMARK    1  A    between atoms: C_1  and  C_2
REMARK    2  A    between atoms: C_2  and  C_3
REMARK    3  A    between atoms: C_7  and  C_8
REMARK                            x       y       z     vdW  Elec       q    Type
REMARK                         _______ _______ _______ _____ _____    ______ ____
ROOT
ATOM      1  C   UNL     1       7.473   4.689  17.052  0.00  0.00    +0.000 C 
ATOM      2  C   UNL     1       6.232   5.047  17.873  0.00  0.00    +0.000 C 
ATOM      3  C   UNL     1       6.648   5.262  19.334  0.00  0.00    +0.000 C 
ATOM      4  N   UNL     1       5.576   6.206  17.370  0.00  0.00    +0.000 N 
ATOM      5  C   UNL     1       4.207   6.116  17.503  0.00  0.00    +0.000 C 
ATOM      6  O   UNL     1       3.443   7.069  17.447  0.00  0.00    +0.000 OA
ATOM      7  C   UNL     1       3.889   4.636  17.624  0.00  0.00    +0.000 C 
ATOM      8  N   UNL     1       5.224   3.989  17.776  0.00  0.00    +0.000 NA
ATOM      9  H   UNL     1       5.993   7.127  17.389  0.00  0.00    +0.000 HD
ATOM     10  H   UNL     1       5.381   3.462  16.920  0.00  0.00    +0.000 HD
ENDROOT
BRANCH   7  11
ATOM     11  C   UNL     1       2.889   4.263  18.701  0.00  0.00    +0.000 A 
ATOM     12  C   UNL     1       1.834   3.387  18.403  0.00  0.00    +0.000 A 
ATOM     13  C   UNL     1       0.903   3.018  19.379  0.00  0.00    +0.000 A 
ATOM     14  C   UNL     1       1.020   3.512  20.678  0.00  0.00    +0.000 A 
ATOM     15  C   UNL     1       2.069   4.361  20.998  0.00  0.00    +0.000 A 
ATOM     16  C   UNL     1       2.999   4.730  20.023  0.00  0.00    +0.000 A 
ENDBRANCH   7  11
TORSDOF 1
ENDMDL
MODEL 7
REMARK VINA RESULT:      -6.4      3.208      5.575
REMARK  Name = 
REMARK  3 active torsions:
REMARK  status: ('A' for Active; 'I' for Inactive)
REMARK    1  A    between atoms: C_1  and  C_2
REMARK    2  A    between atoms: C_2  and  C_3
REMARK    3  A    between atoms: C_7  and  C_8
REMARK                            x       y       z     vdW  Elec       q    Type
REMARK                         _______ _______ _______ _____ _____    ______ ____
ROOT
ATOM      1  C   UNL     1       0.703   3.289  20.017  0.00  0.00    +0.000 C 
ATOM      2  C   UNL     1       2.189   3.652  20.032  0.00  0.00    +0.000 C 
ATOM      3  C   UNL     1       2.380   4.939  20.845  0.00  0.00    +0.000 C 
ATOM      4  N   UNL     1       2.988   2.604  20.571  0.00  0.00    +0.000 N 
ATOM      5  C   UNL     1       4.210   2.517  19.938  0.00  0.00    +0.000 C 
ATOM      6  O   UNL     1       5.183   1.935  20.394  0.00  0.00    +0.000 OA
ATOM      7  C   UNL     1       4.036   3.185  18.586  0.00  0.00    +0.000 C 
ATOM      8  N   UNL     1       2.693   3.826  18.668  0.00  0.00    +0.000 NA
ATOM      9  H   UNL     1       2.935   2.312  21.537  0.00  0.00    +0.000 HD
ATOM     10  H   UNL     1       2.094   3.311  18.026  0.00  0.00    +0.000 HD
ENDROOT
BRANCH   7  11
ATOM     11  C   UNL     1       5.151   4.123  18.166  0.00  0.00    +0.000 A 
ATOM     12  C   UNL     1       5.541   4.187  16.819  0.00  0.00    +0.000 A 
ATOM     13  C   UNL     1       6.560   5.049  16.402  0.00  0.00    +0.000 A 
ATOM     14  C   UNL     1       7.199   5.874  17.326  0.00  0.00    +0.000 A 
ATOM     15  C   UNL     1       6.813   5.841  18.658  0.00  0.00    +0.000 A 
ATOM     16  C   UNL     1       5.795   4.980  19.075  0.00  0.00    +0.000 A 
ENDBRANCH   7  11
TORSDOF 1
ENDMDL
MODEL 8
REMARK VINA RESULT:      -6.4      2.368      3.428
REMARK  Name = 
REMARK  3 active torsions:
REMARK  status: ('A' for Active; 'I' for Inactive)
REMARK    1  A    between atoms: C_1  and  C_2
REMARK    2  A    between atoms: C_2  and  C_3
REMARK    3  A    between atoms: C_7  and  C_8
REMARK                            x       y       z     vdW  Elec       q    Type
REMARK                         _______ _______ _______ _____ _____    ______ ____
ROOT
ATOM      1  C   UNL     1       7.473   4.750  17.030  0.00  0.00    +0.000 C 
ATOM      2  C   UNL     1       6.232   5.079  17.863  0.00  0.00    +0.000 C 
ATOM      3  C   UNL     1       6.650   5.259  19.328  0.00  0.00    +0.000 C 
ATOM      4  N   UNL     1       5.568   6.246  17.391  0.00  0.00    +0.000 N 
ATOM      5  C   UNL     1       4.200   6.144  17.525  0.00  0.00    +0.000 C 
ATOM      6  O   UNL     1       3.430   7.093  17.496  0.00  0.00    +0.000 OA
ATOM      7  C   UNL     1       3.891   4.660  17.609  0.00  0.00    +0.000 C 
ATOM      8  N   UNL     1       5.230   4.018  17.741  0.00  0.00    +0.000 NA
ATOM      9  H   UNL     1       5.979   7.169  17.433  0.00  0.00    +0.000 HD
ATOM     10  H   UNL     1       5.388   3.513  16.871  0.00  0.00    +0.000 HD
ENDROOT
BRANCH   7  11
ATOM     11  C   UNL     1       2.896   4.253  18.678  0.00  0.00    +0.000 A 
ATOM     12  C   UNL     1       3.006   4.781  19.974  0.00  0.00    +0.000 A 
ATOM     13  C   UNL     1       2.097   4.430  20.977  0.00  0.00    +0.000 A 
ATOM     14  C   UNL     1       1.052   3.551  20.696  0.00  0.00    +0.000 A 
ATOM     15  C   UNL     1       0.913   3.035  19.416  0.00  0.00    +0.000 A 
ATOM     16  C   UNL     1       1.821   3.386  18.413  0.00  0.00    +0.000 A 
ENDBRANCH   7  11
TORSDOF 1
ENDMDL
MODEL 9
REMARK VINA RESULT:      -6.4      3.398      5.563
REMARK  Name = 
REMARK  3 active torsions:
REMARK  status: ('A' for Active; 'I' for Inactive)
REMARK    1  A    between atoms: C_1  and  C_2
REMARK    2  A    between atoms: C_2  and  C_3
REMARK    3  A    between atoms: C_7  and  C_8
REMARK                            x       y       z     vdW  Elec       q    Type
REMARK                         _______ _______ _______ _____ _____    ______ ____
ROOT
ATOM      1  C   UNL     1       1.704   2.854  21.562  0.00  0.00    +0.000 C 
ATOM      2  C   UNL     1       1.941   3.692  20.304  0.00  0.00    +0.000 C 
ATOM      3  C   UNL     1       1.104   3.114  19.156  0.00  0.00    +0.000 C 
ATOM      4  N   UNL     1       1.619   5.064  20.510  0.00  0.00    +0.000 N 
ATOM      5  C   UNL     1       2.468   5.897  19.814  0.00  0.00    +0.000 C 
ATOM      6  O   UNL     1       2.232   7.070  19.563  0.00  0.00    +0.000 OA
ATOM      7  C   UNL     1       3.725   5.091  19.541  0.00  0.00    +0.000 C 
ATOM      8  N   UNL     1       3.362   3.704  19.949  0.00  0.00    +0.000 NA
ATOM      9  H   UNL     1       0.677   5.388  20.685  0.00  0.00    +0.000 HD
ATOM     10  H   UNL     1       3.911   3.501  20.782  0.00  0.00    +0.000 HD
ENDROOT
BRANCH   7  11
ATOM     11  C   UNL     1       4.287   5.201  18.137  0.00  0.00    +0.000 A 
ATOM     12  C   UNL     1       4.723   6.444  17.653  0.00  0.00    +0.000 A 
ATOM     13  C   UNL     1       5.254   6.573  16.365  0.00  0.00    +0.000 A 
ATOM     14  C   UNL     1       5.370   5.453  15.543  0.00  0.00    +0.000 A 
ATOM     15  C   UNL     1       4.965   4.211  16.011  0.00  0.00    +0.000 A 
ATOM     16  C   UNL     1       4.435   4.083  17.297  0.00  0.00    +0.000 A 
ENDBRANCH   7  11
TORSDOF 1
ENDMDL
