MODEL 1
REMARK VINA RESULT:      -7.3      0.000      0.000
REMARK  Name = 
REMARK  2 active torsions:
REMARK  status: ('A' for Active; 'I' for Inactive)
REMARK    1  A    between atoms: N_1  and  C_2
REMARK    2  A    between atoms: C_2  and  C_3
REMARK                            x       y       z     vdW  Elec       q    Type
REMARK                         _______ _______ _______ _____ _____    ______ ____
ROOT
ATOM      1  C   UNL     1       3.510   3.571  17.779  0.00  0.00    +0.000 A 
ATOM      2  C   UNL     1       4.418   4.146  16.828  0.00  0.00    +0.000 A 
ATOM      3  C   UNL     1       5.154   3.403  15.870  0.00  0.00    +0.000 A 
ATOM      4  C   UNL     1       6.008   4.012  14.947  0.00  0.00    +0.000 A 
ATOM      5  C   UNL     1       6.167   5.390  14.959  0.00  0.00    +0.000 A 
ATOM      6  C   UNL     1       5.475   6.150  15.898  0.00  0.00    +0.000 A 
ATOM      7  C   UNL     1       4.611   5.547  16.829  0.00  0.00    +0.000 A 
ATOM      8  C   UNL     1       3.936   6.342  17.762  0.00  0.00    +0.000 A 
ATOM      9  C   UNL     1       3.073   5.795  18.718  0.00  0.00    +0.000 A 
ATOM     10  C   UNL     1       2.428   6.641  19.637  0.00  0.00    +0.000 A 
ATOM     11  C   UNL     1       1.569   6.132  20.606  0.00  0.00    +0.000 A 
ATOM     12  C   UNL     1       1.351   4.766  20.675  0.00  0.00    +0.000 A 
ATOM     13  C   UNL     1       1.986   3.916  19.766  0.00  0.00    +0.000 A 
ATOM     14  C   UNL     1       2.854   4.398  18.752  0.00  0.00    +0.000 A 
ENDROOT
BRANCH   1  15
ATOM     15  C   UNL     1       3.239   2.076  17.758  0.00  0.00    +0.000 C 
BRANCH  15  16
ATOM     16  N   UNL     1       4.158   1.346  18.623  0.00  0.00    +0.000 NA
ATOM     17  H   UNL     1       4.073   0.349  18.438  0.00  0.00    +0.000 HD
ATOM     18  H   UNL     1       3.884   1.488  19.594  0.00  0.00    +0.000 HD
ENDBRANCH  15  16
ENDBRANCH   1  15
TORSDOF 2
ENDMDL
MODEL 2
REMARK VINA RESULT:      -7.3      0.094      4.609
REMARK  Name = 
REMARK  2 active torsions:
REMARK  status: ('A' for Active; 'I' for Inactive)
REMARK    1  A    between atoms: N_1  and  C_2
REMARK    2  A    between atoms: C_2  and  C_3
REMARK                            x       y       z     vdW  Elec       q    Type
REMARK                         _______ _______ _______ _____ _____    ______ ____
ROOT
ATOM      1  C   UNL     1       3.540   3.509  17.807  0.00  0.00    +0.000 A 
ATOM      2  C   UNL     1       2.844   4.331  18.756  0.00  0.00    +0.000 A 
ATOM      3  C   UNL     1       1.915   3.845  19.711  0.00  0.00    +0.000 A 
ATOM      4  C   UNL     1       1.281   4.685  20.631  0.00  0.00    +0.000 A 
ATOM      5  C   UNL     1       1.545   6.046  20.618  0.00  0.00    +0.000 A 
ATOM      6  C   UNL     1       2.437   6.562  19.682  0.00  0.00    +0.000 A 
ATOM      7  C   UNL     1       3.083   5.725  18.754  0.00  0.00    +0.000 A 
ATOM      8  C   UNL     1       3.968   6.279  17.823  0.00  0.00    +0.000 A 
ATOM      9  C   UNL     1       4.630   5.496  16.871  0.00  0.00    +0.000 A 
ATOM     10  C   UNL     1       5.503   6.107  15.954  0.00  0.00    +0.000 A 
ATOM     11  C   UNL     1       6.173   5.362  14.988  0.00  0.00    +0.000 A 
ATOM     12  C   UNL     1       5.969   3.994  14.920  0.00  0.00    +0.000 A 
ATOM     13  C   UNL     1       5.103   3.375  15.827  0.00  0.00    +0.000 A 
ATOM     14  C   UNL     1       4.418   4.098  16.837  0.00  0.00    +0.000 A 
ENDROOT
BRANCH   1  15
ATOM     15  C   UNL     1       3.348   2.001  17.830  0.00  0.00    +0.000 C 
BRANCH  15  16
ATOM     16  N   UNL     1       4.300   1.347  18.720  0.00  0.00    +0.000 NA
ATOM     17  H   UNL     1       5.169   1.874  18.729  0.00  0.00    +0.000 HD
ATOM     18  H   UNL     1       4.521   0.424  18.348  0.00  0.00    +0.000 HD
ENDBRANCH  15  16
ENDBRANCH   1  15
TORSDOF 2
ENDMDL
MODEL 3
REMARK VINA RESULT:      -7.1      1.937      3.110
REMARK  Name = 
REMARK  2 active torsions:
REMARK  status: ('A' for Active; 'I' for Inactive)
REMARK    1  A    between atoms: N_1  and  C_2
REMARK    2  A    between atoms: C_2  and  C_3
REMARK                            x       y       z     vdW  Elec       q    Type
REMARK                         _______ _______ _______ _____ _____    ______ ____
ROOT
ATOM      1  C   UNL     1       3.300   5.788  18.235  0.00  0.00    +0.000 A 
ATOM      2  C   UNL     1       4.198   5.491  17.156  0.00  0.00    +0.000 A 
ATOM      3  C   UNL     1       4.868   6.468  16.376  0.00  0.00    +0.000 A 
ATOM      4  C   UNL     1       5.754   6.127  15.350  0.00  0.00    +0.000 A 
ATOM      5  C   UNL     1       5.991   4.792  15.059  0.00  0.00    +0.000 A 
ATOM      6  C   UNL     1       5.337   3.805  15.791  0.00  0.00    +0.000 A 
ATOM      7  C   UNL     1       4.446   4.138  16.828  0.00  0.00    +0.000 A 
ATOM      8  C   UNL     1       3.801   3.119  17.538  0.00  0.00    +0.000 A 
ATOM      9  C   UNL     1       2.898   3.392  18.571  0.00  0.00    +0.000 A 
ATOM     10  C   UNL     1       2.272   2.328  19.246  0.00  0.00    +0.000 A 
ATOM     11  C   UNL     1       1.363   2.561  20.273  0.00  0.00    +0.000 A 
ATOM     12  C   UNL     1       1.058   3.863  20.632  0.00  0.00    +0.000 A 
ATOM     13  C   UNL     1       1.674   4.928  19.969  0.00  0.00    +0.000 A 
ATOM     14  C   UNL     1       2.621   4.731  18.931  0.00  0.00    +0.000 A 
ENDROOT
BRANCH   1  15
ATOM     15  C   UNL     1       3.065   7.231  18.648  0.00  0.00    +0.000 C 
BRANCH  15  16
ATOM     16  N   UNL     1       2.023   7.862  17.846  0.00  0.00    +0.000 NA
ATOM     17  H   UNL     1       2.072   8.871  17.964  0.00  0.00    +0.000 HD
ATOM     18  H   UNL     1       1.112   7.571  18.199  0.00  0.00    +0.000 HD
ENDBRANCH  15  16
ENDBRANCH   1  15
TORSDOF 2
ENDMDL
MODEL 4
REMARK VINA RESULT:      -7.1      1.958      5.381
REMARK  Name = 
REMARK  2 active torsions:
REMARK  status: ('A' for Active; 'I' for Inactive)
REMARK    1  A    between atoms: N_1  and  C_2
REMARK    2  A    between atoms: C_2  and  C_3
REMARK                            x       y       z     vdW  Elec       q    Type
REMARK                         _______ _______ _______ _____ _____    ______ ____
ROOT
ATOM      1  C   UNL     1       3.167   5.845  18.362  0.00  0.00    +0.000 A 
ATOM      2  C   UNL     1       2.555   4.741  19.046  0.00  0.00    +0.000 A 
ATOM      3  C   UNL     1       1.696   4.867  20.167  0.00  0.00    +0.000 A 
ATOM      4  C   UNL     1       1.105   3.761  20.784  0.00  0.00    +0.000 A 
ATOM      5  C   UNL     1       1.364   2.485  20.308  0.00  0.00    +0.000 A 
ATOM      6  C   UNL     1       2.219   2.321  19.221  0.00  0.00    +0.000 A 
ATOM      7  C   UNL     1       2.816   3.428  18.591  0.00  0.00    +0.000 A 
ATOM      8  C   UNL     1       3.675   3.225  17.505  0.00  0.00    +0.000 A 
ATOM      9  C   UNL     1       4.304   4.287  16.848  0.00  0.00    +0.000 A 
ATOM     10  C   UNL     1       5.164   4.023  15.767  0.00  0.00    +0.000 A 
ATOM     11  C   UNL     1       5.814   5.053  15.093  0.00  0.00    +0.000 A 
ATOM     12  C   UNL     1       5.619   6.363  15.501  0.00  0.00    +0.000 A 
ATOM     13  C   UNL     1       4.766   6.637  16.573  0.00  0.00    +0.000 A 
ATOM     14  C   UNL     1       4.072   5.616  17.272  0.00  0.00    +0.000 A 
ENDROOT
BRANCH   1  15
ATOM     15  C   UNL     1       2.853   7.268  18.793  0.00  0.00    +0.000 C 
BRANCH  15  16
ATOM     16  N   UNL     1       1.914   7.915  17.883  0.00  0.00    +0.000 NA
ATOM     17  H   UNL     1       1.032   7.409  17.896  0.00  0.00    +0.000 HD
ATOM     18  H   UNL     1       2.275   7.849  16.932  0.00  0.00    +0.000 HD
ENDBRANCH  15  16
ENDBRANCH   1  15
TORSDOF 2
ENDMDL
MODEL 5
REMARK VINA RESULT:      -6.7      1.959      5.068
REMARK  Name = 
REMARK  2 active torsions:
REMARK  status: ('A' for Active; 'I' for Inactive)
REMARK    1  A    between atoms: N_1  and  C_2
REMARK    2  A    between atoms: C_2  and  C_3
REMARK                            x       y       z     vdW  Elec       q    Type
REMARK                         _______ _______ _______ _____ _____    ______ ____
ROOT
ATOM      1  C   UNL     1       3.172   5.647  18.278  0.00  0.00    +0.000 A 
ATOM      2  C   UNL     1       2.515   4.388  18.482  0.00  0.00    +0.000 A 
ATOM      3  C   UNL     1       1.274   4.227  19.150  0.00  0.00    +0.000 A 
ATOM      4  C   UNL     1       0.662   2.980  19.302  0.00  0.00    +0.000 A 
ATOM      5  C   UNL     1       1.279   1.844  18.800  0.00  0.00    +0.000 A 
ATOM      6  C   UNL     1       2.507   1.960  18.154  0.00  0.00    +0.000 A 
ATOM      7  C   UNL     1       3.130   3.211  17.994  0.00  0.00    +0.000 A 
ATOM      8  C   UNL     1       4.367   3.290  17.346  0.00  0.00    +0.000 A 
ATOM      9  C   UNL     1       5.036   4.506  17.168  0.00  0.00    +0.000 A 
ATOM     10  C   UNL     1       6.282   4.524  16.516  0.00  0.00    +0.000 A 
ATOM     11  C   UNL     1       6.981   5.713  16.328  0.00  0.00    +0.000 A 
ATOM     12  C   UNL     1       6.445   6.900  16.800  0.00  0.00    +0.000 A 
ATOM     13  C   UNL     1       5.207   6.894  17.448  0.00  0.00    +0.000 A 
ATOM     14  C   UNL     1       4.457   5.705  17.642  0.00  0.00    +0.000 A 
ENDROOT
BRANCH   1  15
ATOM     15  C   UNL     1       2.502   6.932  18.738  0.00  0.00    +0.000 C 
BRANCH  15  16
ATOM     16  N   UNL     1       2.540   7.074  20.189  0.00  0.00    +0.000 NA
ATOM     17  H   UNL     1       3.503   7.201  20.490  0.00  0.00    +0.000 HD
ATOM     18  H   UNL     1       2.213   6.208  20.616  0.00  0.00    +0.000 HD
ENDBRANCH  15  16
ENDBRANCH   1  15
TORSDOF 2
ENDMDL
MODEL 6
REMARK VINA RESULT:      -6.6      2.504      5.328
REMARK  Name = 
REMARK  2 active torsions:
REMARK  status: ('A' for Active; 'I' for Inactive)
REMARK    1  A    between atoms: N_1  and  C_2
REMARK    2  A    between atoms: C_2  and  C_3
REMARK                            x       y       z     vdW  Elec       q    Type
REMARK                         _______ _______ _______ _____ _____    ______ ____
ROOT
ATOM      1  C   UNL     1       3.225   5.818  18.567  0.00  0.00    +0.000 A 
ATOM      2  C   UNL     1       2.745   4.747  19.395  0.00  0.00    +0.000 A 
ATOM      3  C   UNL     1       1.429   4.665  19.919  0.00  0.00    +0.000 A 
ATOM      4  C   UNL     1       1.003   3.588  20.701  0.00  0.00    +0.000 A 
ATOM      5  C   UNL     1       1.884   2.559  20.997  0.00  0.00    +0.000 A 
ATOM      6  C   UNL     1       3.189   2.616  20.516  0.00  0.00    +0.000 A 
ATOM      7  C   UNL     1       3.627   3.693  19.725  0.00  0.00    +0.000 A 
ATOM      8  C   UNL     1       4.948   3.719  19.264  0.00  0.00    +0.000 A 
ATOM      9  C   UNL     1       5.441   4.771  18.484  0.00  0.00    +0.000 A 
ATOM     10  C   UNL     1       6.780   4.749  18.055  0.00  0.00    +0.000 A 
ATOM     11  C   UNL     1       7.308   5.781  17.284  0.00  0.00    +0.000 A 
ATOM     12  C   UNL     1       6.503   6.855  16.941  0.00  0.00    +0.000 A 
ATOM     13  C   UNL     1       5.171   6.887  17.362  0.00  0.00    +0.000 A 
ATOM     14  C   UNL     1       4.592   5.846  18.132  0.00  0.00    +0.000 A 
ENDROOT
BRANCH   1  15
ATOM     15  C   UNL     1       2.279   6.930  18.146  0.00  0.00    +0.000 C 
BRANCH  15  16
ATOM     16  N   UNL     1       2.185   7.975  19.160  0.00  0.00    +0.000 NA
ATOM     17  H   UNL     1       1.866   7.566  20.035  0.00  0.00    +0.000 HD
ATOM     18  H   UNL     1       1.475   8.649  18.877  0.00  0.00    +0.000 HD
ENDBRANCH  15  16
ENDBRANCH   1  15
TORSDOF 2
ENDMDL
MODEL 7
REMARK VINA RESULT:      -6.6      2.521      3.348
REMARK  Name = 
REMARK  2 active torsions:
REMARK  status: ('A' for Active; 'I' for Inactive)
REMARK    1  A    between atoms: N_1  and  C_2
REMARK    2  A    between atoms: C_2  and  C_3
REMARK                            x       y       z     vdW  Elec       q    Type
REMARK                         _______ _______ _______ _____ _____    ______ ____
ROOT
ATOM      1  C   UNL     1       3.195   5.823  18.569  0.00  0.00    +0.000 A 
ATOM      2  C   UNL     1       4.562   5.848  18.135  0.00  0.00    +0.000 A 
ATOM      3  C   UNL     1       5.126   6.859  17.315  0.00  0.00    +0.000 A 
ATOM      4  C   UNL     1       6.472   6.852  16.939  0.00  0.00    +0.000 A 
ATOM      5  C   UNL     1       7.301   5.823  17.360  0.00  0.00    +0.000 A 
ATOM      6  C   UNL     1       6.777   4.803  18.151  0.00  0.00    +0.000 A 
ATOM      7  C   UNL     1       5.425   4.802  18.537  0.00  0.00    +0.000 A 
ATOM      8  C   UNL     1       4.932   3.758  19.327  0.00  0.00    +0.000 A 
ATOM      9  C   UNL     1       3.594   3.701  19.731  0.00  0.00    +0.000 A 
ATOM     10  C   UNL     1       3.152   2.622  20.518  0.00  0.00    +0.000 A 
ATOM     11  C   UNL     1       1.827   2.527  20.933  0.00  0.00    +0.000 A 
ATOM     12  C   UNL     1       0.923   3.507  20.557  0.00  0.00    +0.000 A 
ATOM     13  C   UNL     1       1.352   4.584  19.776  0.00  0.00    +0.000 A 
ATOM     14  C   UNL     1       2.698   4.725  19.350  0.00  0.00    +0.000 A 
ENDROOT
BRANCH   1  15
ATOM     15  C   UNL     1       2.263   6.966  18.202  0.00  0.00    +0.000 C 
BRANCH  15  16
ATOM     16  N   UNL     1       2.179   7.960  19.267  0.00  0.00    +0.000 NA
ATOM     17  H   UNL     1       2.587   7.577  20.117  0.00  0.00    +0.000 HD
ATOM     18  H   UNL     1       1.198   8.144  19.472  0.00  0.00    +0.000 HD
ENDBRANCH  15  16
ENDBRANCH   1  15
TORSDOF 2
ENDMDL
MODEL 8
REMARK VINA RESULT:      -6.6      1.968      3.321
REMARK  Name = 
REMARK  2 active torsions:
REMARK  status: ('A' for Active; 'I' for Inactive)
REMARK    1  A    between atoms: N_1  and  C_2
REMARK    2  A    between atoms: C_2  and  C_3
REMARK                            x       y       z     vdW  Elec       q    Type
REMARK                         _______ _______ _______ _____ _____    ______ ____
ROOT
ATOM      1  C   UNL     1       3.203   5.606  18.279  0.00  0.00    +0.000 A 
ATOM      2  C   UNL     1       4.492   5.694  17.654  0.00  0.00    +0.000 A 
ATOM      3  C   UNL     1       5.182   6.908  17.403  0.00  0.00    +0.000 A 
ATOM      4  C   UNL     1       6.448   6.939  16.813  0.00  0.00    +0.000 A 
ATOM      5  C   UNL     1       7.065   5.755  16.439  0.00  0.00    +0.000 A 
ATOM      6  C   UNL     1       6.409   4.545  16.651  0.00  0.00    +0.000 A 
ATOM      7  C   UNL     1       5.136   4.502  17.248  0.00  0.00    +0.000 A 
ATOM      8  C   UNL     1       4.504   3.269  17.440  0.00  0.00    +0.000 A 
ATOM      9  C   UNL     1       3.234   3.168  18.018  0.00  0.00    +0.000 A 
ATOM     10  C   UNL     1       2.643   1.902  18.180  0.00  0.00    +0.000 A 
ATOM     11  C   UNL     1       1.378   1.762  18.744  0.00  0.00    +0.000 A 
ATOM     12  C   UNL     1       0.683   2.891  19.145  0.00  0.00    +0.000 A 
ATOM     13  C   UNL     1       1.261   4.154  18.989  0.00  0.00    +0.000 A 
ATOM     14  C   UNL     1       2.555   4.335  18.437  0.00  0.00    +0.000 A 
ENDROOT
BRANCH   1  15
ATOM     15  C   UNL     1       2.518   6.866  18.780  0.00  0.00    +0.000 C 
BRANCH  15  16
ATOM     16  N   UNL     1       2.531   6.948  20.237  0.00  0.00    +0.000 NA
ATOM     17  H   UNL     1       2.635   7.919  20.518  0.00  0.00    +0.000 HD
ATOM     18  H   UNL     1       3.348   6.452  20.589  0.00  0.00    +0.000 HD
ENDBRANCH  15  16
ENDBRANCH   1  15
TORSDOF 2
ENDMDL
MODEL 9
REMARK VINA RESULT:      -6.5      2.157      4.515
REMARK  Name = 
REMARK  2 active torsions:
REMARK  status: ('A' for Active; 'I' for Inactive)
REMARK    1  A    between atoms: N_1  and  C_2
REMARK    2  A    between atoms: C_2  and  C_3
REMARK                            x       y       z     vdW  Elec       q    Type
REMARK                         _______ _______ _______ _____ _____    ______ ____
ROOT
ATOM      1  C   UNL     1       3.303   5.913  18.404  0.00  0.00    +0.000 A 
ATOM      2  C   UNL     1       3.127   4.831  19.331  0.00  0.00    +0.000 A 
ATOM      3  C   UNL     1       3.699   3.543  19.179  0.00  0.00    +0.000 A 
ATOM      4  C   UNL     1       3.517   2.529  20.124  0.00  0.00    +0.000 A 
ATOM      5  C   UNL     1       2.743   2.765  21.250  0.00  0.00    +0.000 A 
ATOM      6  C   UNL     1       2.149   4.012  21.422  0.00  0.00    +0.000 A 
ATOM      7  C   UNL     1       2.328   5.041  20.479  0.00  0.00    +0.000 A 
ATOM      8  C   UNL     1       1.711   6.280  20.682  0.00  0.00    +0.000 A 
ATOM      9  C   UNL     1       1.846   7.334  19.772  0.00  0.00    +0.000 A 
ATOM     10  C   UNL     1       1.196   8.556  20.023  0.00  0.00    +0.000 A 
ATOM     11  C   UNL     1       1.301   9.624  19.137  0.00  0.00    +0.000 A 
ATOM     12  C   UNL     1       2.051   9.480  17.982  0.00  0.00    +0.000 A 
ATOM     13  C   UNL     1       2.701   8.271  17.722  0.00  0.00    +0.000 A 
ATOM     14  C   UNL     1       2.634   7.166  18.610  0.00  0.00    +0.000 A 
ENDROOT
BRANCH   1  15
ATOM     15  C   UNL     1       4.206   5.733  17.195  0.00  0.00    +0.000 C 
BRANCH  15  16
ATOM     16  N   UNL     1       5.580   6.130  17.480  0.00  0.00    +0.000 NA
ATOM     17  H   UNL     1       5.597   7.109  17.754  0.00  0.00    +0.000 HD
ATOM     18  H   UNL     1       6.131   6.057  16.626  0.00  0.00    +0.000 HD
ENDBRANCH  15  16
ENDBRANCH   1  15
TORSDOF 2
ENDMDL
