MODEL 1
REMARK VINA RESULT:      -8.0      0.000      0.000
REMARK  Name = 
REMARK  9 active torsions:
REMARK  status: ('A' for Active; 'I' for Inactive)
REMARK    1  A    between atoms: C_1  and  C_2
REMARK    2  A    between atoms: C_2  and  C_3
REMARK    3  A    between atoms: C_2  and  N_4
REMARK    4  A    between atoms: N_4  and  S_5
REMARK    5  A    between atoms: S_5  and  C_8
REMARK    6  A    between atoms: C_11  and  O_12
REMARK    7  A    between atoms: O_12  and  C_13
REMARK    8  A    between atoms: C_13  and  C_14
REMARK    9  A    between atoms: N_16  and  C_17
REMARK                            x       y       z     vdW  Elec       q    Type
REMARK                         _______ _______ _______ _____ _____    ______ ____
ROOT
ATOM      1  C   UNL     1       5.415   4.461  17.267  0.00  0.00    +0.000 A 
ATOM      2  C   UNL     1       5.799   4.371  18.604  0.00  0.00    +0.000 A 
ATOM      3  C   UNL     1       4.932   3.782  19.525  0.00  0.00    +0.000 A 
ATOM      4  C   UNL     1       3.673   3.326  19.126  0.00  0.00    +0.000 A 
ATOM      5  C   UNL     1       3.280   3.449  17.791  0.00  0.00    +0.000 A 
ATOM      6  C   UNL     1       4.150   4.022  16.859  0.00  0.00    +0.000 A 
ENDROOT
BRANCH   1   7
ATOM      7  S   UNL     1       6.532   5.133  16.050  0.00  0.00    +0.000 S 
ATOM      8  O   UNL     1       7.814   4.478  16.187  0.00  0.00    +0.000 OA
ATOM      9  O   UNL     1       6.383   6.566  16.123  0.00  0.00    +0.000 OA
BRANCH   7  10
ATOM     10  N   UNL     1       5.820   4.632  14.601  0.00  0.00    +0.000 NA
ATOM     11  H   UNL     1       4.916   4.186  14.751  0.00  0.00    +0.000 HD
BRANCH  10  13
ATOM     12  C   UNL     1       5.804   3.363  12.455  0.00  0.00    +0.000 C 
ATOM     13  C   UNL     1       6.647   4.021  13.537  0.00  0.00    +0.000 C 
ATOM     14  C   UNL     1       7.508   5.122  12.917  0.00  0.00    +0.000 C 
ENDBRANCH  10  13
ENDBRANCH   7  10
ENDBRANCH   1   7
BRANCH   4  15
ATOM     15  O   UNL     1       2.943   2.730  20.115  0.00  0.00    +0.000 OA
BRANCH  15  16
ATOM     16  C   UNL     1       2.527   3.582  21.177  0.00  0.00    +0.000 C 
BRANCH  16  17
ATOM     17  C   UNL     1       1.715   4.763  20.641  0.00  0.00    +0.000 C 
ATOM     18  O   UNL     1       0.562   4.590  20.253  0.00  0.00    +0.000 OA
ATOM     19  N   UNL     1       2.411   5.961  20.635  0.00  0.00    +0.000 N 
ATOM     20  H   UNL     1       3.402   5.889  20.848  0.00  0.00    +0.000 HD
BRANCH  19  21
ATOM     21  C   UNL     1       1.907   7.225  20.274  0.00  0.00    +0.000 A 
ATOM     22  C   UNL     1       1.136   8.010  21.137  0.00  0.00    +0.000 A 
ATOM     23  C   UNL     1       0.635   9.249  20.726  0.00  0.00    +0.000 A 
ATOM     24  C   UNL     1       0.903   9.713  19.443  0.00  0.00    +0.000 A 
ATOM     25  C   UNL     1       1.688   8.945  18.594  0.00  0.00    +0.000 A 
ATOM     26  F   UNL     1       1.946   9.390  17.357  0.00  0.00    +0.000 F 
ATOM     27  C   UNL     1       2.206   7.716  18.999  0.00  0.00    +0.000 A 
ENDBRANCH  19  21
ENDBRANCH  16  17
ENDBRANCH  15  16
ENDBRANCH   4  15
TORSDOF 7
ENDMDL
MODEL 2
REMARK VINA RESULT:      -7.7      5.156      7.166
REMARK  Name = 
REMARK  9 active torsions:
REMARK  status: ('A' for Active; 'I' for Inactive)
REMARK    1  A    between atoms: C_1  and  C_2
REMARK    2  A    between atoms: C_2  and  C_3
REMARK    3  A    between atoms: C_2  and  N_4
REMARK    4  A    between atoms: N_4  and  S_5
REMARK    5  A    between atoms: S_5  and  C_8
REMARK    6  A    between atoms: C_11  and  O_12
REMARK    7  A    between atoms: O_12  and  C_13
REMARK    8  A    between atoms: C_13  and  C_14
REMARK    9  A    between atoms: N_16  and  C_17
REMARK                            x       y       z     vdW  Elec       q    Type
REMARK                         _______ _______ _______ _____ _____    ______ ____
ROOT
ATOM      1  C   UNL     1       3.636   4.440  17.493  0.00  0.00    +0.000 A 
ATOM      2  C   UNL     1       3.955   5.555  18.267  0.00  0.00    +0.000 A 
ATOM      3  C   UNL     1       5.138   6.249  18.010  0.00  0.00    +0.000 A 
ATOM      4  C   UNL     1       6.018   5.811  17.018  0.00  0.00    +0.000 A 
ATOM      5  C   UNL     1       5.711   4.674  16.268  0.00  0.00    +0.000 A 
ATOM      6  C   UNL     1       4.519   3.983  16.508  0.00  0.00    +0.000 A 
ENDROOT
BRANCH   1   7
ATOM      7  S   UNL     1       2.094   3.579  17.740  0.00  0.00    +0.000 S 
ATOM      8  O   UNL     1       2.274   2.192  17.373  0.00  0.00    +0.000 OA
ATOM      9  O   UNL     1       1.076   4.411  17.147  0.00  0.00    +0.000 OA
BRANCH   7  10
ATOM     10  N   UNL     1       1.900   3.676  19.417  0.00  0.00    +0.000 NA
ATOM     11  H   UNL     1       2.147   4.595  19.781  0.00  0.00    +0.000 HD
BRANCH  10  13
ATOM     12  C   UNL     1       3.797   2.475  20.501  0.00  0.00    +0.000 C 
ATOM     13  C   UNL     1       2.295   2.539  20.279  0.00  0.00    +0.000 C 
ATOM     14  C   UNL     1       1.584   2.698  21.624  0.00  0.00    +0.000 C 
ENDBRANCH  10  13
ENDBRANCH   7  10
ENDBRANCH   1   7
BRANCH   4  15
ATOM     15  O   UNL     1       7.115   6.605  16.839  0.00  0.00    +0.000 OA
BRANCH  15  16
ATOM     16  C   UNL     1       7.779   7.024  18.027  0.00  0.00    +0.000 C 
BRANCH  16  17
ATOM     17  C   UNL     1       8.018   8.534  18.012  0.00  0.00    +0.000 C 
ATOM     18  O   UNL     1       7.397   9.247  17.228  0.00  0.00    +0.000 OA
ATOM     19  N   UNL     1       8.974   8.956  18.923  0.00  0.00    +0.000 N 
ATOM     20  H   UNL     1       9.494   8.214  19.382  0.00  0.00    +0.000 HD
BRANCH  19  21
ATOM     21  C   UNL     1       9.350  10.286  19.193  0.00  0.00    +0.000 A 
ATOM     22  C   UNL     1       9.319  10.838  20.477  0.00  0.00    +0.000 A 
ATOM     23  C   UNL     1       9.677  12.172  20.693  0.00  0.00    +0.000 A 
ATOM     24  C   UNL     1      10.070  12.967  19.622  0.00  0.00    +0.000 A 
ATOM     25  C   UNL     1      10.124  12.412  18.350  0.00  0.00    +0.000 A 
ATOM     26  F   UNL     1      10.502  13.176  17.317  0.00  0.00    +0.000 F 
ATOM     27  C   UNL     1       9.784  11.079  18.126  0.00  0.00    +0.000 A 
ENDBRANCH  19  21
ENDBRANCH  16  17
ENDBRANCH  15  16
ENDBRANCH   4  15
TORSDOF 7
ENDMDL
MODEL 3
REMARK VINA RESULT:      -7.7      1.161      1.884
REMARK  Name = 
REMARK  9 active torsions:
REMARK  status: ('A' for Active; 'I' for Inactive)
REMARK    1  A    between atoms: C_1  and  C_2
REMARK    2  A    between atoms: C_2  and  C_3
REMARK    3  A    between atoms: C_2  and  N_4
REMARK    4  A    between atoms: N_4  and  S_5
REMARK    5  A    between atoms: S_5  and  C_8
REMARK    6  A    between atoms: C_11  and  O_12
REMARK    7  A    between atoms: O_12  and  C_13
REMARK    8  A    between atoms: C_13  and  C_14
REMARK    9  A    between atoms: N_16  and  C_17
REMARK                            x       y       z     vdW  Elec       q    Type
REMARK                         _______ _______ _______ _____ _____    ______ ____
ROOT
ATOM      1  C   UNL     1       5.413   4.139  16.745  0.00  0.00    +0.000 A 
ATOM      2  C   UNL     1       4.182   3.528  16.509  0.00  0.00    +0.000 A 
ATOM      3  C   UNL     1       3.397   3.132  17.593  0.00  0.00    +0.000 A 
ATOM      4  C   UNL     1       3.853   3.305  18.902  0.00  0.00    +0.000 A 
ATOM      5  C   UNL     1       5.102   3.888  19.133  0.00  0.00    +0.000 A 
ATOM      6  C   UNL     1       5.887   4.302  18.052  0.00  0.00    +0.000 A 
ENDROOT
BRANCH   1   7
ATOM      7  S   UNL     1       6.403   4.730  15.385  0.00  0.00    +0.000 S 
ATOM      8  O   UNL     1       7.792   4.724  15.788  0.00  0.00    +0.000 OA
ATOM      9  O   UNL     1       5.743   5.916  14.899  0.00  0.00    +0.000 OA
BRANCH   7  10
ATOM     10  N   UNL     1       6.170   3.521  14.226  0.00  0.00    +0.000 NA
ATOM     11  H   UNL     1       6.724   2.689  14.421  0.00  0.00    +0.000 HD
BRANCH  10  13
ATOM     12  C   UNL     1       7.138   3.212  11.950  0.00  0.00    +0.000 C 
ATOM     13  C   UNL     1       6.060   3.874  12.793  0.00  0.00    +0.000 C 
ATOM     14  C   UNL     1       4.681   3.432  12.302  0.00  0.00    +0.000 C 
ENDBRANCH  10  13
ENDBRANCH   7  10
ENDBRANCH   1   7
BRANCH   4  15
ATOM     15  O   UNL     1       2.970   2.918  19.869  0.00  0.00    +0.000 OA
BRANCH  15  16
ATOM     16  C   UNL     1       2.765   3.846  20.930  0.00  0.00    +0.000 C 
BRANCH  16  17
ATOM     17  C   UNL     1       1.886   5.010  20.471  0.00  0.00    +0.000 C 
ATOM     18  O   UNL     1       0.677   4.846  20.325  0.00  0.00    +0.000 OA
ATOM     19  N   UNL     1       2.588   6.183  20.242  0.00  0.00    +0.000 N 
ATOM     20  H   UNL     1       3.600   6.094  20.267  0.00  0.00    +0.000 HD
BRANCH  19  21
ATOM     21  C   UNL     1       2.046   7.433  19.889  0.00  0.00    +0.000 A 
ATOM     22  C   UNL     1       2.139   7.965  18.599  0.00  0.00    +0.000 A 
ATOM     23  C   UNL     1       1.607   9.223  18.302  0.00  0.00    +0.000 A 
ATOM     24  C   UNL     1       0.977   9.962  19.296  0.00  0.00    +0.000 A 
ATOM     25  C   UNL     1       0.863   9.424  20.572  0.00  0.00    +0.000 A 
ATOM     26  F   UNL     1       0.257  10.135  21.532  0.00  0.00    +0.000 F 
ATOM     27  C   UNL     1       1.376   8.164  20.876  0.00  0.00    +0.000 A 
ENDBRANCH  19  21
ENDBRANCH  16  17
ENDBRANCH  15  16
ENDBRANCH   4  15
TORSDOF 7
ENDMDL
MODEL 4
REMARK VINA RESULT:      -7.7      1.740      2.556
REMARK  Name = 
REMARK  9 active torsions:
REMARK  status: ('A' for Active; 'I' for Inactive)
REMARK    1  A    between atoms: C_1  and  C_2
REMARK    2  A    between atoms: C_2  and  C_3
REMARK    3  A    between atoms: C_2  and  N_4
REMARK    4  A    between atoms: N_4  and  S_5
REMARK    5  A    between atoms: S_5  and  C_8
REMARK    6  A    between atoms: C_11  and  O_12
REMARK    7  A    between atoms: O_12  and  C_13
REMARK    8  A    between atoms: C_13  and  C_14
REMARK    9  A    between atoms: N_16  and  C_17
REMARK                            x       y       z     vdW  Elec       q    Type
REMARK                         _______ _______ _______ _____ _____    ______ ____
ROOT
ATOM      1  C   UNL     1       5.165   4.374  17.108  0.00  0.00    +0.000 A 
ATOM      2  C   UNL     1       3.880   3.919  16.814  0.00  0.00    +0.000 A 
ATOM      3  C   UNL     1       3.115   3.330  17.822  0.00  0.00    +0.000 A 
ATOM      4  C   UNL     1       3.643   3.156  19.104  0.00  0.00    +0.000 A 
ATOM      5  C   UNL     1       4.943   3.582  19.385  0.00  0.00    +0.000 A 
ATOM      6  C   UNL     1       5.709   4.189  18.385  0.00  0.00    +0.000 A 
ENDROOT
BRANCH   1   7
ATOM      7  S   UNL     1       6.136   5.204  15.864  0.00  0.00    +0.000 S 
ATOM      8  O   UNL     1       5.398   6.355  15.393  0.00  0.00    +0.000 OA
ATOM      9  O   UNL     1       6.610   4.171  14.976  0.00  0.00    +0.000 OA
BRANCH   7  10
ATOM     10  N   UNL     1       7.468   5.742  16.757  0.00  0.00    +0.000 NA
ATOM     11  H   UNL     1       8.145   4.999  16.923  0.00  0.00    +0.000 HD
BRANCH  10  13
ATOM     12  C   UNL     1       8.063   6.257  19.122  0.00  0.00    +0.000 C 
ATOM     13  C   UNL     1       7.277   6.675  17.890  0.00  0.00    +0.000 C 
ATOM     14  C   UNL     1       7.731   8.064  17.438  0.00  0.00    +0.000 C 
ENDBRANCH  10  13
ENDBRANCH   7  10
ENDBRANCH   1   7
BRANCH   4  15
ATOM     15  O   UNL     1       2.776   2.610  20.007  0.00  0.00    +0.000 OA
BRANCH  15  16
ATOM     16  C   UNL     1       2.417   3.443  21.105  0.00  0.00    +0.000 C 
BRANCH  16  17
ATOM     17  C   UNL     1       1.642   4.671  20.624  0.00  0.00    +0.000 C 
ATOM     18  O   UNL     1       0.456   4.569  20.318  0.00  0.00    +0.000 OA
ATOM     19  N   UNL     1       2.407   5.825  20.565  0.00  0.00    +0.000 N 
ATOM     20  H   UNL     1       3.404   5.692  20.709  0.00  0.00    +0.000 HD
BRANCH  19  21
ATOM     21  C   UNL     1       1.957   7.118  20.237  0.00  0.00    +0.000 A 
ATOM     22  C   UNL     1       1.264   7.932  21.139  0.00  0.00    +0.000 A 
ATOM     23  C   UNL     1       0.813   9.200  20.760  0.00  0.00    +0.000 A 
ATOM     24  C   UNL     1       1.052   9.665  19.472  0.00  0.00    +0.000 A 
ATOM     25  C   UNL     1       1.761   8.866  18.584  0.00  0.00    +0.000 A 
ATOM     26  F   UNL     1       1.991   9.311  17.341  0.00  0.00    +0.000 F 
ATOM     27  C   UNL     1       2.228   7.606  18.956  0.00  0.00    +0.000 A 
ENDBRANCH  19  21
ENDBRANCH  16  17
ENDBRANCH  15  16
ENDBRANCH   4  15
TORSDOF 7
ENDMDL
MODEL 5
REMARK VINA RESULT:      -7.6      5.571      7.492
REMARK  Name = 
REMARK  9 active torsions:
REMARK  status: ('A' for Active; 'I' for Inactive)
REMARK    1  A    between atoms: C_1  and  C_2
REMARK    2  A    between atoms: C_2  and  C_3
REMARK    3  A    between atoms: C_2  and  N_4
REMARK    4  A    between atoms: N_4  and  S_5
REMARK    5  A    between atoms: S_5  and  C_8
REMARK    6  A    between atoms: C_11  and  O_12
REMARK    7  A    between atoms: O_12  and  C_13
REMARK    8  A    between atoms: C_13  and  C_14
REMARK    9  A    between atoms: N_16  and  C_17
REMARK                            x       y       z     vdW  Elec       q    Type
REMARK                         _______ _______ _______ _____ _____    ______ ____
ROOT
ATOM      1  C   UNL     1       4.396   4.377  17.813  0.00  0.00    +0.000 A 
ATOM      2  C   UNL     1       4.278   5.298  16.773  0.00  0.00    +0.000 A 
ATOM      3  C   UNL     1       5.260   6.276  16.612  0.00  0.00    +0.000 A 
ATOM      4  C   UNL     1       6.330   6.364  17.507  0.00  0.00    +0.000 A 
ATOM      5  C   UNL     1       6.426   5.460  18.568  0.00  0.00    +0.000 A 
ATOM      6  C   UNL     1       5.455   4.466  18.725  0.00  0.00    +0.000 A 
ENDROOT
BRANCH   1   7
ATOM      7  S   UNL     1       3.203   3.064  17.998  0.00  0.00    +0.000 S 
ATOM      8  O   UNL     1       3.819   1.819  17.593  0.00  0.00    +0.000 OA
ATOM      9  O   UNL     1       1.982   3.552  17.405  0.00  0.00    +0.000 OA
BRANCH   7  10
ATOM     10  N   UNL     1       2.967   3.034  19.671  0.00  0.00    +0.000 NA
ATOM     11  H   UNL     1       3.267   2.153  20.086  0.00  0.00    +0.000 HD
BRANCH  10  13
ATOM     12  C   UNL     1       1.277   2.857  21.495  0.00  0.00    +0.000 C 
ATOM     13  C   UNL     1       1.739   3.613  20.261  0.00  0.00    +0.000 C 
ATOM     14  C   UNL     1       2.035   5.068  20.630  0.00  0.00    +0.000 C 
ENDBRANCH  10  13
ENDBRANCH   7  10
ENDBRANCH   1   7
BRANCH   4  15
ATOM     15  O   UNL     1       7.242   7.336  17.210  0.00  0.00    +0.000 OA
BRANCH  15  16
ATOM     16  C   UNL     1       8.185   7.636  18.235  0.00  0.00    +0.000 C 
BRANCH  16  17
ATOM     17  C   UNL     1       8.402   9.145  18.348  0.00  0.00    +0.000 C 
ATOM     18  O   UNL     1       7.753   9.914  17.642  0.00  0.00    +0.000 OA
ATOM     19  N   UNL     1       9.373   9.501  19.271  0.00  0.00    +0.000 N 
ATOM     20  H   UNL     1       9.913   8.730  19.652  0.00  0.00    +0.000 HD
BRANCH  19  21
ATOM     21  C   UNL     1       9.736  10.808  19.649  0.00  0.00    +0.000 A 
ATOM     22  C   UNL     1       9.448  11.342  20.909  0.00  0.00    +0.000 A 
ATOM     23  C   UNL     1       9.806  12.655  21.231  0.00  0.00    +0.000 A 
ATOM     24  C   UNL     1      10.456  13.447  20.290  0.00  0.00    +0.000 A 
ATOM     25  C   UNL     1      10.763  12.909  19.047  0.00  0.00    +0.000 A 
ATOM     26  F   UNL     1      11.388  13.670  18.139  0.00  0.00    +0.000 F 
ATOM     27  C   UNL     1      10.424  11.596  18.721  0.00  0.00    +0.000 A 
ENDBRANCH  19  21
ENDBRANCH  16  17
ENDBRANCH  15  16
ENDBRANCH   4  15
TORSDOF 7
ENDMDL
MODEL 6
REMARK VINA RESULT:      -7.5      0.396      1.247
REMARK  Name = 
REMARK  9 active torsions:
REMARK  status: ('A' for Active; 'I' for Inactive)
REMARK    1  A    between atoms: C_1  and  C_2
REMARK    2  A    between atoms: C_2  and  C_3
REMARK    3  A    between atoms: C_2  and  N_4
REMARK    4  A    between atoms: N_4  and  S_5
REMARK    5  A    between atoms: S_5  and  C_8
REMARK    6  A    between atoms: C_11  and  O_12
REMARK    7  A    between atoms: O_12  and  C_13
REMARK    8  A    between atoms: C_13  and  C_14
REMARK    9  A    between atoms: N_16  and  C_17
REMARK                            x       y       z     vdW  Elec       q    Type
REMARK                         _______ _______ _______ _____ _____    ______ ____
ROOT
ATOM      1  C   UNL     1       5.384   4.304  16.996  0.00  0.00    +0.000 A 
ATOM      2  C   UNL     1       4.217   3.594  16.715  0.00  0.00    +0.000 A 
ATOM      3  C   UNL     1       3.439   3.114  17.769  0.00  0.00    +0.000 A 
ATOM      4  C   UNL     1       3.842   3.302  19.094  0.00  0.00    +0.000 A 
ATOM      5  C   UNL     1       5.028   3.985  19.370  0.00  0.00    +0.000 A 
ATOM      6  C   UNL     1       5.805   4.484  18.319  0.00  0.00    +0.000 A 
ENDROOT
BRANCH   1   7
ATOM      7  S   UNL     1       6.358   5.001  15.675  0.00  0.00    +0.000 S 
ATOM      8  O   UNL     1       7.758   4.834  15.995  0.00  0.00    +0.000 OA
ATOM      9  O   UNL     1       5.777   6.290  15.392  0.00  0.00    +0.000 OA
BRANCH   7  10
ATOM     10  N   UNL     1       5.972   3.986  14.379  0.00  0.00    +0.000 NA
ATOM     11  H   UNL     1       6.086   3.001  14.614  0.00  0.00    +0.000 HD
BRANCH  10  13
ATOM     12  C   UNL     1       7.740   5.027  12.962  0.00  0.00    +0.000 C 
ATOM     13  C   UNL     1       6.380   4.349  13.003  0.00  0.00    +0.000 C 
ATOM     14  C   UNL     1       6.420   3.067  12.170  0.00  0.00    +0.000 C 
ENDBRANCH  10  13
ENDBRANCH   7  10
ENDBRANCH   1   7
BRANCH   4  15
ATOM     15  O   UNL     1       2.968   2.824  20.028  0.00  0.00    +0.000 OA
BRANCH  15  16
ATOM     16  C   UNL     1       2.671   3.704  21.108  0.00  0.00    +0.000 C 
BRANCH  16  17
ATOM     17  C   UNL     1       1.803   4.871  20.634  0.00  0.00    +0.000 C 
ATOM     18  O   UNL     1       0.633   4.676  20.313  0.00  0.00    +0.000 OA
ATOM     19  N   UNL     1       2.471   6.085  20.600  0.00  0.00    +0.000 N 
ATOM     20  H   UNL     1       3.474   6.032  20.754  0.00  0.00    +0.000 HD
BRANCH  19  21
ATOM     21  C   UNL     1       1.919   7.341  20.284  0.00  0.00    +0.000 A 
ATOM     22  C   UNL     1       1.224   8.121  21.214  0.00  0.00    +0.000 A 
ATOM     23  C   UNL     1       0.670   9.351  20.847  0.00  0.00    +0.000 A 
ATOM     24  C   UNL     1       0.809   9.812  19.543  0.00  0.00    +0.000 A 
ATOM     25  C   UNL     1       1.520   9.050  18.625  0.00  0.00    +0.000 A 
ATOM     26  F   UNL     1       1.653   9.492  17.368  0.00  0.00    +0.000 F 
ATOM     27  C   UNL     1       2.089   7.829  18.984  0.00  0.00    +0.000 A 
ENDBRANCH  19  21
ENDBRANCH  16  17
ENDBRANCH  15  16
ENDBRANCH   4  15
TORSDOF 7
ENDMDL
MODEL 7
REMARK VINA RESULT:      -7.5      2.010      2.780
REMARK  Name = 
REMARK  9 active torsions:
REMARK  status: ('A' for Active; 'I' for Inactive)
REMARK    1  A    between atoms: C_1  and  C_2
REMARK    2  A    between atoms: C_2  and  C_3
REMARK    3  A    between atoms: C_2  and  N_4
REMARK    4  A    between atoms: N_4  and  S_5
REMARK    5  A    between atoms: S_5  and  C_8
REMARK    6  A    between atoms: C_11  and  O_12
REMARK    7  A    between atoms: O_12  and  C_13
REMARK    8  A    between atoms: C_13  and  C_14
REMARK    9  A    between atoms: N_16  and  C_17
REMARK                            x       y       z     vdW  Elec       q    Type
REMARK                         _______ _______ _______ _____ _____    ______ ____
ROOT
ATOM      1  C   UNL     1       5.366   4.438  17.336  0.00  0.00    +0.000 A 
ATOM      2  C   UNL     1       5.693   4.362  18.689  0.00  0.00    +0.000 A 
ATOM      3  C   UNL     1       4.834   3.695  19.563  0.00  0.00    +0.000 A 
ATOM      4  C   UNL     1       3.636   3.145  19.100  0.00  0.00    +0.000 A 
ATOM      5  C   UNL     1       3.296   3.253  17.749  0.00  0.00    +0.000 A 
ATOM      6  C   UNL     1       4.161   3.905  16.864  0.00  0.00    +0.000 A 
ENDROOT
BRANCH   1   7
ATOM      7  S   UNL     1       6.482   5.212  16.179  0.00  0.00    +0.000 S 
ATOM      8  O   UNL     1       5.843   5.260  14.883  0.00  0.00    +0.000 OA
ATOM      9  O   UNL     1       7.765   4.587  16.387  0.00  0.00    +0.000 OA
BRANCH   7  10
ATOM     10  N   UNL     1       6.589   6.784  16.790  0.00  0.00    +0.000 NA
ATOM     11  H   UNL     1       6.143   7.466  16.178  0.00  0.00    +0.000 HD
BRANCH  10  13
ATOM     12  C   UNL     1       7.863   8.757  17.627  0.00  0.00    +0.000 C 
ATOM     13  C   UNL     1       7.838   7.249  17.434  0.00  0.00    +0.000 C 
ATOM     14  C   UNL     1       7.955   6.556  18.792  0.00  0.00    +0.000 C 
ENDBRANCH  10  13
ENDBRANCH   7  10
ENDBRANCH   1   7
BRANCH   4  15
ATOM     15  O   UNL     1       2.910   2.481  20.048  0.00  0.00    +0.000 OA
BRANCH  15  16
ATOM     16  C   UNL     1       2.402   3.280  21.112  0.00  0.00    +0.000 C 
BRANCH  16  17
ATOM     17  C   UNL     1       1.647   4.494  20.568  0.00  0.00    +0.000 C 
ATOM     18  O   UNL     1       0.500   4.365  20.145  0.00  0.00    +0.000 OA
ATOM     19  N   UNL     1       2.384   5.667  20.596  0.00  0.00    +0.000 N 
ATOM     20  H   UNL     1       3.365   5.557  20.836  0.00  0.00    +0.000 HD
BRANCH  19  21
ATOM     21  C   UNL     1       1.935   6.952  20.236  0.00  0.00    +0.000 A 
ATOM     22  C   UNL     1       2.197   7.526  18.988  0.00  0.00    +0.000 A 
ATOM     23  C   UNL     1       1.753   8.816  18.684  0.00  0.00    +0.000 A 
ATOM     24  C   UNL     1       1.040   9.545  19.630  0.00  0.00    +0.000 A 
ATOM     25  C   UNL     1       0.758   8.966  20.861  0.00  0.00    +0.000 A 
ATOM     26  F   UNL     1       0.072   9.666  21.774  0.00  0.00    +0.000 F 
ATOM     27  C   UNL     1       1.184   7.674  21.169  0.00  0.00    +0.000 A 
ENDBRANCH  19  21
ENDBRANCH  16  17
ENDBRANCH  15  16
ENDBRANCH   4  15
TORSDOF 7
ENDMDL
MODEL 8
REMARK VINA RESULT:      -7.4      5.718      7.544
REMARK  Name = 
REMARK  9 active torsions:
REMARK  status: ('A' for Active; 'I' for Inactive)
REMARK    1  A    between atoms: C_1  and  C_2
REMARK    2  A    between atoms: C_2  and  C_3
REMARK    3  A    between atoms: C_2  and  N_4
REMARK    4  A    between atoms: N_4  and  S_5
REMARK    5  A    between atoms: S_5  and  C_8
REMARK    6  A    between atoms: C_11  and  O_12
REMARK    7  A    between atoms: O_12  and  C_13
REMARK    8  A    between atoms: C_13  and  C_14
REMARK    9  A    between atoms: N_16  and  C_17
REMARK                            x       y       z     vdW  Elec       q    Type
REMARK                         _______ _______ _______ _____ _____    ______ ____
ROOT
ATOM      1  C   UNL     1       5.031   4.488  18.528  0.00  0.00    +0.000 A 
ATOM      2  C   UNL     1       6.341   4.747  18.930  0.00  0.00    +0.000 A 
ATOM      3  C   UNL     1       6.970   5.915  18.499  0.00  0.00    +0.000 A 
ATOM      4  C   UNL     1       6.314   6.799  17.638  0.00  0.00    +0.000 A 
ATOM      5  C   UNL     1       5.014   6.519  17.211  0.00  0.00    +0.000 A 
ATOM      6  C   UNL     1       4.371   5.358  17.653  0.00  0.00    +0.000 A 
ENDROOT
BRANCH   1   7
ATOM      7  S   UNL     1       4.171   3.045  19.127  0.00  0.00    +0.000 S 
ATOM      8  O   UNL     1       5.119   2.189  19.805  0.00  0.00    +0.000 OA
ATOM      9  O   UNL     1       3.358   2.584  18.029  0.00  0.00    +0.000 OA
BRANCH   7  10
ATOM     10  N   UNL     1       3.123   3.710  20.276  0.00  0.00    +0.000 NA
ATOM     11  H   UNL     1       3.084   3.153  21.129  0.00  0.00    +0.000 HD
BRANCH  10  13
ATOM     12  C   UNL     1       0.649   3.409  20.214  0.00  0.00    +0.000 C 
ATOM     13  C   UNL     1       1.831   4.295  19.855  0.00  0.00    +0.000 C 
ATOM     14  C   UNL     1       1.681   5.653  20.543  0.00  0.00    +0.000 C 
ENDBRANCH  10  13
ENDBRANCH   7  10
ENDBRANCH   1   7
BRANCH   4  15
ATOM     15  O   UNL     1       7.023   7.925  17.329  0.00  0.00    +0.000 OA
BRANCH  15  16
ATOM     16  C   UNL     1       8.268   8.078  18.004  0.00  0.00    +0.000 C 
BRANCH  16  17
ATOM     17  C   UNL     1       8.538   9.551  18.318  0.00  0.00    +0.000 C 
ATOM     18  O   UNL     1       8.073  10.428  17.593  0.00  0.00    +0.000 OA
ATOM     19  N   UNL     1       9.333   9.746  19.435  0.00  0.00    +0.000 N 
ATOM     20  H   UNL     1       9.752   8.905  19.822  0.00  0.00    +0.000 HD
BRANCH  19  21
ATOM     21  C   UNL     1       9.686  10.981  20.012  0.00  0.00    +0.000 A 
ATOM     22  C   UNL     1       9.025  11.517  21.122  0.00  0.00    +0.000 A 
ATOM     23  C   UNL     1       9.393  12.760  21.646  0.00  0.00    +0.000 A 
ATOM     24  C   UNL     1      10.429  13.479  21.060  0.00  0.00    +0.000 A 
ATOM     25  C   UNL     1      11.101  12.937  19.972  0.00  0.00    +0.000 A 
ATOM     26  F   UNL     1      12.099  13.629  19.405  0.00  0.00    +0.000 F 
ATOM     27  C   UNL     1      10.752  11.691  19.452  0.00  0.00    +0.000 A 
ENDBRANCH  19  21
ENDBRANCH  16  17
ENDBRANCH  15  16
ENDBRANCH   4  15
TORSDOF 7
ENDMDL
MODEL 9
REMARK VINA RESULT:      -7.3      3.644      8.507
REMARK  Name = 
REMARK  9 active torsions:
REMARK  status: ('A' for Active; 'I' for Inactive)
REMARK    1  A    between atoms: C_1  and  C_2
REMARK    2  A    between atoms: C_2  and  C_3
REMARK    3  A    between atoms: C_2  and  N_4
REMARK    4  A    between atoms: N_4  and  S_5
REMARK    5  A    between atoms: S_5  and  C_8
REMARK    6  A    between atoms: C_11  and  O_12
REMARK    7  A    between atoms: O_12  and  C_13
REMARK    8  A    between atoms: C_13  and  C_14
REMARK    9  A    between atoms: N_16  and  C_17
REMARK                            x       y       z     vdW  Elec       q    Type
REMARK                         _______ _______ _______ _____ _____    ______ ____
ROOT
ATOM      1  C   UNL     1       1.427   8.629  19.857  0.00  0.00    +0.000 A 
ATOM      2  C   UNL     1       1.753   7.413  20.456  0.00  0.00    +0.000 A 
ATOM      3  C   UNL     1       2.534   6.493  19.756  0.00  0.00    +0.000 A 
ATOM      4  C   UNL     1       2.953   6.765  18.451  0.00  0.00    +0.000 A 
ATOM      5  C   UNL     1       2.596   7.970  17.842  0.00  0.00    +0.000 A 
ATOM      6  C   UNL     1       1.827   8.903  18.544  0.00  0.00    +0.000 A 
ENDROOT
BRANCH   1   7
ATOM      7  S   UNL     1       0.499   9.859  20.754  0.00  0.00    +0.000 S 
ATOM      8  O   UNL     1       1.416  10.631  21.563  0.00  0.00    +0.000 OA
ATOM      9  O   UNL     1      -0.636   9.168  21.316  0.00  0.00    +0.000 OA
BRANCH   7  10
ATOM     10  N   UNL     1      -0.084  10.841  19.508  0.00  0.00    +0.000 NA
ATOM     11  H   UNL     1       0.291  11.787  19.556  0.00  0.00    +0.000 HD
BRANCH  10  13
ATOM     12  C   UNL     1      -2.207  12.100  19.155  0.00  0.00    +0.000 C 
ATOM     13  C   UNL     1      -1.502  10.754  19.092  0.00  0.00    +0.000 C 
ATOM     14  C   UNL     1      -1.542  10.221  17.659  0.00  0.00    +0.000 C 
ENDBRANCH  10  13
ENDBRANCH   7  10
ENDBRANCH   1   7
BRANCH   4  15
ATOM     15  O   UNL     1       3.749   5.803  17.897  0.00  0.00    +0.000 OA
BRANCH  15  16
ATOM     16  C   UNL     1       5.084   6.199  17.598  0.00  0.00    +0.000 C 
BRANCH  16  17
ATOM     17  C   UNL     1       5.346   6.134  16.093  0.00  0.00    +0.000 C 
ATOM     18  O   UNL     1       5.059   7.091  15.377  0.00  0.00    +0.000 OA
ATOM     19  N   UNL     1       5.893   4.932  15.673  0.00  0.00    +0.000 N 
ATOM     20  H   UNL     1       5.922   4.199  16.377  0.00  0.00    +0.000 HD
BRANCH  19  21
ATOM     21  C   UNL     1       6.311   4.607  14.368  0.00  0.00    +0.000 A 
ATOM     22  C   UNL     1       7.424   5.196  13.759  0.00  0.00    +0.000 A 
ATOM     23  C   UNL     1       7.787   4.861  12.452  0.00  0.00    +0.000 A 
ATOM     24  C   UNL     1       7.037   3.931  11.741  0.00  0.00    +0.000 A 
ATOM     25  C   UNL     1       5.946   3.328  12.354  0.00  0.00    +0.000 A 
ATOM     26  F   UNL     1       5.221   2.432  11.670  0.00  0.00    +0.000 F 
ATOM     27  C   UNL     1       5.584   3.643  13.663  0.00  0.00    +0.000 A 
ENDBRANCH  19  21
ENDBRANCH  16  17
ENDBRANCH  15  16
ENDBRANCH   4  15
TORSDOF 7
ENDMDL
