MODEL 1
REMARK VINA RESULT:      -8.1      0.000      0.000
REMARK  Name = 
REMARK  5 active torsions:
REMARK  status: ('A' for Active; 'I' for Inactive)
REMARK    1  A    between atoms: C_1  and  N_2
REMARK    2  A    between atoms: C_4  and  C_5
REMARK    3  A    between atoms: C_5  and  N_6
REMARK    4  A    between atoms: C_12  and  C_13
REMARK    5  A    between atoms: C_16  and  C_17
REMARK                            x       y       z     vdW  Elec       q    Type
REMARK                         _______ _______ _______ _____ _____    ______ ____
ROOT
ATOM      1  C   UNL     1       6.788   4.816  15.096  0.00  0.00    +0.000 C 
ATOM      2  N   UNL     1       6.057   4.645  16.324  0.00  0.00    +0.000 N 
ATOM      3  N   UNL     1       5.120   3.678  16.411  0.00  0.00    +0.000 NA
ATOM      4  C   UNL     1       4.754   3.772  17.696  0.00  0.00    +0.000 A 
ATOM      5  N   UNL     1       5.444   4.713  18.412  0.00  0.00    +0.000 NA
ATOM      6  C   UNL     1       6.192   5.322  17.512  0.00  0.00    +0.000 A 
ENDROOT
BRANCH   6   7
ATOM      7  C   UNL     1       6.978   6.524  17.776  0.00  0.00    +0.000 A 
ATOM      8  C   UNL     1       7.948   6.498  18.781  0.00  0.00    +0.000 A 
ATOM      9  C   UNL     1       8.657   7.656  19.121  0.00  0.00    +0.000 A 
ATOM     10  C   UNL     1       8.430   8.877  18.463  0.00  0.00    +0.000 A 
ATOM     11  C   UNL     1       7.437   8.891  17.468  0.00  0.00    +0.000 A 
ATOM     12  C   UNL     1       6.714   7.738  17.138  0.00  0.00    +0.000 A 
BRANCH  10  13
ATOM     13  C   UNL     1       9.202  10.094  18.809  0.00  0.00    +0.000 A 
ATOM     14  C   UNL     1       9.411  10.465  20.150  0.00  0.00    +0.000 A 
ATOM     15  C   UNL     1      10.137  11.609  20.490  0.00  0.00    +0.000 A 
ATOM     16  C   UNL     1      10.686  12.405  19.493  0.00  0.00    +0.000 A 
ATOM     17  C   UNL     1      10.504  12.062  18.158  0.00  0.00    +0.000 A 
ATOM     18  C   UNL     1       9.764  10.924  17.820  0.00  0.00    +0.000 A 
ENDBRANCH  10  13
ENDBRANCH   6   7
BRANCH   4  19
ATOM     19  C   UNL     1       3.627   2.989  18.302  0.00  0.00    +0.000 C 
BRANCH  19  20
ATOM     20  N   UNL     1       2.314   3.675  18.305  0.00  0.00    +0.000 NA
ATOM     21  C   UNL     1       2.232   4.801  19.238  0.00  0.00    +0.000 C 
ATOM     22  C   UNL     1       1.551   4.276  20.489  0.00  0.00    +0.000 C 
ATOM     23  C   UNL     1       0.670   3.143  19.998  0.00  0.00    +0.000 C 
ATOM     24  C   UNL     1       1.183   2.790  18.604  0.00  0.00    +0.000 C 
ENDBRANCH  19  20
ENDBRANCH   4  19
TORSDOF 4
ENDMDL
MODEL 2
REMARK VINA RESULT:      -8.0      0.318      1.421
REMARK  Name = 
REMARK  5 active torsions:
REMARK  status: ('A' for Active; 'I' for Inactive)
REMARK    1  A    between atoms: C_1  and  N_2
REMARK    2  A    between atoms: C_4  and  C_5
REMARK    3  A    between atoms: C_5  and  N_6
REMARK    4  A    between atoms: C_12  and  C_13
REMARK    5  A    between atoms: C_16  and  C_17
REMARK                            x       y       z     vdW  Elec       q    Type
REMARK                         _______ _______ _______ _____ _____    ______ ____
ROOT
ATOM      1  C   UNL     1       6.968   4.808  15.138  0.00  0.00    +0.000 C 
ATOM      2  N   UNL     1       6.154   4.552  16.298  0.00  0.00    +0.000 N 
ATOM      3  N   UNL     1       5.248   3.553  16.266  0.00  0.00    +0.000 NA
ATOM      4  C   UNL     1       4.783   3.571  17.523  0.00  0.00    +0.000 A 
ATOM      5  N   UNL     1       5.385   4.496  18.334  0.00  0.00    +0.000 NA
ATOM      6  C   UNL     1       6.176   5.172  17.524  0.00  0.00    +0.000 A 
ENDROOT
BRANCH   6   7
ATOM      7  C   UNL     1       6.898   6.382  17.904  0.00  0.00    +0.000 A 
ATOM      8  C   UNL     1       6.644   7.572  17.217  0.00  0.00    +0.000 A 
ATOM      9  C   UNL     1       7.380   8.730  17.495  0.00  0.00    +0.000 A 
ATOM     10  C   UNL     1       8.388   8.744  18.474  0.00  0.00    +0.000 A 
ATOM     11  C   UNL     1       8.645   7.534  19.142  0.00  0.00    +0.000 A 
ATOM     12  C   UNL     1       7.921   6.369  18.854  0.00  0.00    +0.000 A 
BRANCH  10  13
ATOM     13  C   UNL     1       9.146   9.979  18.782  0.00  0.00    +0.000 A 
ATOM     14  C   UNL     1       9.696  10.769  17.756  0.00  0.00    +0.000 A 
ATOM     15  C   UNL     1      10.413  11.936  18.032  0.00  0.00    +0.000 A 
ATOM     16  C   UNL     1      10.585  12.350  19.347  0.00  0.00    +0.000 A 
ATOM     17  C   UNL     1      10.049  11.595  20.384  0.00  0.00    +0.000 A 
ATOM     18  C   UNL     1       9.344  10.420  20.105  0.00  0.00    +0.000 A 
ENDBRANCH  10  13
ENDBRANCH   6   7
BRANCH   4  19
ATOM     19  C   UNL     1       3.642   2.724  18.002  0.00  0.00    +0.000 C 
BRANCH  19  20
ATOM     20  N   UNL     1       2.305   3.354  17.905  0.00  0.00    +0.000 NA
ATOM     21  C   UNL     1       2.255   4.726  18.418  0.00  0.00    +0.000 C 
ATOM     22  C   UNL     1       1.709   4.639  19.831  0.00  0.00    +0.000 C 
ATOM     23  C   UNL     1       0.839   3.395  19.830  0.00  0.00    +0.000 C 
ATOM     24  C   UNL     1       1.245   2.605  18.587  0.00  0.00    +0.000 C 
ENDBRANCH  19  20
ENDBRANCH   4  19
TORSDOF 4
ENDMDL
MODEL 3
REMARK VINA RESULT:      -7.9      0.456      1.081
REMARK  Name = 
REMARK  5 active torsions:
REMARK  status: ('A' for Active; 'I' for Inactive)
REMARK    1  A    between atoms: C_1  and  N_2
REMARK    2  A    between atoms: C_4  and  C_5
REMARK    3  A    between atoms: C_5  and  N_6
REMARK    4  A    between atoms: C_12  and  C_13
REMARK    5  A    between atoms: C_16  and  C_17
REMARK                            x       y       z     vdW  Elec       q    Type
REMARK                         _______ _______ _______ _____ _____    ______ ____
ROOT
ATOM      1  C   UNL     1       5.816   5.324  14.976  0.00  0.00    +0.000 C 
ATOM      2  N   UNL     1       5.464   4.909  16.309  0.00  0.00    +0.000 N 
ATOM      3  N   UNL     1       4.582   3.902  16.479  0.00  0.00    +0.000 NA
ATOM      4  C   UNL     1       4.597   3.754  17.811  0.00  0.00    +0.000 A 
ATOM      5  N   UNL     1       5.470   4.585  18.462  0.00  0.00    +0.000 NA
ATOM      6  C   UNL     1       5.936   5.373  17.512  0.00  0.00    +0.000 A 
ENDROOT
BRANCH   6   7
ATOM      7  C   UNL     1       6.773   6.543  17.756  0.00  0.00    +0.000 A 
ATOM      8  C   UNL     1       7.829   6.450  18.667  0.00  0.00    +0.000 A 
ATOM      9  C   UNL     1       8.596   7.574  18.991  0.00  0.00    +0.000 A 
ATOM     10  C   UNL     1       8.343   8.830  18.412  0.00  0.00    +0.000 A 
ATOM     11  C   UNL     1       7.266   8.912  17.514  0.00  0.00    +0.000 A 
ATOM     12  C   UNL     1       6.485   7.792  17.200  0.00  0.00    +0.000 A 
BRANCH  10  13
ATOM     13  C   UNL     1       9.176  10.011  18.740  0.00  0.00    +0.000 A 
ATOM     14  C   UNL     1       9.768  10.786  17.726  0.00  0.00    +0.000 A 
ATOM     15  C   UNL     1      10.555  11.902  18.021  0.00  0.00    +0.000 A 
ATOM     16  C   UNL     1      10.758  12.279  19.342  0.00  0.00    +0.000 A 
ATOM     17  C   UNL     1      10.181  11.538  20.368  0.00  0.00    +0.000 A 
ATOM     18  C   UNL     1       9.405  10.413  20.070  0.00  0.00    +0.000 A 
ENDBRANCH  10  13
ENDBRANCH   6   7
BRANCH   4  19
ATOM     19  C   UNL     1       3.683   2.828  18.558  0.00  0.00    +0.000 C 
BRANCH  19  20
ATOM     20  N   UNL     1       2.258   3.231  18.577  0.00  0.00    +0.000 NA
ATOM     21  C   UNL     1       2.043   4.650  18.872  0.00  0.00    +0.000 C 
ATOM     22  C   UNL     1       1.709   4.737  20.350  0.00  0.00    +0.000 C 
ATOM     23  C   UNL     1       1.071   3.401  20.678  0.00  0.00    +0.000 C 
ATOM     24  C   UNL     1       1.438   2.469  19.525  0.00  0.00    +0.000 C 
ENDBRANCH  19  20
ENDBRANCH   4  19
TORSDOF 4
ENDMDL
MODEL 4
REMARK VINA RESULT:      -7.9      3.936      7.126
REMARK  Name = 
REMARK  5 active torsions:
REMARK  status: ('A' for Active; 'I' for Inactive)
REMARK    1  A    between atoms: C_1  and  N_2
REMARK    2  A    between atoms: C_4  and  C_5
REMARK    3  A    between atoms: C_5  and  N_6
REMARK    4  A    between atoms: C_12  and  C_13
REMARK    5  A    between atoms: C_16  and  C_17
REMARK                            x       y       z     vdW  Elec       q    Type
REMARK                         _______ _______ _______ _____ _____    ______ ____
ROOT
ATOM      1  C   UNL     1       2.388   3.728  18.133  0.00  0.00    +0.000 C 
ATOM      2  N   UNL     1       3.349   4.639  17.569  0.00  0.00    +0.000 N 
ATOM      3  N   UNL     1       4.340   4.161  16.787  0.00  0.00    +0.000 NA
ATOM      4  C   UNL     1       4.940   5.292  16.391  0.00  0.00    +0.000 A 
ATOM      5  N   UNL     1       4.346   6.437  16.851  0.00  0.00    +0.000 NA
ATOM      6  C   UNL     1       3.406   6.008  17.671  0.00  0.00    +0.000 A 
ENDROOT
BRANCH   6   7
ATOM      7  C   UNL     1       2.617   6.877  18.540  0.00  0.00    +0.000 A 
ATOM      8  C   UNL     1       2.198   8.121  18.062  0.00  0.00    +0.000 A 
ATOM      9  C   UNL     1       1.518   9.016  18.896  0.00  0.00    +0.000 A 
ATOM     10  C   UNL     1       1.223   8.696  20.233  0.00  0.00    +0.000 A 
ATOM     11  C   UNL     1       1.669   7.449  20.704  0.00  0.00    +0.000 A 
ATOM     12  C   UNL     1       2.365   6.559  19.876  0.00  0.00    +0.000 A 
BRANCH  10  13
ATOM     13  C   UNL     1       0.479   9.636  21.104  0.00  0.00    +0.000 A 
ATOM     14  C   UNL     1      -0.074   9.212  22.326  0.00  0.00    +0.000 A 
ATOM     15  C   UNL     1      -0.778  10.087  23.156  0.00  0.00    +0.000 A 
ATOM     16  C   UNL     1      -0.934  11.418  22.789  0.00  0.00    +0.000 A 
ATOM     17  C   UNL     1      -0.393  11.871  21.591  0.00  0.00    +0.000 A 
ATOM     18  C   UNL     1       0.299  10.988  20.755  0.00  0.00    +0.000 A 
ENDBRANCH  10  13
ENDBRANCH   6   7
BRANCH   4  19
ATOM     19  C   UNL     1       6.205   5.327  15.586  0.00  0.00    +0.000 C 
BRANCH  19  20
ATOM     20  N   UNL     1       7.448   5.488  16.375  0.00  0.00    +0.000 NA
ATOM     21  C   UNL     1       7.593   4.519  17.464  0.00  0.00    +0.000 C 
ATOM     22  C   UNL     1       7.133   5.219  18.729  0.00  0.00    +0.000 C 
ATOM     23  C   UNL     1       7.407   6.689  18.475  0.00  0.00    +0.000 C 
ATOM     24  C   UNL     1       7.607   6.821  16.966  0.00  0.00    +0.000 C 
ENDBRANCH  19  20
ENDBRANCH   4  19
TORSDOF 4
ENDMDL
MODEL 5
REMARK VINA RESULT:      -7.9      4.135      7.275
REMARK  Name = 
REMARK  5 active torsions:
REMARK  status: ('A' for Active; 'I' for Inactive)
REMARK    1  A    between atoms: C_1  and  N_2
REMARK    2  A    between atoms: C_4  and  C_5
REMARK    3  A    between atoms: C_5  and  N_6
REMARK    4  A    between atoms: C_12  and  C_13
REMARK    5  A    between atoms: C_16  and  C_17
REMARK                            x       y       z     vdW  Elec       q    Type
REMARK                         _______ _______ _______ _____ _____    ______ ____
ROOT
ATOM      1  C   UNL     1       2.512   3.990  18.369  0.00  0.00    +0.000 C 
ATOM      2  N   UNL     1       3.375   4.936  17.711  0.00  0.00    +0.000 N 
ATOM      3  N   UNL     1       4.354   4.487  16.898  0.00  0.00    +0.000 NA
ATOM      4  C   UNL     1       4.851   5.635  16.416  0.00  0.00    +0.000 A 
ATOM      5  N   UNL     1       4.202   6.759  16.855  0.00  0.00    +0.000 NA
ATOM      6  C   UNL     1       3.340   6.309  17.745  0.00  0.00    +0.000 A 
ENDROOT
BRANCH   6   7
ATOM      7  C   UNL     1       2.538   7.164  18.616  0.00  0.00    +0.000 A 
ATOM      8  C   UNL     1       2.087   8.396  18.135  0.00  0.00    +0.000 A 
ATOM      9  C   UNL     1       1.394   9.279  18.970  0.00  0.00    +0.000 A 
ATOM     10  C   UNL     1       1.117   8.961  20.311  0.00  0.00    +0.000 A 
ATOM     11  C   UNL     1       1.594   7.726  20.784  0.00  0.00    +0.000 A 
ATOM     12  C   UNL     1       2.304   6.848  19.956  0.00  0.00    +0.000 A 
BRANCH  10  13
ATOM     13  C   UNL     1       0.359   9.889  21.182  0.00  0.00    +0.000 A 
ATOM     14  C   UNL     1       0.190  11.241  20.831  0.00  0.00    +0.000 A 
ATOM     15  C   UNL     1      -0.521  12.127  21.644  0.00  0.00    +0.000 A 
ATOM     16  C   UNL     1      -1.097  11.676  22.825  0.00  0.00    +0.000 A 
ATOM     17  C   UNL     1      -0.955  10.344  23.197  0.00  0.00    +0.000 A 
ATOM     18  C   UNL     1      -0.229   9.462  22.389  0.00  0.00    +0.000 A 
ENDBRANCH  10  13
ENDBRANCH   6   7
BRANCH   4  19
ATOM     19  C   UNL     1       6.066   5.716  15.541  0.00  0.00    +0.000 C 
BRANCH  19  20
ATOM     20  N   UNL     1       7.359   5.765  16.262  0.00  0.00    +0.000 NA
ATOM     21  C   UNL     1       7.645   4.567  17.055  0.00  0.00    +0.000 C 
ATOM     22  C   UNL     1       7.251   4.891  18.485  0.00  0.00    +0.000 C 
ATOM     23  C   UNL     1       7.424   6.394  18.597  0.00  0.00    +0.000 C 
ATOM     24  C   UNL     1       7.493   6.915  17.163  0.00  0.00    +0.000 C 
ENDBRANCH  19  20
ENDBRANCH   4  19
TORSDOF 4
ENDMDL
MODEL 6
REMARK VINA RESULT:      -7.9      4.199      7.205
REMARK  Name = 
REMARK  5 active torsions:
REMARK  status: ('A' for Active; 'I' for Inactive)
REMARK    1  A    between atoms: C_1  and  N_2
REMARK    2  A    between atoms: C_4  and  C_5
REMARK    3  A    between atoms: C_5  and  N_6
REMARK    4  A    between atoms: C_12  and  C_13
REMARK    5  A    between atoms: C_16  and  C_17
REMARK                            x       y       z     vdW  Elec       q    Type
REMARK                         _______ _______ _______ _____ _____    ______ ____
ROOT
ATOM      1  C   UNL     1       2.231   4.272  18.209  0.00  0.00    +0.000 C 
ATOM      2  N   UNL     1       3.225   5.123  17.611  0.00  0.00    +0.000 N 
ATOM      3  N   UNL     1       4.181   4.580  16.828  0.00  0.00    +0.000 NA
ATOM      4  C   UNL     1       4.828   5.671  16.396  0.00  0.00    +0.000 A 
ATOM      5  N   UNL     1       4.295   6.854  16.835  0.00  0.00    +0.000 NA
ATOM      6  C   UNL     1       3.347   6.490  17.677  0.00  0.00    +0.000 A 
ENDROOT
BRANCH   6   7
ATOM      7  C   UNL     1       2.612   7.415  18.534  0.00  0.00    +0.000 A 
ATOM      8  C   UNL     1       2.386   7.075  19.870  0.00  0.00    +0.000 A 
ATOM      9  C   UNL     1       1.610   7.895  20.696  0.00  0.00    +0.000 A 
ATOM     10  C   UNL     1       1.040   9.090  20.221  0.00  0.00    +0.000 A 
ATOM     11  C   UNL     1       1.260   9.408  18.870  0.00  0.00    +0.000 A 
ATOM     12  C   UNL     1       2.022   8.580  18.036  0.00  0.00    +0.000 A 
BRANCH  10  13
ATOM     13  C   UNL     1       0.241   9.968  21.108  0.00  0.00    +0.000 A 
ATOM     14  C   UNL     1      -0.209   9.518  22.363  0.00  0.00    +0.000 A 
ATOM     15  C   UNL     1      -0.963  10.335  23.208  0.00  0.00    +0.000 A 
ATOM     16  C   UNL     1      -1.274  11.633  22.823  0.00  0.00    +0.000 A 
ATOM     17  C   UNL     1      -0.839  12.111  21.593  0.00  0.00    +0.000 A 
ATOM     18  C   UNL     1      -0.096  11.285  20.742  0.00  0.00    +0.000 A 
ENDBRANCH  10  13
ENDBRANCH   6   7
BRANCH   4  19
ATOM     19  C   UNL     1       6.082   5.627  15.575  0.00  0.00    +0.000 C 
BRANCH  19  20
ATOM     20  N   UNL     1       7.343   5.714  16.347  0.00  0.00    +0.000 NA
ATOM     21  C   UNL     1       7.623   4.533  17.166  0.00  0.00    +0.000 C 
ATOM     22  C   UNL     1       7.165   4.867  18.575  0.00  0.00    +0.000 C 
ATOM     23  C   UNL     1       7.300   6.374  18.674  0.00  0.00    +0.000 C 
ATOM     24  C   UNL     1       7.416   6.878  17.237  0.00  0.00    +0.000 C 
ENDBRANCH  19  20
ENDBRANCH   4  19
TORSDOF 4
ENDMDL
MODEL 7
REMARK VINA RESULT:      -7.7      0.726      1.446
REMARK  Name = 
REMARK  5 active torsions:
REMARK  status: ('A' for Active; 'I' for Inactive)
REMARK    1  A    between atoms: C_1  and  N_2
REMARK    2  A    between atoms: C_4  and  C_5
REMARK    3  A    between atoms: C_5  and  N_6
REMARK    4  A    between atoms: C_12  and  C_13
REMARK    5  A    between atoms: C_16  and  C_17
REMARK                            x       y       z     vdW  Elec       q    Type
REMARK                         _______ _______ _______ _____ _____    ______ ____
ROOT
ATOM      1  C   UNL     1       5.959   5.232  15.113  0.00  0.00    +0.000 C 
ATOM      2  N   UNL     1       5.583   4.877  16.457  0.00  0.00    +0.000 N 
ATOM      3  N   UNL     1       4.699   3.877  16.657  0.00  0.00    +0.000 NA
ATOM      4  C   UNL     1       4.689   3.789  17.994  0.00  0.00    +0.000 A 
ATOM      5  N   UNL     1       5.551   4.649  18.622  0.00  0.00    +0.000 NA
ATOM      6  C   UNL     1       6.033   5.395  17.647  0.00  0.00    +0.000 A 
ENDROOT
BRANCH   6   7
ATOM      7  C   UNL     1       6.866   6.576  17.853  0.00  0.00    +0.000 A 
ATOM      8  C   UNL     1       7.899   6.527  18.792  0.00  0.00    +0.000 A 
ATOM      9  C   UNL     1       8.659   7.666  19.079  0.00  0.00    +0.000 A 
ATOM     10  C   UNL     1       8.422   8.892  18.433  0.00  0.00    +0.000 A 
ATOM     11  C   UNL     1       7.366   8.930  17.506  0.00  0.00    +0.000 A 
ATOM     12  C   UNL     1       6.592   7.795  17.229  0.00  0.00    +0.000 A 
BRANCH  10  13
ATOM     13  C   UNL     1       9.247  10.088  18.722  0.00  0.00    +0.000 A 
ATOM     14  C   UNL     1       9.750  10.892  17.683  0.00  0.00    +0.000 A 
ATOM     15  C   UNL     1      10.530  12.022  17.941  0.00  0.00    +0.000 A 
ATOM     16  C   UNL     1      10.814  12.385  19.251  0.00  0.00    +0.000 A 
ATOM     17  C   UNL     1      10.326  11.616  20.302  0.00  0.00    +0.000 A 
ATOM     18  C   UNL     1       9.558  10.477  20.039  0.00  0.00    +0.000 A 
ENDBRANCH  10  13
ENDBRANCH   6   7
BRANCH   4  19
ATOM     19  C   UNL     1       3.762   2.897  18.765  0.00  0.00    +0.000 C 
BRANCH  19  20
ATOM     20  N   UNL     1       3.380   3.396  20.106  0.00  0.00    +0.000 NA
ATOM     21  C   UNL     1       2.500   2.492  20.850  0.00  0.00    +0.000 C 
ATOM     22  C   UNL     1       1.086   3.009  20.656  0.00  0.00    +0.000 C 
ATOM     23  C   UNL     1       1.252   4.499  20.430  0.00  0.00    +0.000 C 
ATOM     24  C   UNL     1       2.725   4.709  20.087  0.00  0.00    +0.000 C 
ENDBRANCH  19  20
ENDBRANCH   4  19
TORSDOF 4
ENDMDL
MODEL 8
REMARK VINA RESULT:      -7.7      0.755      1.437
REMARK  Name = 
REMARK  5 active torsions:
REMARK  status: ('A' for Active; 'I' for Inactive)
REMARK    1  A    between atoms: C_1  and  N_2
REMARK    2  A    between atoms: C_4  and  C_5
REMARK    3  A    between atoms: C_5  and  N_6
REMARK    4  A    between atoms: C_12  and  C_13
REMARK    5  A    between atoms: C_16  and  C_17
REMARK                            x       y       z     vdW  Elec       q    Type
REMARK                         _______ _______ _______ _____ _____    ______ ____
ROOT
ATOM      1  C   UNL     1       7.179   4.413  15.649  0.00  0.00    +0.000 C 
ATOM      2  N   UNL     1       5.997   4.627  16.442  0.00  0.00    +0.000 N 
ATOM      3  N   UNL     1       4.926   3.825  16.267  0.00  0.00    +0.000 NA
ATOM      4  C   UNL     1       4.100   4.265  17.226  0.00  0.00    +0.000 A 
ATOM      5  N   UNL     1       4.623   5.261  18.008  0.00  0.00    +0.000 NA
ATOM      6  C   UNL     1       5.779   5.545  17.440  0.00  0.00    +0.000 A 
ENDROOT
BRANCH   6   7
ATOM      7  C   UNL     1       6.624   6.674  17.821  0.00  0.00    +0.000 A 
ATOM      8  C   UNL     1       6.392   7.925  17.243  0.00  0.00    +0.000 A 
ATOM      9  C   UNL     1       7.236   9.007  17.516  0.00  0.00    +0.000 A 
ATOM     10  C   UNL     1       8.336   8.882  18.383  0.00  0.00    +0.000 A 
ATOM     11  C   UNL     1       8.567   7.612  18.940  0.00  0.00    +0.000 A 
ATOM     12  C   UNL     1       7.733   6.523  18.655  0.00  0.00    +0.000 A 
BRANCH  10  13
ATOM     13  C   UNL     1       9.211  10.038  18.689  0.00  0.00    +0.000 A 
ATOM     14  C   UNL     1       9.434  10.448  20.017  0.00  0.00    +0.000 A 
ATOM     15  C   UNL     1      10.256  11.536  20.320  0.00  0.00    +0.000 A 
ATOM     16  C   UNL     1      10.888  12.234  19.299  0.00  0.00    +0.000 A 
ATOM     17  C   UNL     1      10.694  11.850  17.977  0.00  0.00    +0.000 A 
ATOM     18  C   UNL     1       9.859  10.769  17.676  0.00  0.00    +0.000 A 
ENDBRANCH  10  13
ENDBRANCH   6   7
BRANCH   4  19
ATOM     19  C   UNL     1       2.689   3.787  17.396  0.00  0.00    +0.000 C 
BRANCH  19  20
ATOM     20  N   UNL     1       2.531   2.578  18.236  0.00  0.00    +0.000 NA
ATOM     21  C   UNL     1       1.177   2.392  18.764  0.00  0.00    +0.000 C 
ATOM     22  C   UNL     1       1.189   2.932  20.183  0.00  0.00    +0.000 C 
ATOM     23  C   UNL     1       2.622   2.755  20.648  0.00  0.00    +0.000 C 
ATOM     24  C   UNL     1       3.446   2.528  19.382  0.00  0.00    +0.000 C 
ENDBRANCH  19  20
ENDBRANCH   4  19
TORSDOF 4
ENDMDL
MODEL 9
REMARK VINA RESULT:      -7.6      6.739      9.155
REMARK  Name = 
REMARK  5 active torsions:
REMARK  status: ('A' for Active; 'I' for Inactive)
REMARK    1  A    between atoms: C_1  and  N_2
REMARK    2  A    between atoms: C_4  and  C_5
REMARK    3  A    between atoms: C_5  and  N_6
REMARK    4  A    between atoms: C_12  and  C_13
REMARK    5  A    between atoms: C_16  and  C_17
REMARK                            x       y       z     vdW  Elec       q    Type
REMARK                         _______ _______ _______ _____ _____    ______ ____
ROOT
ATOM      1  C   UNL     1      -1.672  10.204  18.287  0.00  0.00    +0.000 C 
ATOM      2  N   UNL     1      -0.912  10.778  19.366  0.00  0.00    +0.000 N 
ATOM      3  N   UNL     1      -1.388  11.864  20.010  0.00  0.00    +0.000 NA
ATOM      4  C   UNL     1      -0.475  12.025  20.977  0.00  0.00    +0.000 A 
ATOM      5  N   UNL     1       0.510  11.073  20.988  0.00  0.00    +0.000 NA
ATOM      6  C   UNL     1       0.277  10.353  19.909  0.00  0.00    +0.000 A 
ENDROOT
BRANCH   6   7
ATOM      7  C   UNL     1       1.176   9.321  19.401  0.00  0.00    +0.000 A 
ATOM      8  C   UNL     1       1.640   9.406  18.086  0.00  0.00    +0.000 A 
ATOM      9  C   UNL     1       2.431   8.390  17.539  0.00  0.00    +0.000 A 
ATOM     10  C   UNL     1       2.795   7.257  18.287  0.00  0.00    +0.000 A 
ATOM     11  C   UNL     1       2.303   7.176  19.602  0.00  0.00    +0.000 A 
ATOM     12  C   UNL     1       1.497   8.184  20.146  0.00  0.00    +0.000 A 
BRANCH  10  13
ATOM     13  C   UNL     1       3.654   6.196  17.711  0.00  0.00    +0.000 A 
ATOM     14  C   UNL     1       3.452   4.841  18.034  0.00  0.00    +0.000 A 
ATOM     15  C   UNL     1       4.255   3.832  17.499  0.00  0.00    +0.000 A 
ATOM     16  C   UNL     1       5.275   4.153  16.612  0.00  0.00    +0.000 A 
ATOM     17  C   UNL     1       5.497   5.481  16.267  0.00  0.00    +0.000 A 
ATOM     18  C   UNL     1       4.700   6.491  16.816  0.00  0.00    +0.000 A 
ENDBRANCH  10  13
ENDBRANCH   6   7
BRANCH   4  19
ATOM     19  C   UNL     1      -0.459  13.188  21.925  0.00  0.00    +0.000 C 
BRANCH  19  20
ATOM     20  N   UNL     1      -1.038  12.918  23.261  0.00  0.00    +0.000 NA
ATOM     21  C   UNL     1      -2.086  11.895  23.262  0.00  0.00    +0.000 C 
ATOM     22  C   UNL     1      -3.411  12.635  23.240  0.00  0.00    +0.000 C 
ATOM     23  C   UNL     1      -3.120  13.961  23.916  0.00  0.00    +0.000 C 
ATOM     24  C   UNL     1      -1.600  14.106  23.915  0.00  0.00    +0.000 C 
ENDBRANCH  19  20
ENDBRANCH   4  19
TORSDOF 4
ENDMDL
