MODEL 1
REMARK VINA RESULT:      -6.4      0.000      0.000
REMARK  Name = 
REMARK  6 active torsions:
REMARK  status: ('A' for Active; 'I' for Inactive)
REMARK    1  A    between atoms: C_1  and  C_2
REMARK    2  A    between atoms: C_5  and  S_6
REMARK    3  A    between atoms: S_6  and  N_7
REMARK    4  A    between atoms: C_11  and  N_12
REMARK    5  A    between atoms: N_12  and  C_13
REMARK    6  A    between atoms: N_12  and  C_14
REMARK                            x       y       z     vdW  Elec       q    Type
REMARK                         _______ _______ _______ _____ _____    ______ ____
ROOT
ATOM      1  C   UNL     1       1.629   4.760  17.838  0.00  0.00    +0.000 C 
ATOM      2  C   UNL     1       3.103   4.880  18.127  0.00  0.00    +0.000 A 
ATOM      3  C   UNL     1       3.740   6.002  17.541  0.00  0.00    +0.000 A 
ATOM      4  C   UNL     1       5.105   6.212  17.662  0.00  0.00    +0.000 A 
ATOM      5  C   UNL     1       5.845   5.312  18.412  0.00  0.00    +0.000 A 
ATOM      6  C   UNL     1       5.236   4.197  19.007  0.00  0.00    +0.000 A 
ATOM      7  C   UNL     1       3.854   3.932  18.879  0.00  0.00    +0.000 A 
ENDROOT
BRANCH   5   8
ATOM      8  S   UNL     1       7.579   5.565  18.593  0.00  0.00    +0.000 S 
ATOM      9  O   UNL     1       8.297   4.439  18.043  0.00  0.00    +0.000 OA
ATOM     10  O   UNL     1       7.905   6.932  18.242  0.00  0.00    +0.000 OA
BRANCH   8  11
ATOM     11  N   UNL     1       7.754   5.462  20.257  0.00  0.00    +0.000 NA
ATOM     12  H   UNL     1       7.299   6.256  20.707  0.00  0.00    +0.000 HD
ATOM     13  H   UNL     1       7.443   4.552  20.588  0.00  0.00    +0.000 HD
ENDBRANCH   8  11
ENDBRANCH   5   8
BRANCH   7  14
ATOM     14  N   UNL     1       3.324   2.758  19.408  0.00  0.00    +0.000 N 
ATOM     15  C   UNL     1       3.559   1.461  18.767  0.00  0.00    +0.000 C 
ATOM     16  C   UNL     1       2.873   2.643  20.791  0.00  0.00    +0.000 C 
ENDBRANCH   7  14
TORSDOF 3
ENDMDL
MODEL 2
REMARK VINA RESULT:      -6.3      1.681      2.140
REMARK  Name = 
REMARK  6 active torsions:
REMARK  status: ('A' for Active; 'I' for Inactive)
REMARK    1  A    between atoms: C_1  and  C_2
REMARK    2  A    between atoms: C_5  and  S_6
REMARK    3  A    between atoms: S_6  and  N_7
REMARK    4  A    between atoms: C_11  and  N_12
REMARK    5  A    between atoms: N_12  and  C_13
REMARK    6  A    between atoms: N_12  and  C_14
REMARK                            x       y       z     vdW  Elec       q    Type
REMARK                         _______ _______ _______ _____ _____    ______ ____
ROOT
ATOM      1  C   UNL     1       1.638   3.817  17.744  0.00  0.00    +0.000 C 
ATOM      2  C   UNL     1       3.044   4.291  18.002  0.00  0.00    +0.000 A 
ATOM      3  C   UNL     1       3.938   4.143  16.911  0.00  0.00    +0.000 A 
ATOM      4  C   UNL     1       5.280   4.472  17.018  0.00  0.00    +0.000 A 
ATOM      5  C   UNL     1       5.736   4.997  18.217  0.00  0.00    +0.000 A 
ATOM      6  C   UNL     1       4.869   5.160  19.308  0.00  0.00    +0.000 A 
ATOM      7  C   UNL     1       3.503   4.804  19.249  0.00  0.00    +0.000 A 
ENDROOT
BRANCH   5   8
ATOM      8  S   UNL     1       7.435   5.438  18.372  0.00  0.00    +0.000 S 
ATOM      9  O   UNL     1       7.731   6.553  17.504  0.00  0.00    +0.000 OA
ATOM     10  O   UNL     1       7.805   5.433  19.772  0.00  0.00    +0.000 OA
BRANCH   8  11
ATOM     11  N   UNL     1       8.185   4.103  17.691  0.00  0.00    +0.000 NA
ATOM     12  H   UNL     1       8.399   4.283  16.712  0.00  0.00    +0.000 HD
ATOM     13  H   UNL     1       8.984   3.822  18.255  0.00  0.00    +0.000 HD
ENDBRANCH   8  11
ENDBRANCH   5   8
BRANCH   7  14
ATOM     14  N   UNL     1       2.715   4.895  20.393  0.00  0.00    +0.000 N 
ATOM     15  C   UNL     1       1.791   6.016  20.592  0.00  0.00    +0.000 C 
ATOM     16  C   UNL     1       2.425   3.752  21.253  0.00  0.00    +0.000 C 
ENDBRANCH   7  14
TORSDOF 3
ENDMDL
MODEL 3
REMARK VINA RESULT:      -6.2      2.464      3.456
REMARK  Name = 
REMARK  6 active torsions:
REMARK  status: ('A' for Active; 'I' for Inactive)
REMARK    1  A    between atoms: C_1  and  C_2
REMARK    2  A    between atoms: C_5  and  S_6
REMARK    3  A    between atoms: S_6  and  N_7
REMARK    4  A    between atoms: C_11  and  N_12
REMARK    5  A    between atoms: N_12  and  C_13
REMARK    6  A    between atoms: N_12  and  C_14
REMARK                            x       y       z     vdW  Elec       q    Type
REMARK                         _______ _______ _______ _____ _____    ______ ____
ROOT
ATOM      1  C   UNL     1       1.381   4.260  17.904  0.00  0.00    +0.000 C 
ATOM      2  C   UNL     1       2.790   4.708  17.615  0.00  0.00    +0.000 A 
ATOM      3  C   UNL     1       3.648   3.701  17.106  0.00  0.00    +0.000 A 
ATOM      4  C   UNL     1       4.989   3.944  16.854  0.00  0.00    +0.000 A 
ATOM      5  C   UNL     1       5.480   5.221  17.073  0.00  0.00    +0.000 A 
ATOM      6  C   UNL     1       4.648   6.236  17.570  0.00  0.00    +0.000 A 
ATOM      7  C   UNL     1       3.285   6.019  17.871  0.00  0.00    +0.000 A 
ENDROOT
BRANCH   5   8
ATOM      8  S   UNL     1       7.177   5.559  16.746  0.00  0.00    +0.000 S 
ATOM      9  O   UNL     1       7.438   6.968  16.924  0.00  0.00    +0.000 OA
ATOM     10  O   UNL     1       7.998   4.539  17.367  0.00  0.00    +0.000 OA
BRANCH   8  11
ATOM     11  N   UNL     1       7.257   5.273  15.096  0.00  0.00    +0.000 NA
ATOM     12  H   UNL     1       7.743   4.396  14.915  0.00  0.00    +0.000 HD
ATOM     13  H   UNL     1       6.330   5.338  14.683  0.00  0.00    +0.000 HD
ENDBRANCH   8  11
ENDBRANCH   5   8
BRANCH   7  14
ATOM     14  N   UNL     1       2.535   7.037  18.454  0.00  0.00    +0.000 N 
ATOM     15  C   UNL     1       2.273   7.057  19.897  0.00  0.00    +0.000 C 
ATOM     16  C   UNL     1       2.310   8.328  17.811  0.00  0.00    +0.000 C 
ENDBRANCH   7  14
TORSDOF 3
ENDMDL
MODEL 4
REMARK VINA RESULT:      -6.2      1.287      1.682
REMARK  Name = 
REMARK  6 active torsions:
REMARK  status: ('A' for Active; 'I' for Inactive)
REMARK    1  A    between atoms: C_1  and  C_2
REMARK    2  A    between atoms: C_5  and  S_6
REMARK    3  A    between atoms: S_6  and  N_7
REMARK    4  A    between atoms: C_11  and  N_12
REMARK    5  A    between atoms: N_12  and  C_13
REMARK    6  A    between atoms: N_12  and  C_14
REMARK                            x       y       z     vdW  Elec       q    Type
REMARK                         _______ _______ _______ _____ _____    ______ ____
ROOT
ATOM      1  C   UNL     1       1.727   3.726  17.643  0.00  0.00    +0.000 C 
ATOM      2  C   UNL     1       3.127   4.198  17.939  0.00  0.00    +0.000 A 
ATOM      3  C   UNL     1       4.011   4.185  16.831  0.00  0.00    +0.000 A 
ATOM      4  C   UNL     1       5.348   4.529  16.961  0.00  0.00    +0.000 A 
ATOM      5  C   UNL     1       5.806   4.931  18.204  0.00  0.00    +0.000 A 
ATOM      6  C   UNL     1       4.948   4.960  19.314  0.00  0.00    +0.000 A 
ATOM      7  C   UNL     1       3.589   4.585  19.229  0.00  0.00    +0.000 A 
ENDROOT
BRANCH   5   8
ATOM      8  S   UNL     1       7.498   5.388  18.391  0.00  0.00    +0.000 S 
ATOM      9  O   UNL     1       8.347   4.304  17.956  0.00  0.00    +0.000 OA
ATOM     10  O   UNL     1       7.683   6.746  17.925  0.00  0.00    +0.000 OA
BRANCH   8  11
ATOM     11  N   UNL     1       7.638   5.450  20.060  0.00  0.00    +0.000 NA
ATOM     12  H   UNL     1       8.612   5.588  20.325  0.00  0.00    +0.000 HD
ATOM     13  H   UNL     1       6.993   6.138  20.443  0.00  0.00    +0.000 HD
ENDBRANCH   8  11
ENDBRANCH   5   8
BRANCH   7  14
ATOM     14  N   UNL     1       2.811   4.538  20.384  0.00  0.00    +0.000 N 
ATOM     15  C   UNL     1       1.849   5.600  20.695  0.00  0.00    +0.000 C 
ATOM     16  C   UNL     1       2.573   3.308  21.132  0.00  0.00    +0.000 C 
ENDBRANCH   7  14
TORSDOF 3
ENDMDL
MODEL 5
REMARK VINA RESULT:      -6.1      1.085      1.473
REMARK  Name = 
REMARK  6 active torsions:
REMARK  status: ('A' for Active; 'I' for Inactive)
REMARK    1  A    between atoms: C_1  and  C_2
REMARK    2  A    between atoms: C_5  and  S_6
REMARK    3  A    between atoms: S_6  and  N_7
REMARK    4  A    between atoms: C_11  and  N_12
REMARK    5  A    between atoms: N_12  and  C_13
REMARK    6  A    between atoms: N_12  and  C_14
REMARK                            x       y       z     vdW  Elec       q    Type
REMARK                         _______ _______ _______ _____ _____    ______ ____
ROOT
ATOM      1  C   UNL     1       1.542   4.683  18.571  0.00  0.00    +0.000 C 
ATOM      2  C   UNL     1       3.032   4.868  18.438  0.00  0.00    +0.000 A 
ATOM      3  C   UNL     1       3.433   6.074  17.809  0.00  0.00    +0.000 A 
ATOM      4  C   UNL     1       4.767   6.355  17.556  0.00  0.00    +0.000 A 
ATOM      5  C   UNL     1       5.723   5.441  17.971  0.00  0.00    +0.000 A 
ATOM      6  C   UNL     1       5.350   4.244  18.601  0.00  0.00    +0.000 A 
ATOM      7  C   UNL     1       4.000   3.907  18.846  0.00  0.00    +0.000 A 
ENDROOT
BRANCH   5   8
ATOM      8  S   UNL     1       7.426   5.783  17.674  0.00  0.00    +0.000 S 
ATOM      9  O   UNL     1       7.590   6.329  16.348  0.00  0.00    +0.000 OA
ATOM     10  O   UNL     1       7.999   6.416  18.844  0.00  0.00    +0.000 OA
BRANCH   8  11
ATOM     11  N   UNL     1       8.067   4.236  17.625  0.00  0.00    +0.000 NA
ATOM     12  H   UNL     1       8.514   4.013  18.514  0.00  0.00    +0.000 HD
ATOM     13  H   UNL     1       7.358   3.569  17.329  0.00  0.00    +0.000 HD
ENDBRANCH   8  11
ENDBRANCH   5   8
BRANCH   7  14
ATOM     14  N   UNL     1       3.686   2.662  19.385  0.00  0.00    +0.000 N 
ATOM     15  C   UNL     1       3.232   2.527  20.772  0.00  0.00    +0.000 C 
ATOM     16  C   UNL     1       3.380   1.494  18.564  0.00  0.00    +0.000 C 
ENDBRANCH   7  14
TORSDOF 3
ENDMDL
MODEL 6
REMARK VINA RESULT:      -6.1      2.263      3.082
REMARK  Name = 
REMARK  6 active torsions:
REMARK  status: ('A' for Active; 'I' for Inactive)
REMARK    1  A    between atoms: C_1  and  C_2
REMARK    2  A    between atoms: C_5  and  S_6
REMARK    3  A    between atoms: S_6  and  N_7
REMARK    4  A    between atoms: C_11  and  N_12
REMARK    5  A    between atoms: N_12  and  C_13
REMARK    6  A    between atoms: N_12  and  C_14
REMARK                            x       y       z     vdW  Elec       q    Type
REMARK                         _______ _______ _______ _____ _____    ______ ____
ROOT
ATOM      1  C   UNL     1       1.382   4.348  18.042  0.00  0.00    +0.000 C 
ATOM      2  C   UNL     1       2.800   4.707  17.682  0.00  0.00    +0.000 A 
ATOM      3  C   UNL     1       3.543   3.670  17.063  0.00  0.00    +0.000 A 
ATOM      4  C   UNL     1       4.880   3.828  16.734  0.00  0.00    +0.000 A 
ATOM      5  C   UNL     1       5.481   5.050  16.987  0.00  0.00    +0.000 A 
ATOM      6  C   UNL     1       4.764   6.094  17.592  0.00  0.00    +0.000 A 
ATOM      7  C   UNL     1       3.410   5.961  17.972  0.00  0.00    +0.000 A 
ENDROOT
BRANCH   5   8
ATOM      8  S   UNL     1       7.175   5.281  16.563  0.00  0.00    +0.000 S 
ATOM      9  O   UNL     1       7.460   4.619  15.312  0.00  0.00    +0.000 OA
ATOM     10  O   UNL     1       7.548   6.659  16.808  0.00  0.00    +0.000 OA
BRANCH   8  11
ATOM     11  N   UNL     1       7.937   4.379  17.753  0.00  0.00    +0.000 NA
ATOM     12  H   UNL     1       7.312   3.650  18.094  0.00  0.00    +0.000 HD
ATOM     13  H   UNL     1       8.837   4.042  17.417  0.00  0.00    +0.000 HD
ENDBRANCH   8  11
ENDBRANCH   5   8
BRANCH   7  14
ATOM     14  N   UNL     1       2.779   6.996  18.658  0.00  0.00    +0.000 N 
ATOM     15  C   UNL     1       2.203   8.139  17.945  0.00  0.00    +0.000 C 
ATOM     16  C   UNL     1       2.279   6.857  20.022  0.00  0.00    +0.000 C 
ENDBRANCH   7  14
TORSDOF 3
ENDMDL
MODEL 7
REMARK VINA RESULT:      -6.1      1.681      2.198
REMARK  Name = 
REMARK  6 active torsions:
REMARK  status: ('A' for Active; 'I' for Inactive)
REMARK    1  A    between atoms: C_1  and  C_2
REMARK    2  A    between atoms: C_5  and  S_6
REMARK    3  A    between atoms: S_6  and  N_7
REMARK    4  A    between atoms: C_11  and  N_12
REMARK    5  A    between atoms: N_12  and  C_13
REMARK    6  A    between atoms: N_12  and  C_14
REMARK                            x       y       z     vdW  Elec       q    Type
REMARK                         _______ _______ _______ _____ _____    ______ ____
ROOT
ATOM      1  C   UNL     1       1.601   3.678  17.786  0.00  0.00    +0.000 C 
ATOM      2  C   UNL     1       3.014   4.118  18.069  0.00  0.00    +0.000 A 
ATOM      3  C   UNL     1       3.929   3.920  17.005  0.00  0.00    +0.000 A 
ATOM      4  C   UNL     1       5.277   4.215  17.138  0.00  0.00    +0.000 A 
ATOM      5  C   UNL     1       5.719   4.753  18.335  0.00  0.00    +0.000 A 
ATOM      6  C   UNL     1       4.830   4.965  19.401  0.00  0.00    +0.000 A 
ATOM      7  C   UNL     1       3.457   4.646  19.316  0.00  0.00    +0.000 A 
ENDROOT
BRANCH   5   8
ATOM      8  S   UNL     1       7.425   5.150  18.524  0.00  0.00    +0.000 S 
ATOM      9  O   UNL     1       7.705   5.457  19.907  0.00  0.00    +0.000 OA
ATOM     10  O   UNL     1       8.223   4.208  17.767  0.00  0.00    +0.000 OA
BRANCH   8  11
ATOM     11  N   UNL     1       7.517   6.604  17.695  0.00  0.00    +0.000 NA
ATOM     12  H   UNL     1       8.000   7.300  18.261  0.00  0.00    +0.000 HD
ATOM     13  H   UNL     1       7.918   6.458  16.771  0.00  0.00    +0.000 HD
ENDBRANCH   8  11
ENDBRANCH   5   8
BRANCH   7  14
ATOM     14  N   UNL     1       2.644   4.786  20.438  0.00  0.00    +0.000 N 
ATOM     15  C   UNL     1       1.782   5.959  20.610  0.00  0.00    +0.000 C 
ATOM     16  C   UNL     1       2.264   3.662  21.289  0.00  0.00    +0.000 C 
ENDBRANCH   7  14
TORSDOF 3
ENDMDL
MODEL 8
REMARK VINA RESULT:      -6.1      1.848      2.447
REMARK  Name = 
REMARK  6 active torsions:
REMARK  status: ('A' for Active; 'I' for Inactive)
REMARK    1  A    between atoms: C_1  and  C_2
REMARK    2  A    between atoms: C_5  and  S_6
REMARK    3  A    between atoms: S_6  and  N_7
REMARK    4  A    between atoms: C_11  and  N_12
REMARK    5  A    between atoms: N_12  and  C_13
REMARK    6  A    between atoms: N_12  and  C_14
REMARK                            x       y       z     vdW  Elec       q    Type
REMARK                         _______ _______ _______ _____ _____    ______ ____
ROOT
ATOM      1  C   UNL     1       1.509   3.929  17.538  0.00  0.00    +0.000 C 
ATOM      2  C   UNL     1       2.940   4.334  17.782  0.00  0.00    +0.000 A 
ATOM      3  C   UNL     1       3.879   3.802  16.863  0.00  0.00    +0.000 A 
ATOM      4  C   UNL     1       5.240   4.031  16.996  0.00  0.00    +0.000 A 
ATOM      5  C   UNL     1       5.673   4.837  18.036  0.00  0.00    +0.000 A 
ATOM      6  C   UNL     1       4.761   5.381  18.955  0.00  0.00    +0.000 A 
ATOM      7  C   UNL     1       3.371   5.142  18.872  0.00  0.00    +0.000 A 
ENDROOT
BRANCH   5   8
ATOM      8  S   UNL     1       7.396   5.156  18.218  0.00  0.00    +0.000 S 
ATOM      9  O   UNL     1       7.725   5.279  19.618  0.00  0.00    +0.000 OA
ATOM     10  O   UNL     1       8.141   4.292  17.325  0.00  0.00    +0.000 OA
BRANCH   8  11
ATOM     11  N   UNL     1       7.514   6.698  17.573  0.00  0.00    +0.000 NA
ATOM     12  H   UNL     1       8.453   7.067  17.716  0.00  0.00    +0.000 HD
ATOM     13  H   UNL     1       7.202   6.699  16.604  0.00  0.00    +0.000 HD
ENDBRANCH   8  11
ENDBRANCH   5   8
BRANCH   7  14
ATOM     14  N   UNL     1       2.527   5.626  19.868  0.00  0.00    +0.000 N 
ATOM     15  C   UNL     1       2.218   4.827  21.057  0.00  0.00    +0.000 C 
ATOM     16  C   UNL     1       2.224   7.044  20.033  0.00  0.00    +0.000 C 
ENDBRANCH   7  14
TORSDOF 3
ENDMDL
MODEL 9
REMARK VINA RESULT:      -6.0      1.913      1.923
REMARK  Name = 
REMARK  6 active torsions:
REMARK  status: ('A' for Active; 'I' for Inactive)
REMARK    1  A    between atoms: C_1  and  C_2
REMARK    2  A    between atoms: C_5  and  S_6
REMARK    3  A    between atoms: S_6  and  N_7
REMARK    4  A    between atoms: C_11  and  N_12
REMARK    5  A    between atoms: N_12  and  C_13
REMARK    6  A    between atoms: N_12  and  C_14
REMARK                            x       y       z     vdW  Elec       q    Type
REMARK                         _______ _______ _______ _____ _____    ______ ____
ROOT
ATOM      1  C   UNL     1       2.064   5.026  19.808  0.00  0.00    +0.000 C 
ATOM      2  C   UNL     1       3.306   5.030  18.956  0.00  0.00    +0.000 A 
ATOM      3  C   UNL     1       3.595   6.265  18.322  0.00  0.00    +0.000 A 
ATOM      4  C   UNL     1       4.668   6.405  17.455  0.00  0.00    +0.000 A 
ATOM      5  C   UNL     1       5.492   5.312  17.243  0.00  0.00    +0.000 A 
ATOM      6  C   UNL     1       5.230   4.081  17.865  0.00  0.00    +0.000 A 
ATOM      7  C   UNL     1       4.128   3.890  18.729  0.00  0.00    +0.000 A 
ENDROOT
BRANCH   5   8
ATOM      8  S   UNL     1       6.870   5.470  16.157  0.00  0.00    +0.000 S 
ATOM      9  O   UNL     1       7.842   4.444  16.450  0.00  0.00    +0.000 OA
ATOM     10  O   UNL     1       6.394   5.718  14.812  0.00  0.00    +0.000 OA
BRANCH   8  11
ATOM     11  N   UNL     1       7.539   6.913  16.684  0.00  0.00    +0.000 NA
ATOM     12  H   UNL     1       8.544   6.915  16.515  0.00  0.00    +0.000 HD
ATOM     13  H   UNL     1       7.040   7.702  16.278  0.00  0.00    +0.000 HD
ENDBRANCH   8  11
ENDBRANCH   5   8
BRANCH   7  14
ATOM     14  N   UNL     1       3.862   2.621  19.238  0.00  0.00    +0.000 N 
ATOM     15  C   UNL     1       3.328   1.556  18.385  0.00  0.00    +0.000 C 
ATOM     16  C   UNL     1       4.447   2.125  20.480  0.00  0.00    +0.000 C 
ENDBRANCH   7  14
TORSDOF 3
ENDMDL
