MODEL 1
REMARK VINA RESULT:      -7.1      0.000      0.000
REMARK  Name = 
REMARK  2 active torsions:
REMARK  status: ('A' for Active; 'I' for Inactive)
REMARK    1  A    between atoms: C_4  and  N_5
REMARK    2  A    between atoms: C_15  and  N_16
REMARK                            x       y       z     vdW  Elec       q    Type
REMARK                         _______ _______ _______ _____ _____    ______ ____
ROOT
ATOM      1  O   UNL     1       2.213   3.609  21.983  0.00  0.00    +0.000 OA
ATOM      2  C   UNL     1       2.467   4.426  21.106  0.00  0.00    +0.000 A 
ATOM      3  C   UNL     1       3.369   4.085  19.993  0.00  0.00    +0.000 A 
ATOM      4  C   UNL     1       3.670   4.947  19.009  0.00  0.00    +0.000 A 
ATOM      5  C   UNL     1       3.018   6.290  19.023  0.00  0.00    +0.000 A 
ATOM      6  C   UNL     1       3.174   7.207  17.971  0.00  0.00    +0.000 A 
ATOM      7  C   UNL     1       2.591   8.476  18.012  0.00  0.00    +0.000 A 
ATOM      8  C   UNL     1       1.807   8.844  19.099  0.00  0.00    +0.000 A 
ATOM      9  C   UNL     1       1.586   7.929  20.141  0.00  0.00    +0.000 A 
ATOM     10  C   UNL     1       2.182   6.650  20.107  0.00  0.00    +0.000 A 
ATOM     11  N   UNL     1       1.955   5.689  21.112  0.00  0.00    +0.000 N 
ATOM     12  H   UNL     1       1.342   5.911  21.895  0.00  0.00    +0.000 HD
ENDROOT
BRANCH   4  13
ATOM     13  N   UNL     1       4.580   4.590  18.010  0.00  0.00    +0.000 N 
ATOM     14  C   UNL     1       4.182   3.874  16.779  0.00  0.00    +0.000 C 
ATOM     15  C   UNL     1       5.074   4.286  15.587  0.00  0.00    +0.000 C 
ATOM     16  N   UNL     1       6.512   4.094  15.854  0.00  0.00    +0.000 NA
ATOM     17  C   UNL     1       6.877   4.858  17.063  0.00  0.00    +0.000 C 
ATOM     18  C   UNL     1       6.028   4.498  18.303  0.00  0.00    +0.000 C 
ATOM     19  H   UNL     1       7.048   4.449  15.062  0.00  0.00    +0.000 HD
ENDBRANCH   4  13
BRANCH   9  20
ATOM     20  N   UNL     1       0.702   8.354  21.240  0.00  0.00    +0.000 N 
ATOM     21  O   UNL     1      -0.435   7.862  21.290  0.00  0.00    +0.000 OA
ATOM     22  O   UNL     1       1.134   9.178  22.061  0.00  0.00    +0.000 OA
ENDBRANCH   9  20
TORSDOF 2
ENDMDL
MODEL 2
REMARK VINA RESULT:      -6.9      3.106      5.967
REMARK  Name = 
REMARK  2 active torsions:
REMARK  status: ('A' for Active; 'I' for Inactive)
REMARK    1  A    between atoms: C_4  and  N_5
REMARK    2  A    between atoms: C_15  and  N_16
REMARK                            x       y       z     vdW  Elec       q    Type
REMARK                         _______ _______ _______ _____ _____    ______ ____
ROOT
ATOM      1  O   UNL     1       5.321   5.611  16.275  0.00  0.00    +0.000 OA
ATOM      2  C   UNL     1       4.532   5.570  17.212  0.00  0.00    +0.000 A 
ATOM      3  C   UNL     1       3.719   6.745  17.566  0.00  0.00    +0.000 A 
ATOM      4  C   UNL     1       2.838   6.743  18.579  0.00  0.00    +0.000 A 
ATOM      5  C   UNL     1       2.644   5.475  19.342  0.00  0.00    +0.000 A 
ATOM      6  C   UNL     1       1.657   5.343  20.333  0.00  0.00    +0.000 A 
ATOM      7  C   UNL     1       1.509   4.165  21.068  0.00  0.00    +0.000 A 
ATOM      8  C   UNL     1       2.329   3.074  20.803  0.00  0.00    +0.000 A 
ATOM      9  C   UNL     1       3.289   3.155  19.781  0.00  0.00    +0.000 A 
ATOM     10  C   UNL     1       3.448   4.349  19.043  0.00  0.00    +0.000 A 
ATOM     11  N   UNL     1       4.370   4.460  17.985  0.00  0.00    +0.000 N 
ATOM     12  H   UNL     1       4.949   3.660  17.731  0.00  0.00    +0.000 HD
ENDROOT
BRANCH   4  13
ATOM     13  N   UNL     1       2.137   7.906  18.910  0.00  0.00    +0.000 N 
ATOM     14  C   UNL     1       1.978   9.041  17.975  0.00  0.00    +0.000 C 
ATOM     15  C   UNL     1       0.629   9.759  18.202  0.00  0.00    +0.000 C 
ATOM     16  N   UNL     1       0.446  10.208  19.595  0.00  0.00    +0.000 NA
ATOM     17  C   UNL     1       0.570   9.041  20.491  0.00  0.00    +0.000 C 
ATOM     18  C   UNL     1       1.899   8.271  20.324  0.00  0.00    +0.000 C 
ATOM     19  H   UNL     1      -0.487  10.608  19.696  0.00  0.00    +0.000 HD
ENDBRANCH   4  13
BRANCH   9  20
ATOM     20  N   UNL     1       4.092   1.952  19.507  0.00  0.00    +0.000 N 
ATOM     21  O   UNL     1       3.808   1.284  18.502  0.00  0.00    +0.000 OA
ATOM     22  O   UNL     1       5.011   1.664  20.290  0.00  0.00    +0.000 OA
ENDBRANCH   9  20
TORSDOF 2
ENDMDL
MODEL 3
REMARK VINA RESULT:      -6.7      3.069      6.182
REMARK  Name = 
REMARK  2 active torsions:
REMARK  status: ('A' for Active; 'I' for Inactive)
REMARK    1  A    between atoms: C_4  and  N_5
REMARK    2  A    between atoms: C_15  and  N_16
REMARK                            x       y       z     vdW  Elec       q    Type
REMARK                         _______ _______ _______ _____ _____    ______ ____
ROOT
ATOM      1  O   UNL     1       4.979   6.640  16.363  0.00  0.00    +0.000 OA
ATOM      2  C   UNL     1       4.215   6.406  17.293  0.00  0.00    +0.000 A 
ATOM      3  C   UNL     1       3.333   7.457  17.828  0.00  0.00    +0.000 A 
ATOM      4  C   UNL     1       2.478   7.243  18.841  0.00  0.00    +0.000 A 
ATOM      5  C   UNL     1       2.387   5.866  19.409  0.00  0.00    +0.000 A 
ATOM      6  C   UNL     1       1.434   5.521  20.382  0.00  0.00    +0.000 A 
ATOM      7  C   UNL     1       1.382   4.239  20.935  0.00  0.00    +0.000 A 
ATOM      8  C   UNL     1       2.268   3.260  20.500  0.00  0.00    +0.000 A 
ATOM      9  C   UNL     1       3.197   3.558  19.490  0.00  0.00    +0.000 A 
ATOM     10  C   UNL     1       3.258   4.856  18.936  0.00  0.00    +0.000 A 
ATOM     11  N   UNL     1       4.146   5.186  17.894  0.00  0.00    +0.000 N 
ATOM     12  H   UNL     1       4.772   4.475  17.517  0.00  0.00    +0.000 HD
ENDROOT
BRANCH   4  13
ATOM     13  N   UNL     1       1.707   8.293  19.350  0.00  0.00    +0.000 N 
ATOM     14  C   UNL     1       1.425   9.526  18.583  0.00  0.00    +0.000 C 
ATOM     15  C   UNL     1       0.037  10.098  18.950  0.00  0.00    +0.000 C 
ATOM     16  N   UNL     1      -0.118  10.342  20.396  0.00  0.00    +0.000 NA
ATOM     17  C   UNL     1       0.130   9.080  21.121  0.00  0.00    +0.000 C 
ATOM     18  C   UNL     1       1.504   8.446  20.807  0.00  0.00    +0.000 C 
ATOM     19  H   UNL     1      -1.073  10.650  20.582  0.00  0.00    +0.000 HD
ENDBRANCH   4  13
BRANCH   9  20
ATOM     20  N   UNL     1       4.073   2.467  19.030  0.00  0.00    +0.000 N 
ATOM     21  O   UNL     1       4.875   1.988  19.845  0.00  0.00    +0.000 OA
ATOM     22  O   UNL     1       3.967   2.080  17.856  0.00  0.00    +0.000 OA
ENDBRANCH   9  20
TORSDOF 2
ENDMDL
MODEL 4
REMARK VINA RESULT:      -6.6      0.761      1.315
REMARK  Name = 
REMARK  2 active torsions:
REMARK  status: ('A' for Active; 'I' for Inactive)
REMARK    1  A    between atoms: C_4  and  N_5
REMARK    2  A    between atoms: C_15  and  N_16
REMARK                            x       y       z     vdW  Elec       q    Type
REMARK                         _______ _______ _______ _____ _____    ______ ____
ROOT
ATOM      1  O   UNL     1       2.250   4.101  21.669  0.00  0.00    +0.000 OA
ATOM      2  C   UNL     1       2.503   4.935  20.807  0.00  0.00    +0.000 A 
ATOM      3  C   UNL     1       3.477   4.648  19.741  0.00  0.00    +0.000 A 
ATOM      4  C   UNL     1       3.779   5.530  18.774  0.00  0.00    +0.000 A 
ATOM      5  C   UNL     1       3.055   6.835  18.757  0.00  0.00    +0.000 A 
ATOM      6  C   UNL     1       3.213   7.763  17.716  0.00  0.00    +0.000 A 
ATOM      7  C   UNL     1       2.561   8.998  17.729  0.00  0.00    +0.000 A 
ATOM      8  C   UNL     1       1.704   9.319  18.776  0.00  0.00    +0.000 A 
ATOM      9  C   UNL     1       1.481   8.389  19.804  0.00  0.00    +0.000 A 
ATOM     10  C   UNL     1       2.147   7.144  19.799  0.00  0.00    +0.000 A 
ATOM     11  N   UNL     1       1.923   6.168  20.789  0.00  0.00    +0.000 N 
ATOM     12  H   UNL     1       1.260   6.353  21.541  0.00  0.00    +0.000 HD
ENDROOT
BRANCH   4  13
ATOM     13  N   UNL     1       4.757   5.227  17.822  0.00  0.00    +0.000 N 
ATOM     14  C   UNL     1       6.103   5.839  17.830  0.00  0.00    +0.000 C 
ATOM     15  C   UNL     1       7.160   4.857  17.278  0.00  0.00    +0.000 C 
ATOM     16  N   UNL     1       6.829   4.356  15.932  0.00  0.00    +0.000 NA
ATOM     17  C   UNL     1       5.499   3.716  15.975  0.00  0.00    +0.000 C 
ATOM     18  C   UNL     1       4.385   4.641  16.515  0.00  0.00    +0.000 C 
ATOM     19  H   UNL     1       7.523   3.662  15.654  0.00  0.00    +0.000 HD
ENDBRANCH   4  13
BRANCH   9  20
ATOM     20  N   UNL     1       0.522   8.760  20.858  0.00  0.00    +0.000 N 
ATOM     21  O   UNL     1      -0.548   9.281  20.508  0.00  0.00    +0.000 OA
ATOM     22  O   UNL     1       0.825   8.533  22.039  0.00  0.00    +0.000 OA
ENDBRANCH   9  20
TORSDOF 2
ENDMDL
MODEL 5
REMARK VINA RESULT:      -6.6      4.524      7.099
REMARK  Name = 
REMARK  2 active torsions:
REMARK  status: ('A' for Active; 'I' for Inactive)
REMARK    1  A    between atoms: C_4  and  N_5
REMARK    2  A    between atoms: C_15  and  N_16
REMARK                            x       y       z     vdW  Elec       q    Type
REMARK                         _______ _______ _______ _____ _____    ______ ____
ROOT
ATOM      1  O   UNL     1       7.842   7.412  17.819  0.00  0.00    +0.000 OA
ATOM      2  C   UNL     1       7.254   6.538  17.193  0.00  0.00    +0.000 A 
ATOM      3  C   UNL     1       6.197   5.734  17.828  0.00  0.00    +0.000 A 
ATOM      4  C   UNL     1       5.524   4.771  17.178  0.00  0.00    +0.000 A 
ATOM      5  C   UNL     1       5.832   4.546  15.735  0.00  0.00    +0.000 A 
ATOM      6  C   UNL     1       5.095   3.649  14.945  0.00  0.00    +0.000 A 
ATOM      7  C   UNL     1       5.416   3.417  13.606  0.00  0.00    +0.000 A 
ATOM      8  C   UNL     1       6.469   4.106  13.015  0.00  0.00    +0.000 A 
ATOM      9  C   UNL     1       7.192   5.050  13.763  0.00  0.00    +0.000 A 
ATOM     10  C   UNL     1       6.876   5.279  15.121  0.00  0.00    +0.000 A 
ATOM     11  N   UNL     1       7.548   6.244  15.895  0.00  0.00    +0.000 N 
ATOM     12  H   UNL     1       8.291   6.802  15.476  0.00  0.00    +0.000 HD
ENDROOT
BRANCH   4  13
ATOM     13  N   UNL     1       4.572   3.998  17.849  0.00  0.00    +0.000 N 
ATOM     14  C   UNL     1       3.143   3.975  17.468  0.00  0.00    +0.000 C 
ATOM     15  C   UNL     1       2.517   2.591  17.752  0.00  0.00    +0.000 C 
ATOM     16  N   UNL     1       2.685   2.164  19.153  0.00  0.00    +0.000 NA
ATOM     17  C   UNL     1       4.124   2.159  19.480  0.00  0.00    +0.000 C 
ATOM     18  C   UNL     1       4.822   3.514  19.224  0.00  0.00    +0.000 C 
ATOM     19  H   UNL     1       2.316   1.218  19.259  0.00  0.00    +0.000 HD
ENDBRANCH   4  13
BRANCH   9  20
ATOM     20  N   UNL     1       8.261   5.789  13.072  0.00  0.00    +0.000 N 
ATOM     21  O   UNL     1       8.013   6.244  11.945  0.00  0.00    +0.000 OA
ATOM     22  O   UNL     1       9.353   5.923  13.645  0.00  0.00    +0.000 OA
ENDBRANCH   9  20
TORSDOF 2
ENDMDL
MODEL 6
REMARK VINA RESULT:      -6.5      3.101      5.980
REMARK  Name = 
REMARK  2 active torsions:
REMARK  status: ('A' for Active; 'I' for Inactive)
REMARK    1  A    between atoms: C_4  and  N_5
REMARK    2  A    between atoms: C_15  and  N_16
REMARK                            x       y       z     vdW  Elec       q    Type
REMARK                         _______ _______ _______ _____ _____    ______ ____
ROOT
ATOM      1  O   UNL     1       5.643   5.618  16.585  0.00  0.00    +0.000 OA
ATOM      2  C   UNL     1       4.784   5.547  17.457  0.00  0.00    +0.000 A 
ATOM      3  C   UNL     1       3.908   6.694  17.750  0.00  0.00    +0.000 A 
ATOM      4  C   UNL     1       2.951   6.657  18.691  0.00  0.00    +0.000 A 
ATOM      5  C   UNL     1       2.739   5.380  19.433  0.00  0.00    +0.000 A 
ATOM      6  C   UNL     1       1.682   5.211  20.342  0.00  0.00    +0.000 A 
ATOM      7  C   UNL     1       1.515   4.024  21.060  0.00  0.00    +0.000 A 
ATOM      8  C   UNL     1       2.389   2.962  20.857  0.00  0.00    +0.000 A 
ATOM      9  C   UNL     1       3.423   3.080  19.914  0.00  0.00    +0.000 A 
ATOM     10  C   UNL     1       3.600   4.282  19.194  0.00  0.00    +0.000 A 
ATOM     11  N   UNL     1       4.598   4.428  18.212  0.00  0.00    +0.000 N 
ATOM     12  H   UNL     1       5.221   3.649  18.002  0.00  0.00    +0.000 HD
ENDROOT
BRANCH   4  13
ATOM     13  N   UNL     1       2.189   7.796  18.969  0.00  0.00    +0.000 N 
ATOM     14  C   UNL     1       1.477   7.993  20.250  0.00  0.00    +0.000 C 
ATOM     15  C   UNL     1       1.416   9.491  20.623  0.00  0.00    +0.000 C 
ATOM     16  N   UNL     1       0.811  10.320  19.564  0.00  0.00    +0.000 NA
ATOM     17  C   UNL     1       1.574  10.128  18.315  0.00  0.00    +0.000 C 
ATOM     18  C   UNL     1       1.677   8.651  17.874  0.00  0.00    +0.000 C 
ATOM     19  H   UNL     1       0.864  11.302  19.838  0.00  0.00    +0.000 HD
ENDBRANCH   4  13
BRANCH   9  20
ATOM     20  N   UNL     1       4.283   1.904  19.700  0.00  0.00    +0.000 N 
ATOM     21  O   UNL     1       4.055   1.192  18.711  0.00  0.00    +0.000 OA
ATOM     22  O   UNL     1       5.193   1.683  20.515  0.00  0.00    +0.000 OA
ENDBRANCH   9  20
TORSDOF 2
ENDMDL
MODEL 7
REMARK VINA RESULT:      -6.4      4.291      6.989
REMARK  Name = 
REMARK  2 active torsions:
REMARK  status: ('A' for Active; 'I' for Inactive)
REMARK    1  A    between atoms: C_4  and  N_5
REMARK    2  A    between atoms: C_15  and  N_16
REMARK                            x       y       z     vdW  Elec       q    Type
REMARK                         _______ _______ _______ _____ _____    ______ ____
ROOT
ATOM      1  O   UNL     1       8.073   7.773  17.748  0.00  0.00    +0.000 OA
ATOM      2  C   UNL     1       7.359   6.864  17.341  0.00  0.00    +0.000 A 
ATOM      3  C   UNL     1       6.314   6.282  18.199  0.00  0.00    +0.000 A 
ATOM      4  C   UNL     1       5.506   5.291  17.792  0.00  0.00    +0.000 A 
ATOM      5  C   UNL     1       5.645   4.797  16.390  0.00  0.00    +0.000 A 
ATOM      6  C   UNL     1       4.763   3.853  15.840  0.00  0.00    +0.000 A 
ATOM      7  C   UNL     1       4.926   3.369  14.540  0.00  0.00    +0.000 A 
ATOM      8  C   UNL     1       5.963   3.846  13.746  0.00  0.00    +0.000 A 
ATOM      9  C   UNL     1       6.829   4.831  14.248  0.00  0.00    +0.000 A 
ATOM     10  C   UNL     1       6.673   5.315  15.566  0.00  0.00    +0.000 A 
ATOM     11  N   UNL     1       7.494   6.329  16.095  0.00  0.00    +0.000 N 
ATOM     12  H   UNL     1       8.230   6.737  15.520  0.00  0.00    +0.000 HD
ENDROOT
BRANCH   4  13
ATOM     13  N   UNL     1       4.571   4.734  18.670  0.00  0.00    +0.000 N 
ATOM     14  C   UNL     1       3.452   5.509  19.248  0.00  0.00    +0.000 C 
ATOM     15  C   UNL     1       2.217   4.609  19.477  0.00  0.00    +0.000 C 
ATOM     16  N   UNL     1       2.515   3.431  20.312  0.00  0.00    +0.000 NA
ATOM     17  C   UNL     1       3.606   2.663  19.681  0.00  0.00    +0.000 C 
ATOM     18  C   UNL     1       4.880   3.498  19.422  0.00  0.00    +0.000 C 
ATOM     19  H   UNL     1       1.683   2.843  20.368  0.00  0.00    +0.000 HD
ENDBRANCH   4  13
BRANCH   9  20
ATOM     20  N   UNL     1       7.875   5.339  13.345  0.00  0.00    +0.000 N 
ATOM     21  O   UNL     1       8.817   5.970  13.848  0.00  0.00    +0.000 OA
ATOM     22  O   UNL     1       7.767   5.113  12.130  0.00  0.00    +0.000 OA
ENDBRANCH   9  20
TORSDOF 2
ENDMDL
MODEL 8
REMARK VINA RESULT:      -6.3      2.089      4.259
REMARK  Name = 
REMARK  2 active torsions:
REMARK  status: ('A' for Active; 'I' for Inactive)
REMARK    1  A    between atoms: C_4  and  N_5
REMARK    2  A    between atoms: C_15  and  N_16
REMARK                            x       y       z     vdW  Elec       q    Type
REMARK                         _______ _______ _______ _____ _____    ______ ____
ROOT
ATOM      1  O   UNL     1       2.229   7.742  19.157  0.00  0.00    +0.000 OA
ATOM      2  C   UNL     1       2.674   6.670  18.765  0.00  0.00    +0.000 A 
ATOM      3  C   UNL     1       3.827   6.618  17.851  0.00  0.00    +0.000 A 
ATOM      4  C   UNL     1       4.349   5.466  17.402  0.00  0.00    +0.000 A 
ATOM      5  C   UNL     1       3.763   4.185  17.896  0.00  0.00    +0.000 A 
ATOM      6  C   UNL     1       4.323   2.936  17.581  0.00  0.00    +0.000 A 
ATOM      7  C   UNL     1       3.744   1.742  18.016  0.00  0.00    +0.000 A 
ATOM      8  C   UNL     1       2.603   1.773  18.809  0.00  0.00    +0.000 A 
ATOM      9  C   UNL     1       2.050   3.008  19.188  0.00  0.00    +0.000 A 
ATOM     10  C   UNL     1       2.628   4.216  18.741  0.00  0.00    +0.000 A 
ATOM     11  N   UNL     1       2.129   5.475  19.129  0.00  0.00    +0.000 N 
ATOM     12  H   UNL     1       1.325   5.531  19.753  0.00  0.00    +0.000 HD
ENDROOT
BRANCH   4  13
ATOM     13  N   UNL     1       5.406   5.477  16.487  0.00  0.00    +0.000 N 
ATOM     14  C   UNL     1       6.782   5.875  16.855  0.00  0.00    +0.000 C 
ATOM     15  C   UNL     1       7.824   5.098  16.019  0.00  0.00    +0.000 C 
ATOM     16  N   UNL     1       7.615   5.242  14.566  0.00  0.00    +0.000 NA
ATOM     17  C   UNL     1       6.248   4.795  14.235  0.00  0.00    +0.000 C 
ATOM     18  C   UNL     1       5.147   5.532  15.031  0.00  0.00    +0.000 C 
ATOM     19  H   UNL     1       8.286   4.652  14.073  0.00  0.00    +0.000 HD
ENDBRANCH   4  13
BRANCH   9  20
ATOM     20  N   UNL     1       0.874   2.981  20.074  0.00  0.00    +0.000 N 
ATOM     21  O   UNL     1       1.045   3.262  21.270  0.00  0.00    +0.000 OA
ATOM     22  O   UNL     1      -0.226   2.682  19.586  0.00  0.00    +0.000 OA
ENDBRANCH   9  20
TORSDOF 2
ENDMDL
MODEL 9
REMARK VINA RESULT:      -6.3      1.919      3.994
REMARK  Name = 
REMARK  2 active torsions:
REMARK  status: ('A' for Active; 'I' for Inactive)
REMARK    1  A    between atoms: C_4  and  N_5
REMARK    2  A    between atoms: C_15  and  N_16
REMARK                            x       y       z     vdW  Elec       q    Type
REMARK                         _______ _______ _______ _____ _____    ______ ____
ROOT
ATOM      1  O   UNL     1       1.996   8.056  18.885  0.00  0.00    +0.000 OA
ATOM      2  C   UNL     1       2.595   6.995  18.759  0.00  0.00    +0.000 A 
ATOM      3  C   UNL     1       3.725   6.872  17.824  0.00  0.00    +0.000 A 
ATOM      4  C   UNL     1       4.413   5.730  17.659  0.00  0.00    +0.000 A 
ATOM      5  C   UNL     1       4.043   4.555  18.501  0.00  0.00    +0.000 A 
ATOM      6  C   UNL     1       4.785   3.363  18.487  0.00  0.00    +0.000 A 
ATOM      7  C   UNL     1       4.407   2.255  19.249  0.00  0.00    +0.000 A 
ATOM      8  C   UNL     1       3.289   2.328  20.072  0.00  0.00    +0.000 A 
ATOM      9  C   UNL     1       2.557   3.525  20.150  0.00  0.00    +0.000 A 
ATOM     10  C   UNL     1       2.931   4.643  19.373  0.00  0.00    +0.000 A 
ATOM     11  N   UNL     1       2.250   5.872  19.450  0.00  0.00    +0.000 N 
ATOM     12  H   UNL     1       1.458   5.974  20.084  0.00  0.00    +0.000 HD
ENDROOT
BRANCH   4  13
ATOM     13  N   UNL     1       5.439   5.654  16.712  0.00  0.00    +0.000 N 
ATOM     14  C   UNL     1       6.869   5.797  17.064  0.00  0.00    +0.000 C 
ATOM     15  C   UNL     1       7.755   4.939  16.132  0.00  0.00    +0.000 C 
ATOM     16  N   UNL     1       7.542   5.238  14.704  0.00  0.00    +0.000 NA
ATOM     17  C   UNL     1       6.114   5.043  14.385  0.00  0.00    +0.000 C 
ATOM     18  C   UNL     1       5.162   5.872  15.275  0.00  0.00    +0.000 C 
ATOM     19  H   UNL     1       8.099   4.594  14.142  0.00  0.00    +0.000 HD
ENDBRANCH   4  13
BRANCH   9  20
ATOM     20  N   UNL     1       1.416   3.562  21.080  0.00  0.00    +0.000 N 
ATOM     21  O   UNL     1       0.405   4.188  20.728  0.00  0.00    +0.000 OA
ATOM     22  O   UNL     1       1.517   2.968  22.164  0.00  0.00    +0.000 OA
ENDBRANCH   9  20
TORSDOF 2
ENDMDL
