MODEL 1
REMARK VINA RESULT:      -7.8      0.000      0.000
REMARK  Name = 
REMARK  11 active torsions:
REMARK  status: ('A' for Active; 'I' for Inactive)
REMARK    1  A    between atoms: C_1  and  O_2
REMARK    2  A    between atoms: O_2  and  C_3
REMARK    3  A    between atoms: C_6  and  O_7
REMARK    4  A    between atoms: O_7  and  C_8
REMARK    5  A    between atoms: C_8  and  C_9
REMARK    6  A    between atoms: C_9  and  N_10
REMARK    7  A    between atoms: N_10  and  C_11
REMARK    8  A    between atoms: C_11  and  C_12
REMARK    9  A    between atoms: C_12  and  C_13
REMARK   10  A    between atoms: C_13  and  C_14
REMARK   11  A    between atoms: C_14  and  N_15
REMARK                            x       y       z     vdW  Elec       q    Type
REMARK                         _______ _______ _______ _____ _____    ______ ____
ROOT
ATOM      1  N   UNL     1       7.222   7.646  17.136  0.00  0.00    +0.000 NA
ATOM      2  H   UNL     1       7.425   8.126  16.258  0.00  0.00    +0.000 HD
ENDROOT
BRANCH   1   3
ATOM      3  C   UNL     1       8.159   8.105  18.172  0.00  0.00    +0.000 C 
BRANCH   3   4
ATOM      4  C   UNL     1       8.384   9.620  18.156  0.00  0.00    +0.000 C 
BRANCH   4   5
ATOM      5  O   UNL     1       9.323  10.001  19.156  0.00  0.00    +0.000 OA
BRANCH   5   9
ATOM      6  C   UNL     1      11.170  13.702  18.536  0.00  0.00    +0.000 A 
ATOM      7  C   UNL     1      11.284  12.712  17.564  0.00  0.00    +0.000 A 
ATOM      8  C   UNL     1      10.687  11.472  17.754  0.00  0.00    +0.000 A 
ATOM      9  C   UNL     1       9.976  11.194  18.927  0.00  0.00    +0.000 A 
ATOM     10  C   UNL     1       9.895  12.162  19.952  0.00  0.00    +0.000 A 
ATOM     11  C   UNL     1       9.222  11.905  21.171  0.00  0.00    +0.000 A 
ATOM     12  C   UNL     1       9.157  12.858  22.180  0.00  0.00    +0.000 A 
ATOM     13  C   UNL     1       9.744  14.102  21.991  0.00  0.00    +0.000 A 
ATOM     14  C   UNL     1      10.406  14.383  20.795  0.00  0.00    +0.000 A 
ATOM     15  C   UNL     1      10.503  13.433  19.756  0.00  0.00    +0.000 A 
BRANCH   6  17
ATOM     16  C   UNL     1      11.357  15.634  17.180  0.00  0.00    +0.000 C 
ATOM     17  O   UNL     1      11.727  14.952  18.377  0.00  0.00    +0.000 OA
ENDBRANCH   6  17
ENDBRANCH   5   9
ENDBRANCH   4   5
ENDBRANCH   3   4
ENDBRANCH   1   3
BRANCH   1  18
ATOM     18  C   UNL     1       7.295   6.200  16.935  0.00  0.00    +0.000 C 
BRANCH  18  19
ATOM     19  C   UNL     1       7.260   5.475  18.277  0.00  0.00    +0.000 C 
BRANCH  19  20
ATOM     20  C   UNL     1       6.085   4.506  18.306  0.00  0.00    +0.000 C 
BRANCH  20  21
ATOM     21  C   UNL     1       5.290   4.522  16.996  0.00  0.00    +0.000 C 
BRANCH  21  22
ATOM     22  N   UNL     1       3.893   4.780  17.274  0.00  0.00    +0.000 N 
ATOM     23  C   UNL     1       3.024   3.806  17.681  0.00  0.00    +0.000 C 
ATOM     24  O   UNL     1       3.187   2.596  17.602  0.00  0.00    +0.000 OA
ATOM     25  C   UNL     1       1.813   4.486  18.296  0.00  0.00    +0.000 C 
ATOM     26  C   UNL     1       1.507   4.047  19.720  0.00  0.00    +0.000 C 
ATOM     27  C   UNL     1       2.398   4.962  20.556  0.00  0.00    +0.000 C 
ATOM     28  C   UNL     1       2.325   6.282  19.789  0.00  0.00    +0.000 C 
ATOM     29  N   UNL     1       2.270   5.862  18.396  0.00  0.00    +0.000 N 
ATOM     30  C   UNL     1       3.469   6.016  17.689  0.00  0.00    +0.000 C 
ATOM     31  O   UNL     1       4.115   7.051  17.637  0.00  0.00    +0.000 OA
ENDBRANCH  21  22
ENDBRANCH  20  21
ENDBRANCH  19  20
ENDBRANCH  18  19
ENDBRANCH   1  18
TORSDOF 10
ENDMDL
MODEL 2
REMARK VINA RESULT:      -7.8      1.288      1.789
REMARK  Name = 
REMARK  11 active torsions:
REMARK  status: ('A' for Active; 'I' for Inactive)
REMARK    1  A    between atoms: C_1  and  O_2
REMARK    2  A    between atoms: O_2  and  C_3
REMARK    3  A    between atoms: C_6  and  O_7
REMARK    4  A    between atoms: O_7  and  C_8
REMARK    5  A    between atoms: C_8  and  C_9
REMARK    6  A    between atoms: C_9  and  N_10
REMARK    7  A    between atoms: N_10  and  C_11
REMARK    8  A    between atoms: C_11  and  C_12
REMARK    9  A    between atoms: C_12  and  C_13
REMARK   10  A    between atoms: C_13  and  C_14
REMARK   11  A    between atoms: C_14  and  N_15
REMARK                            x       y       z     vdW  Elec       q    Type
REMARK                         _______ _______ _______ _____ _____    ______ ____
ROOT
ATOM      1  N   UNL     1       6.814   7.573  17.200  0.00  0.00    +0.000 NA
ATOM      2  H   UNL     1       7.018   7.487  16.205  0.00  0.00    +0.000 HD
ENDROOT
BRANCH   1   3
ATOM      3  C   UNL     1       8.038   7.956  17.920  0.00  0.00    +0.000 C 
BRANCH   3   4
ATOM      4  C   UNL     1       8.268   9.469  17.959  0.00  0.00    +0.000 C 
BRANCH   4   5
ATOM      5  O   UNL     1       9.096   9.825  19.060  0.00  0.00    +0.000 OA
BRANCH   5   9
ATOM      6  C   UNL     1      11.050  13.508  18.716  0.00  0.00    +0.000 A 
ATOM      7  C   UNL     1      11.146  12.585  17.677  0.00  0.00    +0.000 A 
ATOM      8  C   UNL     1      10.514  11.352  17.775  0.00  0.00    +0.000 A 
ATOM      9  C   UNL     1       9.784  11.013  18.920  0.00  0.00    +0.000 A 
ATOM     10  C   UNL     1       9.720  11.908  20.010  0.00  0.00    +0.000 A 
ATOM     11  C   UNL     1       9.029  11.586  21.203  0.00  0.00    +0.000 A 
ATOM     12  C   UNL     1       8.980  12.468  22.277  0.00  0.00    +0.000 A 
ATOM     13  C   UNL     1       9.602  13.705  22.180  0.00  0.00    +0.000 A 
ATOM     14  C   UNL     1      10.283  14.050  21.011  0.00  0.00    +0.000 A 
ATOM     15  C   UNL     1      10.364  13.173  19.909  0.00  0.00    +0.000 A 
BRANCH   6  17
ATOM     16  C   UNL     1      11.096  15.631  17.670  0.00  0.00    +0.000 C 
ATOM     17  O   UNL     1      11.642  14.750  18.650  0.00  0.00    +0.000 OA
ENDBRANCH   6  17
ENDBRANCH   5   9
ENDBRANCH   4   5
ENDBRANCH   3   4
ENDBRANCH   1   3
BRANCH   1  18
ATOM     18  C   UNL     1       6.258   6.316  17.700  0.00  0.00    +0.000 C 
BRANCH  18  19
ATOM     19  C   UNL     1       5.281   5.728  16.686  0.00  0.00    +0.000 C 
BRANCH  19  20
ATOM     20  C   UNL     1       5.426   4.212  16.654  0.00  0.00    +0.000 C 
BRANCH  20  21
ATOM     21  C   UNL     1       4.160   3.499  17.142  0.00  0.00    +0.000 C 
BRANCH  21  22
ATOM     22  N   UNL     1       3.724   4.079  18.395  0.00  0.00    +0.000 N 
ATOM     23  C   UNL     1       2.524   4.722  18.539  0.00  0.00    +0.000 C 
ATOM     24  O   UNL     1       1.806   5.144  17.644  0.00  0.00    +0.000 OA
ATOM     25  C   UNL     1       2.207   4.792  20.023  0.00  0.00    +0.000 C 
ATOM     26  C   UNL     1       0.865   4.185  20.403  0.00  0.00    +0.000 C 
ATOM     27  C   UNL     1       1.200   2.706  20.584  0.00  0.00    +0.000 C 
ATOM     28  C   UNL     1       2.586   2.760  21.226  0.00  0.00    +0.000 C 
ATOM     29  N   UNL     1       3.214   3.904  20.580  0.00  0.00    +0.000 N 
ATOM     30  C   UNL     1       4.157   3.580  19.596  0.00  0.00    +0.000 C 
ATOM     31  O   UNL     1       5.091   2.811  19.759  0.00  0.00    +0.000 OA
ENDBRANCH  21  22
ENDBRANCH  20  21
ENDBRANCH  19  20
ENDBRANCH  18  19
ENDBRANCH   1  18
TORSDOF 10
ENDMDL
MODEL 3
REMARK VINA RESULT:      -7.5      0.911      1.099
REMARK  Name = 
REMARK  11 active torsions:
REMARK  status: ('A' for Active; 'I' for Inactive)
REMARK    1  A    between atoms: C_1  and  O_2
REMARK    2  A    between atoms: O_2  and  C_3
REMARK    3  A    between atoms: C_6  and  O_7
REMARK    4  A    between atoms: O_7  and  C_8
REMARK    5  A    between atoms: C_8  and  C_9
REMARK    6  A    between atoms: C_9  and  N_10
REMARK    7  A    between atoms: N_10  and  C_11
REMARK    8  A    between atoms: C_11  and  C_12
REMARK    9  A    between atoms: C_12  and  C_13
REMARK   10  A    between atoms: C_13  and  C_14
REMARK   11  A    between atoms: C_14  and  N_15
REMARK                            x       y       z     vdW  Elec       q    Type
REMARK                         _______ _______ _______ _____ _____    ______ ____
ROOT
ATOM      1  N   UNL     1       7.170   7.881  17.280  0.00  0.00    +0.000 NA
ATOM      2  H   UNL     1       7.013   8.344  16.384  0.00  0.00    +0.000 HD
ENDROOT
BRANCH   1   3
ATOM      3  C   UNL     1       8.418   8.382  17.877  0.00  0.00    +0.000 C 
BRANCH   3   4
ATOM      4  C   UNL     1       8.379   9.880  18.191  0.00  0.00    +0.000 C 
BRANCH   4   5
ATOM      5  O   UNL     1       9.311  10.204  19.217  0.00  0.00    +0.000 OA
BRANCH   5   9
ATOM      6  C   UNL     1      11.451  13.745  18.606  0.00  0.00    +0.000 A 
ATOM      7  C   UNL     1      11.557  12.716  17.675  0.00  0.00    +0.000 A 
ATOM      8  C   UNL     1      10.863  11.528  17.863  0.00  0.00    +0.000 A 
ATOM      9  C   UNL     1      10.060  11.341  18.995  0.00  0.00    +0.000 A 
ATOM     10  C   UNL     1       9.983  12.348  19.982  0.00  0.00    +0.000 A 
ATOM     11  C   UNL     1       9.217  12.181  21.161  0.00  0.00    +0.000 A 
ATOM     12  C   UNL     1       9.155  13.172  22.134  0.00  0.00    +0.000 A 
ATOM     13  C   UNL     1       9.840  14.365  21.946  0.00  0.00    +0.000 A 
ATOM     14  C   UNL     1      10.595  14.557  20.787  0.00  0.00    +0.000 A 
ATOM     15  C   UNL     1      10.690  13.566  19.787  0.00  0.00    +0.000 A 
BRANCH   6  17
ATOM     16  C   UNL     1      11.689  15.719  17.319  0.00  0.00    +0.000 C 
ATOM     17  O   UNL     1      12.104  14.948  18.446  0.00  0.00    +0.000 OA
ENDBRANCH   6  17
ENDBRANCH   5   9
ENDBRANCH   4   5
ENDBRANCH   3   4
ENDBRANCH   1   3
BRANCH   1  18
ATOM     18  C   UNL     1       7.200   6.432  17.089  0.00  0.00    +0.000 C 
BRANCH  18  19
ATOM     19  C   UNL     1       5.781   5.881  16.985  0.00  0.00    +0.000 C 
BRANCH  19  20
ATOM     20  C   UNL     1       5.807   4.365  17.130  0.00  0.00    +0.000 C 
BRANCH  20  21
ATOM     21  C   UNL     1       5.126   3.896  18.421  0.00  0.00    +0.000 C 
BRANCH  21  22
ATOM     22  N   UNL     1       3.692   4.052  18.302  0.00  0.00    +0.000 N 
ATOM     23  C   UNL     1       2.850   3.007  18.035  0.00  0.00    +0.000 C 
ATOM     24  O   UNL     1       3.159   1.909  17.593  0.00  0.00    +0.000 OA
ATOM     25  C   UNL     1       1.443   3.430  18.421  0.00  0.00    +0.000 C 
ATOM     26  C   UNL     1       0.765   2.502  19.418  0.00  0.00    +0.000 C 
ATOM     27  C   UNL     1       1.252   3.033  20.763  0.00  0.00    +0.000 C 
ATOM     28  C   UNL     1       1.275   4.544  20.530  0.00  0.00    +0.000 C 
ATOM     29  N   UNL     1       1.696   4.666  19.142  0.00  0.00    +0.000 N 
ATOM     30  C   UNL     1       3.030   5.054  18.964  0.00  0.00    +0.000 C 
ATOM     31  O   UNL     1       3.545   6.027  19.492  0.00  0.00    +0.000 OA
ENDBRANCH  21  22
ENDBRANCH  20  21
ENDBRANCH  19  20
ENDBRANCH  18  19
ENDBRANCH   1  18
TORSDOF 10
ENDMDL
MODEL 4
REMARK VINA RESULT:      -7.4      6.321      7.715
REMARK  Name = 
REMARK  11 active torsions:
REMARK  status: ('A' for Active; 'I' for Inactive)
REMARK    1  A    between atoms: C_1  and  O_2
REMARK    2  A    between atoms: O_2  and  C_3
REMARK    3  A    between atoms: C_6  and  O_7
REMARK    4  A    between atoms: O_7  and  C_8
REMARK    5  A    between atoms: C_8  and  C_9
REMARK    6  A    between atoms: C_9  and  N_10
REMARK    7  A    between atoms: N_10  and  C_11
REMARK    8  A    between atoms: C_11  and  C_12
REMARK    9  A    between atoms: C_12  and  C_13
REMARK   10  A    between atoms: C_13  and  C_14
REMARK   11  A    between atoms: C_14  and  N_15
REMARK                            x       y       z     vdW  Elec       q    Type
REMARK                         _______ _______ _______ _____ _____    ______ ____
ROOT
ATOM      1  N   UNL     1       3.839   5.917  18.157  0.00  0.00    +0.000 NA
ATOM      2  H   UNL     1       2.983   5.516  17.775  0.00  0.00    +0.000 HD
ENDROOT
BRANCH   1   3
ATOM      3  C   UNL     1       4.019   7.279  17.631  0.00  0.00    +0.000 C 
BRANCH   3   4
ATOM      4  C   UNL     1       2.728   8.103  17.632  0.00  0.00    +0.000 C 
BRANCH   4   5
ATOM      5  O   UNL     1       2.158   8.146  18.936  0.00  0.00    +0.000 OA
BRANCH   5   9
ATOM      6  C   UNL     1      -0.928  10.890  19.599  0.00  0.00    +0.000 A 
ATOM      7  C   UNL     1      -0.473  10.676  18.300  0.00  0.00    +0.000 A 
ATOM      8  C   UNL     1       0.558   9.777  18.058  0.00  0.00    +0.000 A 
ATOM      9  C   UNL     1       1.163   9.084  19.114  0.00  0.00    +0.000 A 
ATOM     10  C   UNL     1       0.758   9.326  20.444  0.00  0.00    +0.000 A 
ATOM     11  C   UNL     1       1.373   8.678  21.542  0.00  0.00    +0.000 A 
ATOM     12  C   UNL     1       0.977   8.930  22.851  0.00  0.00    +0.000 A 
ATOM     13  C   UNL     1      -0.060   9.821  23.097  0.00  0.00    +0.000 A 
ATOM     14  C   UNL     1      -0.688  10.466  22.030  0.00  0.00    +0.000 A 
ATOM     15  C   UNL     1      -0.301  10.244  20.692  0.00  0.00    +0.000 A 
BRANCH   6  17
ATOM     16  C   UNL     1      -1.642  13.141  19.771  0.00  0.00    +0.000 C 
ATOM     17  O   UNL     1      -1.963  11.755  19.879  0.00  0.00    +0.000 OA
ENDBRANCH   6  17
ENDBRANCH   5   9
ENDBRANCH   4   5
ENDBRANCH   3   4
ENDBRANCH   1   3
BRANCH   1  18
ATOM     18  C   UNL     1       4.975   5.053  17.837  0.00  0.00    +0.000 C 
BRANCH  18  19
ATOM     19  C   UNL     1       4.620   4.115  16.688  0.00  0.00    +0.000 C 
BRANCH  19  20
ATOM     20  C   UNL     1       3.270   3.462  16.958  0.00  0.00    +0.000 C 
BRANCH  20  21
ATOM     21  C   UNL     1       3.416   2.075  17.596  0.00  0.00    +0.000 C 
BRANCH  21  22
ATOM     22  N   UNL     1       2.852   2.087  18.929  0.00  0.00    +0.000 N 
ATOM     23  C   UNL     1       3.543   2.526  20.025  0.00  0.00    +0.000 C 
ATOM     24  O   UNL     1       4.752   2.690  20.114  0.00  0.00    +0.000 OA
ATOM     25  C   UNL     1       2.537   2.817  21.126  0.00  0.00    +0.000 C 
ATOM     26  C   UNL     1       2.609   4.234  21.676  0.00  0.00    +0.000 C 
ATOM     27  C   UNL     1       1.722   5.019  20.711  0.00  0.00    +0.000 C 
ATOM     28  C   UNL     1       0.599   4.025  20.416  0.00  0.00    +0.000 C 
ATOM     29  N   UNL     1       1.280   2.738  20.401  0.00  0.00    +0.000 N 
ATOM     30  C   UNL     1       1.500   2.205  19.125  0.00  0.00    +0.000 C 
ATOM     31  O   UNL     1       0.636   2.067  18.273  0.00  0.00    +0.000 OA
ENDBRANCH  21  22
ENDBRANCH  20  21
ENDBRANCH  19  20
ENDBRANCH  18  19
ENDBRANCH   1  18
TORSDOF 10
ENDMDL
MODEL 5
REMARK VINA RESULT:      -7.4      6.353      7.618
REMARK  Name = 
REMARK  11 active torsions:
REMARK  status: ('A' for Active; 'I' for Inactive)
REMARK    1  A    between atoms: C_1  and  O_2
REMARK    2  A    between atoms: O_2  and  C_3
REMARK    3  A    between atoms: C_6  and  O_7
REMARK    4  A    between atoms: O_7  and  C_8
REMARK    5  A    between atoms: C_8  and  C_9
REMARK    6  A    between atoms: C_9  and  N_10
REMARK    7  A    between atoms: N_10  and  C_11
REMARK    8  A    between atoms: C_11  and  C_12
REMARK    9  A    between atoms: C_12  and  C_13
REMARK   10  A    between atoms: C_13  and  C_14
REMARK   11  A    between atoms: C_14  and  N_15
REMARK                            x       y       z     vdW  Elec       q    Type
REMARK                         _______ _______ _______ _____ _____    ______ ____
ROOT
ATOM      1  N   UNL     1       3.365   6.641  18.488  0.00  0.00    +0.000 NA
ATOM      2  H   UNL     1       3.365   5.641  18.689  0.00  0.00    +0.000 HD
ENDROOT
BRANCH   1   3
ATOM      3  C   UNL     1       2.008   7.066  18.115  0.00  0.00    +0.000 C 
BRANCH   3   4
ATOM      4  C   UNL     1       1.832   8.587  18.102  0.00  0.00    +0.000 C 
BRANCH   4   5
ATOM      5  O   UNL     1       1.733   9.094  19.429  0.00  0.00    +0.000 OA
BRANCH   5   9
ATOM      6  C   UNL     1      -0.673  12.480  19.922  0.00  0.00    +0.000 A 
ATOM      7  C   UNL     1       0.084  12.345  18.761  0.00  0.00    +0.000 A 
ATOM      8  C   UNL     1       0.898  11.234  18.581  0.00  0.00    +0.000 A 
ATOM      9  C   UNL     1       0.980  10.242  19.566  0.00  0.00    +0.000 A 
ATOM     10  C   UNL     1       0.266  10.385  20.775  0.00  0.00    +0.000 A 
ATOM     11  C   UNL     1       0.356   9.426  21.814  0.00  0.00    +0.000 A 
ATOM     12  C   UNL     1      -0.340   9.579  23.007  0.00  0.00    +0.000 A 
ATOM     13  C   UNL     1      -1.162  10.683  23.188  0.00  0.00    +0.000 A 
ATOM     14  C   UNL     1      -1.274  11.639  22.175  0.00  0.00    +0.000 A 
ATOM     15  C   UNL     1      -0.570  11.521  20.958  0.00  0.00    +0.000 A 
BRANCH   6  17
ATOM     16  C   UNL     1      -0.891  14.836  20.027  0.00  0.00    +0.000 C 
ATOM     17  O   UNL     1      -1.511  13.554  20.129  0.00  0.00    +0.000 OA
ENDBRANCH   6  17
ENDBRANCH   5   9
ENDBRANCH   4   5
ENDBRANCH   3   4
ENDBRANCH   1   3
BRANCH   1  18
ATOM     18  C   UNL     1       4.337   6.932  17.434  0.00  0.00    +0.000 C 
BRANCH  18  19
ATOM     19  C   UNL     1       4.835   5.638  16.799  0.00  0.00    +0.000 C 
BRANCH  19  20
ATOM     20  C   UNL     1       4.868   4.533  17.847  0.00  0.00    +0.000 C 
BRANCH  20  21
ATOM     21  C   UNL     1       4.262   3.224  17.327  0.00  0.00    +0.000 C 
BRANCH  21  22
ATOM     22  N   UNL     1       3.295   2.720  18.279  0.00  0.00    +0.000 N 
ATOM     23  C   UNL     1       3.630   2.346  19.552  0.00  0.00    +0.000 C 
ATOM     24  O   UNL     1       4.753   2.110  19.976  0.00  0.00    +0.000 OA
ATOM     25  C   UNL     1       2.357   2.307  20.379  0.00  0.00    +0.000 C 
ATOM     26  C   UNL     1       2.396   3.178  21.626  0.00  0.00    +0.000 C 
ATOM     27  C   UNL     1       1.967   4.545  21.099  0.00  0.00    +0.000 C 
ATOM     28  C   UNL     1       0.903   4.179  20.066  0.00  0.00    +0.000 C 
ATOM     29  N   UNL     1       1.407   2.944  19.483  0.00  0.00    +0.000 N 
ATOM     30  C   UNL     1       1.976   3.084  18.210  0.00  0.00    +0.000 C 
ATOM     31  O   UNL     1       1.430   3.630  17.264  0.00  0.00    +0.000 OA
ENDBRANCH  21  22
ENDBRANCH  20  21
ENDBRANCH  19  20
ENDBRANCH  18  19
ENDBRANCH   1  18
TORSDOF 10
ENDMDL
MODEL 6
REMARK VINA RESULT:      -7.3      5.876      7.913
REMARK  Name = 
REMARK  11 active torsions:
REMARK  status: ('A' for Active; 'I' for Inactive)
REMARK    1  A    between atoms: C_1  and  O_2
REMARK    2  A    between atoms: O_2  and  C_3
REMARK    3  A    between atoms: C_6  and  O_7
REMARK    4  A    between atoms: O_7  and  C_8
REMARK    5  A    between atoms: C_8  and  C_9
REMARK    6  A    between atoms: C_9  and  N_10
REMARK    7  A    between atoms: N_10  and  C_11
REMARK    8  A    between atoms: C_11  and  C_12
REMARK    9  A    between atoms: C_12  and  C_13
REMARK   10  A    between atoms: C_13  and  C_14
REMARK   11  A    between atoms: C_14  and  N_15
REMARK                            x       y       z     vdW  Elec       q    Type
REMARK                         _______ _______ _______ _____ _____    ______ ____
ROOT
ATOM      1  N   UNL     1       2.103   4.084  21.390  0.00  0.00    +0.000 NA
ATOM      2  H   UNL     1       1.359   3.643  21.931  0.00  0.00    +0.000 HD
ENDROOT
BRANCH   1   3
ATOM      3  C   UNL     1       1.513   4.992  20.395  0.00  0.00    +0.000 C 
BRANCH   3   4
ATOM      4  C   UNL     1       2.107   6.403  20.436  0.00  0.00    +0.000 C 
BRANCH   4   5
ATOM      5  O   UNL     1       1.220   7.304  21.091  0.00  0.00    +0.000 OA
BRANCH   5   9
ATOM      6  C   UNL     1       0.591  11.027  19.291  0.00  0.00    +0.000 A 
ATOM      7  C   UNL     1       1.334  10.061  18.617  0.00  0.00    +0.000 A 
ATOM      8  C   UNL     1       1.564   8.822  19.201  0.00  0.00    +0.000 A 
ATOM      9  C   UNL     1       1.066   8.529  20.476  0.00  0.00    +0.000 A 
ATOM     10  C   UNL     1       0.359   9.512  21.202  0.00  0.00    +0.000 A 
ATOM     11  C   UNL     1      -0.124   9.271  22.511  0.00  0.00    +0.000 A 
ATOM     12  C   UNL     1      -0.810  10.247  23.225  0.00  0.00    +0.000 A 
ATOM     13  C   UNL     1      -1.050  11.484  22.642  0.00  0.00    +0.000 A 
ATOM     14  C   UNL     1      -0.592  11.744  21.349  0.00  0.00    +0.000 A 
ATOM     15  C   UNL     1       0.120  10.780  20.603  0.00  0.00    +0.000 A 
BRANCH   6  17
ATOM     16  C   UNL     1       1.464  13.066  18.461  0.00  0.00    +0.000 C 
ATOM     17  O   UNL     1       0.320  12.259  18.738  0.00  0.00    +0.000 OA
ENDBRANCH   6  17
ENDBRANCH   5   9
ENDBRANCH   4   5
ENDBRANCH   3   4
ENDBRANCH   1   3
BRANCH   1  18
ATOM     18  C   UNL     1       2.936   3.057  20.766  0.00  0.00    +0.000 C 
BRANCH  18  19
ATOM     19  C   UNL     1       2.856   3.160  19.247  0.00  0.00    +0.000 C 
BRANCH  19  20
ATOM     20  C   UNL     1       4.257   3.316  18.670  0.00  0.00    +0.000 C 
BRANCH  20  21
ATOM     21  C   UNL     1       5.043   4.439  19.355  0.00  0.00    +0.000 C 
BRANCH  21  22
ATOM     22  N   UNL     1       5.672   5.277  18.357  0.00  0.00    +0.000 N 
ATOM     23  C   UNL     1       6.920   5.028  17.855  0.00  0.00    +0.000 C 
ATOM     24  O   UNL     1       7.771   4.291  18.335  0.00  0.00    +0.000 OA
ATOM     25  C   UNL     1       7.067   5.803  16.557  0.00  0.00    +0.000 C 
ATOM     26  C   UNL     1       7.433   4.944  15.356  0.00  0.00    +0.000 C 
ATOM     27  C   UNL     1       6.074   4.450  14.864  0.00  0.00    +0.000 C 
ATOM     28  C   UNL     1       5.180   5.668  15.093  0.00  0.00    +0.000 C 
ATOM     29  N   UNL     1       5.702   6.244  16.325  0.00  0.00    +0.000 N 
ATOM     30  C   UNL     1       4.923   5.999  17.464  0.00  0.00    +0.000 C 
ATOM     31  O   UNL     1       3.725   6.219  17.545  0.00  0.00    +0.000 OA
ENDBRANCH  21  22
ENDBRANCH  20  21
ENDBRANCH  19  20
ENDBRANCH  18  19
ENDBRANCH   1  18
TORSDOF 10
ENDMDL
MODEL 7
REMARK VINA RESULT:      -7.3      6.698      9.152
REMARK  Name = 
REMARK  11 active torsions:
REMARK  status: ('A' for Active; 'I' for Inactive)
REMARK    1  A    between atoms: C_1  and  O_2
REMARK    2  A    between atoms: O_2  and  C_3
REMARK    3  A    between atoms: C_6  and  O_7
REMARK    4  A    between atoms: O_7  and  C_8
REMARK    5  A    between atoms: C_8  and  C_9
REMARK    6  A    between atoms: C_9  and  N_10
REMARK    7  A    between atoms: N_10  and  C_11
REMARK    8  A    between atoms: C_11  and  C_12
REMARK    9  A    between atoms: C_12  and  C_13
REMARK   10  A    between atoms: C_13  and  C_14
REMARK   11  A    between atoms: C_14  and  N_15
REMARK                            x       y       z     vdW  Elec       q    Type
REMARK                         _______ _______ _______ _____ _____    ______ ____
ROOT
ATOM      1  N   UNL     1       2.039   6.969  18.596  0.00  0.00    +0.000 NA
ATOM      2  H   UNL     1       2.401   6.071  18.275  0.00  0.00    +0.000 HD
ENDROOT
BRANCH   1   3
ATOM      3  C   UNL     1       2.640   8.051  17.802  0.00  0.00    +0.000 C 
BRANCH   3   4
ATOM      4  C   UNL     1       1.990   9.416  18.049  0.00  0.00    +0.000 C 
BRANCH   4   5
ATOM      5  O   UNL     1       0.597   9.371  17.759  0.00  0.00    +0.000 OA
BRANCH   5   9
ATOM      6  C   UNL     1      -1.843  12.027  19.877  0.00  0.00    +0.000 A 
ATOM      7  C   UNL     1      -0.581  11.714  20.377  0.00  0.00    +0.000 A 
ATOM      8  C   UNL     1       0.242  10.827  19.695  0.00  0.00    +0.000 A 
ATOM      9  C   UNL     1      -0.188  10.224  18.507  0.00  0.00    +0.000 A 
ATOM     10  C   UNL     1      -1.484  10.481  18.011  0.00  0.00    +0.000 A 
ATOM     11  C   UNL     1      -1.972   9.858  16.836  0.00  0.00    +0.000 A 
ATOM     12  C   UNL     1      -3.255  10.107  16.360  0.00  0.00    +0.000 A 
ATOM     13  C   UNL     1      -4.077  11.001  17.033  0.00  0.00    +0.000 A 
ATOM     14  C   UNL     1      -3.616  11.634  18.189  0.00  0.00    +0.000 A 
ATOM     15  C   UNL     1      -2.326  11.393  18.707  0.00  0.00    +0.000 A 
BRANCH   6  17
ATOM     16  C   UNL     1      -3.037  12.574  21.847  0.00  0.00    +0.000 C 
ATOM     17  O   UNL     1      -2.680  12.920  20.509  0.00  0.00    +0.000 OA
ENDBRANCH   6  17
ENDBRANCH   5   9
ENDBRANCH   4   5
ENDBRANCH   3   4
ENDBRANCH   1   3
BRANCH   1  18
ATOM     18  C   UNL     1       2.306   7.127  20.025  0.00  0.00    +0.000 C 
BRANCH  18  19
ATOM     19  C   UNL     1       2.010   5.828  20.767  0.00  0.00    +0.000 C 
BRANCH  19  20
ATOM     20  C   UNL     1       0.875   5.088  20.071  0.00  0.00    +0.000 C 
BRANCH  20  21
ATOM     21  C   UNL     1       1.044   3.566  20.148  0.00  0.00    +0.000 C 
BRANCH  21  22
ATOM     22  N   UNL     1       2.084   3.143  19.234  0.00  0.00    +0.000 N 
ATOM     23  C   UNL     1       2.153   3.570  17.936  0.00  0.00    +0.000 C 
ATOM     24  O   UNL     1       1.261   4.101  17.290  0.00  0.00    +0.000 OA
ATOM     25  C   UNL     1       3.561   3.305  17.431  0.00  0.00    +0.000 C 
ATOM     26  C   UNL     1       4.272   4.537  16.893  0.00  0.00    +0.000 C 
ATOM     27  C   UNL     1       4.881   5.155  18.150  0.00  0.00    +0.000 C 
ATOM     28  C   UNL     1       5.302   3.922  18.949  0.00  0.00    +0.000 C 
ATOM     29  N   UNL     1       4.252   2.956  18.661  0.00  0.00    +0.000 N 
ATOM     30  C   UNL     1       3.322   2.773  19.692  0.00  0.00    +0.000 C 
ATOM     31  O   UNL     1       3.613   2.522  20.851  0.00  0.00    +0.000 OA
ENDBRANCH  21  22
ENDBRANCH  20  21
ENDBRANCH  19  20
ENDBRANCH  18  19
ENDBRANCH   1  18
TORSDOF 10
ENDMDL
MODEL 8
REMARK VINA RESULT:      -7.2      5.859      8.939
REMARK  Name = 
REMARK  11 active torsions:
REMARK  status: ('A' for Active; 'I' for Inactive)
REMARK    1  A    between atoms: C_1  and  O_2
REMARK    2  A    between atoms: O_2  and  C_3
REMARK    3  A    between atoms: C_6  and  O_7
REMARK    4  A    between atoms: O_7  and  C_8
REMARK    5  A    between atoms: C_8  and  C_9
REMARK    6  A    between atoms: C_9  and  N_10
REMARK    7  A    between atoms: N_10  and  C_11
REMARK    8  A    between atoms: C_11  and  C_12
REMARK    9  A    between atoms: C_12  and  C_13
REMARK   10  A    between atoms: C_13  and  C_14
REMARK   11  A    between atoms: C_14  and  N_15
REMARK                            x       y       z     vdW  Elec       q    Type
REMARK                         _______ _______ _______ _____ _____    ______ ____
ROOT
ATOM      1  N   UNL     1       2.167   5.934  20.882  0.00  0.00    +0.000 NA
ATOM      2  H   UNL     1       1.670   6.211  21.728  0.00  0.00    +0.000 HD
ENDROOT
BRANCH   1   3
ATOM      3  C   UNL     1       2.031   6.991  19.868  0.00  0.00    +0.000 C 
BRANCH   3   4
ATOM      4  C   UNL     1       1.625   8.345  20.457  0.00  0.00    +0.000 C 
BRANCH   4   5
ATOM      5  O   UNL     1       1.125   9.207  19.441  0.00  0.00    +0.000 OA
BRANCH   5   9
ATOM      6  C   UNL     1      -1.682  12.101  20.557  0.00  0.00    +0.000 A 
ATOM      7  C   UNL     1      -0.669  11.754  21.448  0.00  0.00    +0.000 A 
ATOM      8  C   UNL     1       0.267  10.789  21.102  0.00  0.00    +0.000 A 
ATOM      9  C   UNL     1       0.200  10.141  19.862  0.00  0.00    +0.000 A 
ATOM     10  C   UNL     1      -0.850  10.434  18.966  0.00  0.00    +0.000 A 
ATOM     11  C   UNL     1      -0.979   9.770  17.722  0.00  0.00    +0.000 A 
ATOM     12  C   UNL     1      -2.023  10.055  16.850  0.00  0.00    +0.000 A 
ATOM     13  C   UNL     1      -2.956  11.026  17.187  0.00  0.00    +0.000 A 
ATOM     14  C   UNL     1      -2.847  11.701  18.405  0.00  0.00    +0.000 A 
ATOM     15  C   UNL     1      -1.808  11.425  19.319  0.00  0.00    +0.000 A 
BRANCH   6  17
ATOM     16  C   UNL     1      -2.093  14.385  21.026  0.00  0.00    +0.000 C 
ATOM     17  O   UNL     1      -2.616  13.069  20.852  0.00  0.00    +0.000 OA
ENDBRANCH   6  17
ENDBRANCH   5   9
ENDBRANCH   4   5
ENDBRANCH   3   4
ENDBRANCH   1   3
BRANCH   1  18
ATOM     18  C   UNL     1       1.653   4.651  20.405  0.00  0.00    +0.000 C 
BRANCH  18  19
ATOM     19  C   UNL     1       2.500   3.505  20.951  0.00  0.00    +0.000 C 
BRANCH  19  20
ATOM     20  C   UNL     1       2.994   2.639  19.799  0.00  0.00    +0.000 C 
BRANCH  20  21
ATOM     21  C   UNL     1       4.460   2.920  19.452  0.00  0.00    +0.000 C 
BRANCH  21  22
ATOM     22  N   UNL     1       4.561   4.168  18.725  0.00  0.00    +0.000 N 
ATOM     23  C   UNL     1       5.580   5.061  18.918  0.00  0.00    +0.000 C 
ATOM     24  O   UNL     1       6.353   5.099  19.866  0.00  0.00    +0.000 OA
ATOM     25  C   UNL     1       5.619   5.993  17.720  0.00  0.00    +0.000 C 
ATOM     26  C   UNL     1       6.964   6.039  17.009  0.00  0.00    +0.000 C 
ATOM     27  C   UNL     1       6.878   4.860  16.042  0.00  0.00    +0.000 C 
ATOM     28  C   UNL     1       5.416   4.905  15.599  0.00  0.00    +0.000 C 
ATOM     29  N   UNL     1       4.711   5.326  16.802  0.00  0.00    +0.000 N 
ATOM     30  C   UNL     1       4.026   4.303  17.470  0.00  0.00    +0.000 C 
ATOM     31  O   UNL     1       3.234   3.539  16.942  0.00  0.00    +0.000 OA
ENDBRANCH  21  22
ENDBRANCH  20  21
ENDBRANCH  19  20
ENDBRANCH  18  19
ENDBRANCH   1  18
TORSDOF 10
ENDMDL
MODEL 9
REMARK VINA RESULT:      -7.2      2.479     10.290
REMARK  Name = 
REMARK  11 active torsions:
REMARK  status: ('A' for Active; 'I' for Inactive)
REMARK    1  A    between atoms: C_1  and  O_2
REMARK    2  A    between atoms: O_2  and  C_3
REMARK    3  A    between atoms: C_6  and  O_7
REMARK    4  A    between atoms: O_7  and  C_8
REMARK    5  A    between atoms: C_8  and  C_9
REMARK    6  A    between atoms: C_9  and  N_10
REMARK    7  A    between atoms: N_10  and  C_11
REMARK    8  A    between atoms: C_11  and  C_12
REMARK    9  A    between atoms: C_12  and  C_13
REMARK   10  A    between atoms: C_13  and  C_14
REMARK   11  A    between atoms: C_14  and  N_15
REMARK                            x       y       z     vdW  Elec       q    Type
REMARK                         _______ _______ _______ _____ _____    ______ ____
ROOT
ATOM      1  N   UNL     1       7.793   7.855  17.082  0.00  0.00    +0.000 NA
ATOM      2  H   UNL     1       7.326   8.010  16.189  0.00  0.00    +0.000 HD
ENDROOT
BRANCH   1   3
ATOM      3  C   UNL     1       7.286   6.617  17.692  0.00  0.00    +0.000 C 
BRANCH   3   4
ATOM      4  C   UNL     1       6.842   5.574  16.662  0.00  0.00    +0.000 C 
BRANCH   4   5
ATOM      5  O   UNL     1       5.428   5.596  16.500  0.00  0.00    +0.000 OA
BRANCH   5   9
ATOM      6  C   UNL     1       3.243   4.689  19.949  0.00  0.00    +0.000 A 
ATOM      7  C   UNL     1       4.106   3.733  19.418  0.00  0.00    +0.000 A 
ATOM      8  C   UNL     1       4.833   4.009  18.267  0.00  0.00    +0.000 A 
ATOM      9  C   UNL     1       4.701   5.243  17.618  0.00  0.00    +0.000 A 
ATOM     10  C   UNL     1       3.791   6.205  18.105  0.00  0.00    +0.000 A 
ATOM     11  C   UNL     1       3.596   7.447  17.454  0.00  0.00    +0.000 A 
ATOM     12  C   UNL     1       2.689   8.386  17.932  0.00  0.00    +0.000 A 
ATOM     13  C   UNL     1       1.966   8.118  19.087  0.00  0.00    +0.000 A 
ATOM     14  C   UNL     1       2.146   6.903  19.753  0.00  0.00    +0.000 A 
ATOM     15  C   UNL     1       3.048   5.924  19.286  0.00  0.00    +0.000 A 
BRANCH   6  17
ATOM     16  C   UNL     1       1.538   3.434  21.010  0.00  0.00    +0.000 C 
ATOM     17  O   UNL     1       2.521   4.463  21.101  0.00  0.00    +0.000 OA
ENDBRANCH   6  17
ENDBRANCH   5   9
ENDBRANCH   4   5
ENDBRANCH   3   4
ENDBRANCH   1   3
BRANCH   1  18
ATOM     18  C   UNL     1       7.592   9.014  17.951  0.00  0.00    +0.000 C 
BRANCH  18  19
ATOM     19  C   UNL     1       8.835   9.898  17.953  0.00  0.00    +0.000 C 
BRANCH  19  20
ATOM     20  C   UNL     1       9.304  10.121  19.385  0.00  0.00    +0.000 C 
BRANCH  20  21
ATOM     21  C   UNL     1       9.270  11.602  19.781  0.00  0.00    +0.000 C 
BRANCH  21  22
ATOM     22  N   UNL     1      10.084  12.372  18.865  0.00  0.00    +0.000 N 
ATOM     23  C   UNL     1       9.577  13.371  18.079  0.00  0.00    +0.000 C 
ATOM     24  O   UNL     1       8.400  13.571  17.814  0.00  0.00    +0.000 OA
ATOM     25  C   UNL     1      10.738  14.231  17.609  0.00  0.00    +0.000 C 
ATOM     26  C   UNL     1      10.599  15.707  17.952  0.00  0.00    +0.000 C 
ATOM     27  C   UNL     1      11.166  15.781  19.368  0.00  0.00    +0.000 C 
ATOM     28  C   UNL     1      12.325  14.786  19.309  0.00  0.00    +0.000 C 
ATOM     29  N   UNL     1      11.824  13.734  18.437  0.00  0.00    +0.000 N 
ATOM     30  C   UNL     1      11.421  12.565  19.096  0.00  0.00    +0.000 C 
ATOM     31  O   UNL     1      12.107  11.951  19.898  0.00  0.00    +0.000 OA
ENDBRANCH  21  22
ENDBRANCH  20  21
ENDBRANCH  19  20
ENDBRANCH  18  19
ENDBRANCH   1  18
TORSDOF 10
ENDMDL
