MODEL 1
REMARK VINA RESULT:      -7.3      0.000      0.000
REMARK  Name = 
REMARK  5 active torsions:
REMARK  status: ('A' for Active; 'I' for Inactive)
REMARK    1  A    between atoms: C_1  and  O_2
REMARK    2  A    between atoms: O_2  and  C_3
REMARK    3  A    between atoms: C_6  and  C_7
REMARK    4  A    between atoms: C_7  and  C_8
REMARK    5  A    between atoms: C_14  and  N_15
REMARK                            x       y       z     vdW  Elec       q    Type
REMARK                         _______ _______ _______ _____ _____    ______ ____
ROOT
ATOM      1  C   UNL     1       1.635  10.137  18.695  0.00  0.00    +0.000 C 
ATOM      2  O   UNL     1       2.144  10.970  17.946  0.00  0.00    +0.000 OA
ATOM      3  N   UNL     1       1.806   8.787  18.508  0.00  0.00    +0.000 N 
ATOM      4  C   UNL     1       2.734   8.143  17.586  0.00  0.00    +0.000 C 
ATOM      5  C   UNL     1       2.648   6.885  18.488  0.00  0.00    +0.000 C 
ATOM      6  C   UNL     1       3.929   6.310  19.076  0.00  0.00    +0.000 C 
ATOM      7  C   UNL     1       3.915   4.819  18.729  0.00  0.00    +0.000 C 
ATOM      8  C   UNL     1       2.542   4.533  18.111  0.00  0.00    +0.000 C 
ATOM      9  O   UNL     1       1.890   5.787  17.924  0.00  0.00    +0.000 OA
ATOM     10  C   UNL     1       1.921   7.759  19.528  0.00  0.00    +0.000 C 
ENDROOT
BRANCH   7  11
ATOM     11  N   UNL     1       5.070   4.352  17.935  0.00  0.00    +0.000 NA
ATOM     12  C   UNL     1       4.812   4.313  16.488  0.00  0.00    +0.000 C 
ATOM     13  C   UNL     1       6.004   3.727  15.731  0.00  0.00    +0.000 C 
ATOM     14  C   UNL     1       7.283   4.502  16.035  0.00  0.00    +0.000 C 
ATOM     15  C   UNL     1       7.507   4.579  17.540  0.00  0.00    +0.000 C 
ATOM     16  C   UNL     1       6.275   5.140  18.250  0.00  0.00    +0.000 C 
ENDBRANCH   7  11
BRANCH   1  17
ATOM     17  C   UNL     1       0.735  10.522  19.861  0.00  0.00    +0.000 C 
BRANCH  17  21
ATOM     18  C   UNL     1      -3.282  11.614  18.671  0.00  0.00    +0.000 A 
ATOM     19  C   UNL     1      -2.656  12.268  19.736  0.00  0.00    +0.000 A 
ATOM     20  C   UNL     1      -1.363  11.922  20.123  0.00  0.00    +0.000 A 
ATOM     21  C   UNL     1      -0.677  10.890  19.469  0.00  0.00    +0.000 A 
ATOM     22  C   UNL     1      -1.312  10.229  18.409  0.00  0.00    +0.000 A 
ATOM     23  C   UNL     1      -2.603  10.588  18.013  0.00  0.00    +0.000 A 
BRANCH  18  25
ATOM     24  C   UNL     1      -5.521  10.999  18.226  0.00  0.00    +0.000 C 
ATOM     25  O   UNL     1      -4.553  12.031  18.386  0.00  0.00    +0.000 OA
ENDBRANCH  18  25
ENDBRANCH  17  21
ENDBRANCH   1  17
TORSDOF 4
ENDMDL
MODEL 2
REMARK VINA RESULT:      -7.2      2.306      4.607
REMARK  Name = 
REMARK  5 active torsions:
REMARK  status: ('A' for Active; 'I' for Inactive)
REMARK    1  A    between atoms: C_1  and  O_2
REMARK    2  A    between atoms: O_2  and  C_3
REMARK    3  A    between atoms: C_6  and  C_7
REMARK    4  A    between atoms: C_7  and  C_8
REMARK    5  A    between atoms: C_14  and  N_15
REMARK                            x       y       z     vdW  Elec       q    Type
REMARK                         _______ _______ _______ _____ _____    ______ ____
ROOT
ATOM      1  C   UNL     1       2.224   5.061  19.362  0.00  0.00    +0.000 C 
ATOM      2  O   UNL     1       1.190   4.497  19.004  0.00  0.00    +0.000 OA
ATOM      3  N   UNL     1       3.413   4.896  18.696  0.00  0.00    +0.000 N 
ATOM      4  C   UNL     1       3.610   4.244  17.406  0.00  0.00    +0.000 C 
ATOM      5  C   UNL     1       4.921   5.061  17.271  0.00  0.00    +0.000 C 
ATOM      6  C   UNL     1       5.110   5.959  16.058  0.00  0.00    +0.000 C 
ATOM      7  C   UNL     1       6.474   5.588  15.471  0.00  0.00    +0.000 C 
ATOM      8  C   UNL     1       7.120   4.614  16.464  0.00  0.00    +0.000 C 
ATOM      9  O   UNL     1       6.135   4.287  17.441  0.00  0.00    +0.000 OA
ATOM     10  C   UNL     1       4.457   5.884  18.488  0.00  0.00    +0.000 C 
ENDROOT
BRANCH   7  11
ATOM     11  N   UNL     1       6.445   5.125  14.068  0.00  0.00    +0.000 NA
ATOM     12  C   UNL     1       7.747   5.215  13.392  0.00  0.00    +0.000 C 
ATOM     13  C   UNL     1       7.633   4.820  11.920  0.00  0.00    +0.000 C 
ATOM     14  C   UNL     1       7.036   3.423  11.770  0.00  0.00    +0.000 C 
ATOM     15  C   UNL     1       5.714   3.332  12.520  0.00  0.00    +0.000 C 
ATOM     16  C   UNL     1       5.878   3.768  13.976  0.00  0.00    +0.000 C 
ENDBRANCH   7  11
BRANCH   1  17
ATOM     17  C   UNL     1       2.289   5.948  20.597  0.00  0.00    +0.000 C 
BRANCH  17  21
ATOM     18  C   UNL     1       0.710   9.935  20.005  0.00  0.00    +0.000 A 
ATOM     19  C   UNL     1       1.400   9.287  18.976  0.00  0.00    +0.000 A 
ATOM     20  C   UNL     1       1.909   8.002  19.161  0.00  0.00    +0.000 A 
ATOM     21  C   UNL     1       1.765   7.351  20.392  0.00  0.00    +0.000 A 
ATOM     22  C   UNL     1       1.083   8.008  21.424  0.00  0.00    +0.000 A 
ATOM     23  C   UNL     1       0.560   9.290  21.232  0.00  0.00    +0.000 A 
BRANCH  18  25
ATOM     24  C   UNL     1      -1.045  11.510  20.179  0.00  0.00    +0.000 C 
ATOM     25  O   UNL     1       0.263  11.195  19.714  0.00  0.00    +0.000 OA
ENDBRANCH  18  25
ENDBRANCH  17  21
ENDBRANCH   1  17
TORSDOF 4
ENDMDL
MODEL 3
REMARK VINA RESULT:      -7.1      6.347      8.953
REMARK  Name = 
REMARK  5 active torsions:
REMARK  status: ('A' for Active; 'I' for Inactive)
REMARK    1  A    between atoms: C_1  and  O_2
REMARK    2  A    between atoms: O_2  and  C_3
REMARK    3  A    between atoms: C_6  and  C_7
REMARK    4  A    between atoms: C_7  and  C_8
REMARK    5  A    between atoms: C_14  and  N_15
REMARK                            x       y       z     vdW  Elec       q    Type
REMARK                         _______ _______ _______ _____ _____    ______ ____
ROOT
ATOM      1  C   UNL     1       8.484   9.208  18.360  0.00  0.00    +0.000 C 
ATOM      2  O   UNL     1       9.120   9.022  19.396  0.00  0.00    +0.000 OA
ATOM      3  N   UNL     1       7.870   8.181  17.687  0.00  0.00    +0.000 N 
ATOM      4  C   UNL     1       7.684   6.814  18.159  0.00  0.00    +0.000 C 
ATOM      5  C   UNL     1       6.507   6.701  17.156  0.00  0.00    +0.000 C 
ATOM      6  C   UNL     1       5.128   6.323  17.677  0.00  0.00    +0.000 C 
ATOM      7  C   UNL     1       4.655   5.159  16.803  0.00  0.00    +0.000 C 
ATOM      8  C   UNL     1       5.692   5.012  15.683  0.00  0.00    +0.000 C 
ATOM      9  O   UNL     1       6.780   5.879  15.994  0.00  0.00    +0.000 OA
ATOM     10  C   UNL     1       6.613   8.225  16.959  0.00  0.00    +0.000 C 
ENDROOT
BRANCH   7  11
ATOM     11  N   UNL     1       4.344   3.915  17.536  0.00  0.00    +0.000 NA
ATOM     12  C   UNL     1       4.585   4.009  18.984  0.00  0.00    +0.000 C 
ATOM     13  C   UNL     1       4.343   2.665  19.672  0.00  0.00    +0.000 C 
ATOM     14  C   UNL     1       2.936   2.147  19.386  0.00  0.00    +0.000 C 
ATOM     15  C   UNL     1       2.685   2.106  17.884  0.00  0.00    +0.000 C 
ATOM     16  C   UNL     1       2.973   3.463  17.243  0.00  0.00    +0.000 C 
ENDBRANCH   7  11
BRANCH   1  17
ATOM     17  C   UNL     1       8.362  10.578  17.706  0.00  0.00    +0.000 C 
BRANCH  17  21
ATOM     18  C   UNL     1      11.317  13.420  19.095  0.00  0.00    +0.000 A 
ATOM     19  C   UNL     1       9.996  13.494  19.547  0.00  0.00    +0.000 A 
ATOM     20  C   UNL     1       9.040  12.581  19.104  0.00  0.00    +0.000 A 
ATOM     21  C   UNL     1       9.381  11.590  18.174  0.00  0.00    +0.000 A 
ATOM     22  C   UNL     1      10.703  11.526  17.716  0.00  0.00    +0.000 A 
ATOM     23  C   UNL     1      11.664  12.433  18.173  0.00  0.00    +0.000 A 
BRANCH  18  25
ATOM     24  C   UNL     1      12.333  15.532  18.781  0.00  0.00    +0.000 C 
ATOM     25  O   UNL     1      12.165  14.373  19.591  0.00  0.00    +0.000 OA
ENDBRANCH  18  25
ENDBRANCH  17  21
ENDBRANCH   1  17
TORSDOF 4
ENDMDL
MODEL 4
REMARK VINA RESULT:      -7.1      1.884      2.675
REMARK  Name = 
REMARK  5 active torsions:
REMARK  status: ('A' for Active; 'I' for Inactive)
REMARK    1  A    between atoms: C_1  and  O_2
REMARK    2  A    between atoms: O_2  and  C_3
REMARK    3  A    between atoms: C_6  and  C_7
REMARK    4  A    between atoms: C_7  and  C_8
REMARK    5  A    between atoms: C_14  and  N_15
REMARK                            x       y       z     vdW  Elec       q    Type
REMARK                         _______ _______ _______ _____ _____    ______ ____
ROOT
ATOM      1  C   UNL     1       0.500   9.771  19.584  0.00  0.00    +0.000 C 
ATOM      2  O   UNL     1      -0.002   9.589  20.693  0.00  0.00    +0.000 OA
ATOM      3  N   UNL     1       1.556   9.021  19.129  0.00  0.00    +0.000 N 
ATOM      4  C   UNL     1       2.096   7.811  19.740  0.00  0.00    +0.000 C 
ATOM      5  C   UNL     1       2.672   7.449  18.346  0.00  0.00    +0.000 C 
ATOM      6  C   UNL     1       2.291   6.118  17.714  0.00  0.00    +0.000 C 
ATOM      7  C   UNL     1       3.610   5.455  17.309  0.00  0.00    +0.000 C 
ATOM      8  C   UNL     1       4.709   6.498  17.550  0.00  0.00    +0.000 C 
ATOM      9  O   UNL     1       4.109   7.598  18.229  0.00  0.00    +0.000 OA
ATOM     10  C   UNL     1       1.814   8.589  17.766  0.00  0.00    +0.000 C 
ENDROOT
BRANCH   7  11
ATOM     11  N   UNL     1       3.856   4.132  17.919  0.00  0.00    +0.000 NA
ATOM     12  C   UNL     1       3.936   4.166  19.386  0.00  0.00    +0.000 C 
ATOM     13  C   UNL     1       4.293   2.792  19.952  0.00  0.00    +0.000 C 
ATOM     14  C   UNL     1       3.300   1.731  19.484  0.00  0.00    +0.000 C 
ATOM     15  C   UNL     1       3.190   1.745  17.965  0.00  0.00    +0.000 C 
ATOM     16  C   UNL     1       2.865   3.148  17.452  0.00  0.00    +0.000 C 
ENDBRANCH   7  11
BRANCH   1  17
ATOM     17  C   UNL     1       0.031  10.871  18.642  0.00  0.00    +0.000 C 
BRANCH  17  21
ATOM     18  C   UNL     1      -4.206  10.894  17.757  0.00  0.00    +0.000 A 
ATOM     19  C   UNL     1      -3.674  11.785  18.694  0.00  0.00    +0.000 A 
ATOM     20  C   UNL     1      -2.310  11.783  18.982  0.00  0.00    +0.000 A 
ATOM     21  C   UNL     1      -1.453  10.867  18.359  0.00  0.00    +0.000 A 
ATOM     22  C   UNL     1      -1.992   9.968  17.429  0.00  0.00    +0.000 A 
ATOM     23  C   UNL     1      -3.358   9.982  17.130  0.00  0.00    +0.000 A 
BRANCH  18  25
ATOM     24  C   UNL     1      -6.366  10.698  18.699  0.00  0.00    +0.000 C 
ATOM     25  O   UNL     1      -5.558  10.980  17.562  0.00  0.00    +0.000 OA
ENDBRANCH  18  25
ENDBRANCH  17  21
ENDBRANCH   1  17
TORSDOF 4
ENDMDL
MODEL 5
REMARK VINA RESULT:      -7.1      2.709      4.492
REMARK  Name = 
REMARK  5 active torsions:
REMARK  status: ('A' for Active; 'I' for Inactive)
REMARK    1  A    between atoms: C_1  and  O_2
REMARK    2  A    between atoms: O_2  and  C_3
REMARK    3  A    between atoms: C_6  and  C_7
REMARK    4  A    between atoms: C_7  and  C_8
REMARK    5  A    between atoms: C_14  and  N_15
REMARK                            x       y       z     vdW  Elec       q    Type
REMARK                         _______ _______ _______ _____ _____    ______ ____
ROOT
ATOM      1  C   UNL     1       2.346   5.077  19.609  0.00  0.00    +0.000 C 
ATOM      2  O   UNL     1       1.377   4.437  19.200  0.00  0.00    +0.000 OA
ATOM      3  N   UNL     1       3.611   4.881  19.114  0.00  0.00    +0.000 N 
ATOM      4  C   UNL     1       3.980   4.092  17.944  0.00  0.00    +0.000 C 
ATOM      5  C   UNL     1       5.279   4.936  17.871  0.00  0.00    +0.000 C 
ATOM      6  C   UNL     1       5.595   5.694  16.590  0.00  0.00    +0.000 C 
ATOM      7  C   UNL     1       7.029   5.309  16.219  0.00  0.00    +0.000 C 
ATOM      8  C   UNL     1       7.571   4.482  17.392  0.00  0.00    +0.000 C 
ATOM      9  O   UNL     1       6.480   4.233  18.275  0.00  0.00    +0.000 OA
ATOM     10  C   UNL     1       4.650   5.877  18.916  0.00  0.00    +0.000 C 
ENDROOT
BRANCH   7  11
ATOM     11  N   UNL     1       7.183   4.686  14.888  0.00  0.00    +0.000 NA
ATOM     12  C   UNL     1       5.968   4.010  14.410  0.00  0.00    +0.000 C 
ATOM     13  C   UNL     1       6.218   3.300  13.080  0.00  0.00    +0.000 C 
ATOM     14  C   UNL     1       6.750   4.272  12.030  0.00  0.00    +0.000 C 
ATOM     15  C   UNL     1       7.977   5.001  12.561  0.00  0.00    +0.000 C 
ATOM     16  C   UNL     1       7.681   5.664  13.907  0.00  0.00    +0.000 C 
ENDBRANCH   7  11
BRANCH   1  17
ATOM     17  C   UNL     1       2.238   6.104  20.728  0.00  0.00    +0.000 C 
BRANCH  17  21
ATOM     18  C   UNL     1       0.816  10.002  19.493  0.00  0.00    +0.000 A 
ATOM     19  C   UNL     1       0.529   9.516  20.773  0.00  0.00    +0.000 A 
ATOM     20  C   UNL     1       0.985   8.262  21.176  0.00  0.00    +0.000 A 
ATOM     21  C   UNL     1       1.714   7.453  20.295  0.00  0.00    +0.000 A 
ATOM     22  C   UNL     1       1.990   7.939  19.010  0.00  0.00    +0.000 A 
ATOM     23  C   UNL     1       1.545   9.203  18.613  0.00  0.00    +0.000 A 
BRANCH  18  25
ATOM     24  C   UNL     1       1.269  12.237  18.870  0.00  0.00    +0.000 C 
ATOM     25  O   UNL     1       0.309  11.240  19.204  0.00  0.00    +0.000 OA
ENDBRANCH  18  25
ENDBRANCH  17  21
ENDBRANCH   1  17
TORSDOF 4
ENDMDL
MODEL 6
REMARK VINA RESULT:      -7.0      2.153      4.402
REMARK  Name = 
REMARK  5 active torsions:
REMARK  status: ('A' for Active; 'I' for Inactive)
REMARK    1  A    between atoms: C_1  and  O_2
REMARK    2  A    between atoms: O_2  and  C_3
REMARK    3  A    between atoms: C_6  and  C_7
REMARK    4  A    between atoms: C_7  and  C_8
REMARK    5  A    between atoms: C_14  and  N_15
REMARK                            x       y       z     vdW  Elec       q    Type
REMARK                         _______ _______ _______ _____ _____    ______ ____
ROOT
ATOM      1  C   UNL     1       2.286   5.193  19.530  0.00  0.00    +0.000 C 
ATOM      2  O   UNL     1       1.311   4.570  19.110  0.00  0.00    +0.000 OA
ATOM      3  N   UNL     1       3.554   4.974  19.053  0.00  0.00    +0.000 N 
ATOM      4  C   UNL     1       3.924   4.177  17.889  0.00  0.00    +0.000 C 
ATOM      5  C   UNL     1       5.239   4.998  17.831  0.00  0.00    +0.000 C 
ATOM      6  C   UNL     1       5.585   5.749  16.554  0.00  0.00    +0.000 C 
ATOM      7  C   UNL     1       7.016   5.337  16.202  0.00  0.00    +0.000 C 
ATOM      8  C   UNL     1       7.528   4.503  17.383  0.00  0.00    +0.000 C 
ATOM      9  O   UNL     1       6.421   4.275  18.252  0.00  0.00    +0.000 OA
ATOM     10  C   UNL     1       4.612   5.951  18.867  0.00  0.00    +0.000 C 
ENDROOT
BRANCH   7  11
ATOM     11  N   UNL     1       7.177   4.710  14.874  0.00  0.00    +0.000 NA
ATOM     12  C   UNL     1       5.975   4.004  14.407  0.00  0.00    +0.000 C 
ATOM     13  C   UNL     1       6.233   3.292  13.080  0.00  0.00    +0.000 C 
ATOM     14  C   UNL     1       6.737   4.269  12.021  0.00  0.00    +0.000 C 
ATOM     15  C   UNL     1       7.950   5.030  12.541  0.00  0.00    +0.000 C 
ATOM     16  C   UNL     1       7.647   5.694  13.884  0.00  0.00    +0.000 C 
ENDBRANCH   7  11
BRANCH   1  17
ATOM     17  C   UNL     1       2.181   6.223  20.647  0.00  0.00    +0.000 C 
BRANCH  17  21
ATOM     18  C   UNL     1       0.778  10.111  19.359  0.00  0.00    +0.000 A 
ATOM     19  C   UNL     1       1.527   9.306  18.495  0.00  0.00    +0.000 A 
ATOM     20  C   UNL     1       1.980   8.053  18.904  0.00  0.00    +0.000 A 
ATOM     21  C   UNL     1       1.719   7.590  20.200  0.00  0.00    +0.000 A 
ATOM     22  C   UNL     1       0.978   8.404  21.066  0.00  0.00    +0.000 A 
ATOM     23  C   UNL     1       0.511   9.654  20.649  0.00  0.00    +0.000 A 
BRANCH  18  25
ATOM     24  C   UNL     1      -0.851  11.824  19.327  0.00  0.00    +0.000 C 
ATOM     25  O   UNL     1       0.395  11.323  18.854  0.00  0.00    +0.000 OA
ENDBRANCH  18  25
ENDBRANCH  17  21
ENDBRANCH   1  17
TORSDOF 4
ENDMDL
MODEL 7
REMARK VINA RESULT:      -6.9      1.897      2.410
REMARK  Name = 
REMARK  5 active torsions:
REMARK  status: ('A' for Active; 'I' for Inactive)
REMARK    1  A    between atoms: C_1  and  O_2
REMARK    2  A    between atoms: O_2  and  C_3
REMARK    3  A    between atoms: C_6  and  C_7
REMARK    4  A    between atoms: C_7  and  C_8
REMARK    5  A    between atoms: C_14  and  N_15
REMARK                            x       y       z     vdW  Elec       q    Type
REMARK                         _______ _______ _______ _____ _____    ______ ____
ROOT
ATOM      1  C   UNL     1       1.302   8.926  20.209  0.00  0.00    +0.000 C 
ATOM      2  O   UNL     1       1.625   9.959  19.623  0.00  0.00    +0.000 OA
ATOM      3  N   UNL     1       1.589   7.681  19.706  0.00  0.00    +0.000 N 
ATOM      4  C   UNL     1       2.461   7.374  18.578  0.00  0.00    +0.000 C 
ATOM      5  C   UNL     1       2.619   5.952  19.177  0.00  0.00    +0.000 C 
ATOM      6  C   UNL     1       4.015   5.436  19.495  0.00  0.00    +0.000 C 
ATOM      7  C   UNL     1       4.116   4.065  18.823  0.00  0.00    +0.000 C 
ATOM      8  C   UNL     1       2.715   3.741  18.290  0.00  0.00    +0.000 C 
ATOM      9  O   UNL     1       1.917   4.911  18.454  0.00  0.00    +0.000 OA
ATOM     10  C   UNL     1       1.935   6.483  20.451  0.00  0.00    +0.000 C 
ENDROOT
BRANCH   7  11
ATOM     11  N   UNL     1       5.209   3.931  17.838  0.00  0.00    +0.000 NA
ATOM     12  C   UNL     1       4.773   4.123  16.447  0.00  0.00    +0.000 C 
ATOM     13  C   UNL     1       5.921   3.872  15.469  0.00  0.00    +0.000 C 
ATOM     14  C   UNL     1       7.120   4.760  15.791  0.00  0.00    +0.000 C 
ATOM     15  C   UNL     1       7.525   4.588  17.250  0.00  0.00    +0.000 C 
ATOM     16  C   UNL     1       6.334   4.817  18.180  0.00  0.00    +0.000 C 
ENDBRANCH   7  11
BRANCH   1  17
ATOM     17  C   UNL     1       0.514   8.934  21.512  0.00  0.00    +0.000 C 
BRANCH  17  21
ATOM     18  C   UNL     1      -2.034  12.400  21.998  0.00  0.00    +0.000 A 
ATOM     19  C   UNL     1      -1.628  11.658  23.112  0.00  0.00    +0.000 A 
ATOM     20  C   UNL     1      -0.806  10.542  22.961  0.00  0.00    +0.000 A 
ATOM     21  C   UNL     1      -0.398  10.126  21.687  0.00  0.00    +0.000 A 
ATOM     22  C   UNL     1      -0.816  10.866  20.574  0.00  0.00    +0.000 A 
ATOM     23  C   UNL     1      -1.628  11.993  20.728  0.00  0.00    +0.000 A 
BRANCH  18  25
ATOM     24  C   UNL     1      -3.143  13.691  23.639  0.00  0.00    +0.000 C 
ATOM     25  O   UNL     1      -2.846  13.469  22.265  0.00  0.00    +0.000 OA
ENDBRANCH  18  25
ENDBRANCH  17  21
ENDBRANCH   1  17
TORSDOF 4
ENDMDL
MODEL 8
REMARK VINA RESULT:      -6.8      1.877      2.653
REMARK  Name = 
REMARK  5 active torsions:
REMARK  status: ('A' for Active; 'I' for Inactive)
REMARK    1  A    between atoms: C_1  and  O_2
REMARK    2  A    between atoms: O_2  and  C_3
REMARK    3  A    between atoms: C_6  and  C_7
REMARK    4  A    between atoms: C_7  and  C_8
REMARK    5  A    between atoms: C_14  and  N_15
REMARK                            x       y       z     vdW  Elec       q    Type
REMARK                         _______ _______ _______ _____ _____    ______ ____
ROOT
ATOM      1  C   UNL     1       0.699   9.853  19.687  0.00  0.00    +0.000 C 
ATOM      2  O   UNL     1       0.284   9.850  20.846  0.00  0.00    +0.000 OA
ATOM      3  N   UNL     1       1.601   8.923  19.233  0.00  0.00    +0.000 N 
ATOM      4  C   UNL     1       2.035   7.715  19.925  0.00  0.00    +0.000 C 
ATOM      5  C   UNL     1       2.426   7.143  18.537  0.00  0.00    +0.000 C 
ATOM      6  C   UNL     1       1.818   5.824  18.084  0.00  0.00    +0.000 C 
ATOM      7  C   UNL     1       2.995   4.949  17.649  0.00  0.00    +0.000 C 
ATOM      8  C   UNL     1       4.238   5.847  17.688  0.00  0.00    +0.000 C 
ATOM      9  O   UNL     1       3.852   7.080  18.290  0.00  0.00    +0.000 OA
ATOM     10  C   UNL     1       1.673   8.331  17.908  0.00  0.00    +0.000 C 
ENDROOT
BRANCH   7  11
ATOM     11  N   UNL     1       3.124   3.669  18.376  0.00  0.00    +0.000 NA
ATOM     12  C   UNL     1       3.804   2.619  17.603  0.00  0.00    +0.000 C 
ATOM     13  C   UNL     1       3.816   1.294  18.364  0.00  0.00    +0.000 C 
ATOM     14  C   UNL     1       4.456   1.457  19.741  0.00  0.00    +0.000 C 
ATOM     15  C   UNL     1       3.774   2.583  20.507  0.00  0.00    +0.000 C 
ATOM     16  C   UNL     1       3.761   3.874  19.689  0.00  0.00    +0.000 C 
ENDBRANCH   7  11
BRANCH   1  17
ATOM     17  C   UNL     1       0.291  10.912  18.672  0.00  0.00    +0.000 C 
BRANCH  17  21
ATOM     18  C   UNL     1      -3.967  11.020  17.900  0.00  0.00    +0.000 A 
ATOM     19  C   UNL     1      -3.151  10.094  17.243  0.00  0.00    +0.000 A 
ATOM     20  C   UNL     1      -1.780  10.054  17.488  0.00  0.00    +0.000 A 
ATOM     21  C   UNL     1      -1.190  10.962  18.377  0.00  0.00    +0.000 A 
ATOM     22  C   UNL     1      -2.009  11.895  19.025  0.00  0.00    +0.000 A 
ATOM     23  C   UNL     1      -3.386  11.924  18.789  0.00  0.00    +0.000 A 
BRANCH  18  25
ATOM     24  C   UNL     1      -5.906  12.227  17.286  0.00  0.00    +0.000 C 
ATOM     25  O   UNL     1      -5.295  10.973  17.574  0.00  0.00    +0.000 OA
ENDBRANCH  18  25
ENDBRANCH  17  21
ENDBRANCH   1  17
TORSDOF 4
ENDMDL
MODEL 9
REMARK VINA RESULT:      -6.8      5.871      8.342
REMARK  Name = 
REMARK  5 active torsions:
REMARK  status: ('A' for Active; 'I' for Inactive)
REMARK    1  A    between atoms: C_1  and  O_2
REMARK    2  A    between atoms: O_2  and  C_3
REMARK    3  A    between atoms: C_6  and  C_7
REMARK    4  A    between atoms: C_7  and  C_8
REMARK    5  A    between atoms: C_14  and  N_15
REMARK                            x       y       z     vdW  Elec       q    Type
REMARK                         _______ _______ _______ _____ _____    ______ ____
ROOT
ATOM      1  C   UNL     1       8.119   7.853  18.288  0.00  0.00    +0.000 C 
ATOM      2  O   UNL     1       8.799   7.651  19.294  0.00  0.00    +0.000 OA
ATOM      3  N   UNL     1       7.210   6.934  17.826  0.00  0.00    +0.000 N 
ATOM      4  C   UNL     1       6.754   5.732  18.515  0.00  0.00    +0.000 C 
ATOM      5  C   UNL     1       5.484   5.788  17.626  0.00  0.00    +0.000 C 
ATOM      6  C   UNL     1       4.118   5.843  18.294  0.00  0.00    +0.000 C 
ATOM      7  C   UNL     1       3.291   4.730  17.646  0.00  0.00    +0.000 C 
ATOM      8  C   UNL     1       4.138   4.180  16.491  0.00  0.00    +0.000 C 
ATOM      9  O   UNL     1       5.428   4.779  16.588  0.00  0.00    +0.000 OA
ATOM     10  C   UNL     1       5.930   7.197  17.190  0.00  0.00    +0.000 C 
ENDROOT
BRANCH   7  11
ATOM     11  N   UNL     1       2.770   3.713  18.582  0.00  0.00    +0.000 NA
ATOM     12  C   UNL     1       3.247   3.884  19.962  0.00  0.00    +0.000 C 
ATOM     13  C   UNL     1       2.759   2.747  20.860  0.00  0.00    +0.000 C 
ATOM     14  C   UNL     1       1.237   2.630  20.819  0.00  0.00    +0.000 C 
ATOM     15  C   UNL     1       0.757   2.507  19.379  0.00  0.00    +0.000 C 
ATOM     16  C   UNL     1       1.300   3.648  18.520  0.00  0.00    +0.000 C 
ENDBRANCH   7  11
BRANCH   1  17
ATOM     17  C   UNL     1       8.260   9.110  17.441  0.00  0.00    +0.000 C 
BRANCH  17  21
ATOM     18  C   UNL     1       9.759  12.589  19.537  0.00  0.00    +0.000 A 
ATOM     19  C   UNL     1       9.968  11.306  20.053  0.00  0.00    +0.000 A 
ATOM     20  C   UNL     1       9.489  10.182  19.382  0.00  0.00    +0.000 A 
ATOM     21  C   UNL     1       8.762  10.321  18.193  0.00  0.00    +0.000 A 
ATOM     22  C   UNL     1       8.544  11.608  17.685  0.00  0.00    +0.000 A 
ATOM     23  C   UNL     1       9.039  12.733  18.351  0.00  0.00    +0.000 A 
BRANCH  18  25
ATOM     24  C   UNL     1       9.608  13.863  21.523  0.00  0.00    +0.000 C 
ATOM     25  O   UNL     1      10.266  13.617  20.285  0.00  0.00    +0.000 OA
ENDBRANCH  18  25
ENDBRANCH  17  21
ENDBRANCH   1  17
TORSDOF 4
ENDMDL
