MODEL 1
REMARK VINA RESULT:      -8.9      0.000      0.000
REMARK  Name = 
REMARK  8 active torsions:
REMARK  status: ('A' for Active; 'I' for Inactive)
REMARK    1  A    between atoms: C_1  and  C_2
REMARK    2  A    between atoms: C_2  and  C_3
REMARK    3  A    between atoms: C_2  and  C_4
REMARK    4  A    between atoms: N_15  and  C_16
REMARK    5  A    between atoms: C_16  and  C_17
REMARK    6  A    between atoms: C_16  and  C_18
REMARK    7  A    between atoms: C_21  and  C_22
REMARK    8  A    between atoms: C_26  and  C_27
REMARK                            x       y       z     vdW  Elec       q    Type
REMARK                         _______ _______ _______ _____ _____    ______ ____
ROOT
ATOM      1  C   UNL     1       2.982   6.368  18.978  0.00  0.00    +0.000 C 
ATOM      2  C   UNL     1       2.114   5.208  19.487  0.00  0.00    +0.000 C 
ENDROOT
BRANCH   1  14
ATOM      3  C   UNL     1      -0.560  11.972  18.958  0.00  0.00    +0.000 C 
ATOM      4  C   UNL     1      -0.767  13.472  19.171  0.00  0.00    +0.000 C 
ATOM      5  O   UNL     1       0.381  13.931  19.889  0.00  0.00    +0.000 OA
ATOM      6  C   UNL     1       0.975  12.845  20.471  0.00  0.00    +0.000 C 
ATOM      7  O   UNL     1       1.858  12.944  21.309  0.00  0.00    +0.000 OA
ATOM      8  N   UNL     1       0.437  11.693  19.951  0.00  0.00    +0.000 N 
ATOM      9  C   UNL     1       0.917  10.416  20.265  0.00  0.00    +0.000 A 
ATOM     10  C   UNL     1       0.802  10.014  21.576  0.00  0.00    +0.000 A 
ATOM     11  C   UNL     1       1.146   8.717  21.836  0.00  0.00    +0.000 A 
ATOM     12  N   UNL     1       1.624   7.884  20.902  0.00  0.00    +0.000 NA
ATOM     13  C   UNL     1       1.713   8.352  19.652  0.00  0.00    +0.000 A 
ATOM     14  N   UNL     1       2.132   7.518  18.629  0.00  0.00    +0.000 N 
ATOM     15  N   UNL     1       1.339   9.591  19.285  0.00  0.00    +0.000 NA
ATOM     16  H   UNL     1       2.483   8.122  17.901  0.00  0.00    +0.000 HD
BRANCH   3  18
ATOM     17  C   UNL     1      -3.125  12.031  19.305  0.00  0.00    +0.000 C 
ATOM     18  C   UNL     1      -1.874  11.154  19.112  0.00  0.00    +0.000 C 
ATOM     19  C   UNL     1      -2.129  10.224  17.919  0.00  0.00    +0.000 C 
ENDBRANCH   3  18
ENDBRANCH   1  14
BRANCH   1  20
ATOM     20  C   UNL     1       3.798   5.891  17.770  0.00  0.00    +0.000 A 
ATOM     21  C   UNL     1       3.903   4.523  17.470  0.00  0.00    +0.000 A 
ATOM     22  C   UNL     1       4.630   4.124  16.346  0.00  0.00    +0.000 A 
ATOM     23  C   UNL     1       5.259   5.060  15.519  0.00  0.00    +0.000 A 
ATOM     24  C   UNL     1       5.114   6.397  15.917  0.00  0.00    +0.000 A 
ATOM     25  N   UNL     1       4.416   6.823  17.006  0.00  0.00    +0.000 NA
BRANCH  23  26
ATOM     26  C   UNL     1       6.024   4.657  14.326  0.00  0.00    +0.000 A 
ATOM     27  C   UNL     1       7.211   5.304  13.964  0.00  0.00    +0.000 A 
ATOM     28  C   UNL     1       7.888   4.902  12.824  0.00  0.00    +0.000 A 
ATOM     29  N   UNL     1       7.474   3.905  12.020  0.00  0.00    +0.000 NA
ATOM     30  C   UNL     1       6.324   3.258  12.355  0.00  0.00    +0.000 A 
ATOM     31  C   UNL     1       5.590   3.609  13.493  0.00  0.00    +0.000 A 
BRANCH  30  32
ATOM     32  C   UNL     1       5.810   2.130  11.468  0.00  0.00    +0.000 C 
ATOM     33  F   UNL     1       4.564   2.337  10.956  0.00  0.00    +0.000 F 
ATOM     34  F   UNL     1       6.619   1.900  10.392  0.00  0.00    +0.000 F 
ATOM     35  F   UNL     1       5.745   0.936  12.130  0.00  0.00    +0.000 F 
ENDBRANCH  30  32
ENDBRANCH  23  26
ENDBRANCH   1  20
TORSDOF 5
ENDMDL
MODEL 2
REMARK VINA RESULT:      -8.9      3.569      5.718
REMARK  Name = 
REMARK  8 active torsions:
REMARK  status: ('A' for Active; 'I' for Inactive)
REMARK    1  A    between atoms: C_1  and  C_2
REMARK    2  A    between atoms: C_2  and  C_3
REMARK    3  A    between atoms: C_2  and  C_4
REMARK    4  A    between atoms: N_15  and  C_16
REMARK    5  A    between atoms: C_16  and  C_17
REMARK    6  A    between atoms: C_16  and  C_18
REMARK    7  A    between atoms: C_21  and  C_22
REMARK    8  A    between atoms: C_26  and  C_27
REMARK                            x       y       z     vdW  Elec       q    Type
REMARK                         _______ _______ _______ _____ _____    ______ ____
ROOT
ATOM      1  C   UNL     1       0.191  10.376  18.675  0.00  0.00    +0.000 C 
ATOM      2  C   UNL     1      -0.932  10.047  17.681  0.00  0.00    +0.000 C 
ENDROOT
BRANCH   1  14
ATOM      3  C   UNL     1       3.568  16.076  18.454  0.00  0.00    +0.000 C 
ATOM      4  C   UNL     1       4.770  16.977  18.737  0.00  0.00    +0.000 C 
ATOM      5  O   UNL     1       5.584  16.266  19.673  0.00  0.00    +0.000 OA
ATOM      6  C   UNL     1       4.805  15.312  20.269  0.00  0.00    +0.000 C 
ATOM      7  O   UNL     1       5.166  14.683  21.251  0.00  0.00    +0.000 OA
ATOM      8  N   UNL     1       3.622  15.190  19.581  0.00  0.00    +0.000 N 
ATOM      9  C   UNL     1       2.663  14.215  19.879  0.00  0.00    +0.000 A 
ATOM     10  C   UNL     1       2.068  14.288  21.118  0.00  0.00    +0.000 A 
ATOM     11  C   UNL     1       1.037  13.417  21.338  0.00  0.00    +0.000 A 
ATOM     12  N   UNL     1       0.649  12.500  20.442  0.00  0.00    +0.000 NA
ATOM     13  C   UNL     1       1.281  12.488  19.263  0.00  0.00    +0.000 A 
ATOM     14  N   UNL     1       0.878  11.612  18.269  0.00  0.00    +0.000 N 
ATOM     15  N   UNL     1       2.263  13.346  18.929  0.00  0.00    +0.000 NA
ATOM     16  H   UNL     1       1.673  11.496  17.659  0.00  0.00    +0.000 HD
BRANCH   3  18
ATOM     17  C   UNL     1       1.989  17.854  19.478  0.00  0.00    +0.000 C 
ATOM     18  C   UNL     1       2.237  16.870  18.319  0.00  0.00    +0.000 C 
ATOM     19  C   UNL     1       2.155  17.659  17.006  0.00  0.00    +0.000 C 
ENDBRANCH   3  18
ENDBRANCH   1  14
BRANCH   1  20
ATOM     20  C   UNL     1       1.165   9.192  18.739  0.00  0.00    +0.000 A 
ATOM     21  C   UNL     1       1.291   8.427  19.910  0.00  0.00    +0.000 A 
ATOM     22  C   UNL     1       2.166   7.339  19.925  0.00  0.00    +0.000 A 
ATOM     23  C   UNL     1       2.922   7.001  18.798  0.00  0.00    +0.000 A 
ATOM     24  C   UNL     1       2.742   7.839  17.688  0.00  0.00    +0.000 A 
ATOM     25  N   UNL     1       1.901   8.909  17.638  0.00  0.00    +0.000 NA
BRANCH  23  26
ATOM     26  C   UNL     1       3.845   5.852  18.794  0.00  0.00    +0.000 A 
ATOM     27  C   UNL     1       3.547   4.672  19.485  0.00  0.00    +0.000 A 
ATOM     28  C   UNL     1       4.451   3.623  19.468  0.00  0.00    +0.000 A 
ATOM     29  N   UNL     1       5.627   3.659  18.813  0.00  0.00    +0.000 NA
ATOM     30  C   UNL     1       5.936   4.795  18.130  0.00  0.00    +0.000 A 
ATOM     31  C   UNL     1       5.069   5.893  18.101  0.00  0.00    +0.000 A 
BRANCH  30  32
ATOM     32  C   UNL     1       7.261   4.886  17.382  0.00  0.00    +0.000 C 
ATOM     33  F   UNL     1       8.317   4.322  18.034  0.00  0.00    +0.000 F 
ATOM     34  F   UNL     1       7.215   4.281  16.159  0.00  0.00    +0.000 F 
ATOM     35  F   UNL     1       7.629   6.178  17.130  0.00  0.00    +0.000 F 
ENDBRANCH  30  32
ENDBRANCH  23  26
ENDBRANCH   1  20
TORSDOF 5
ENDMDL
MODEL 3
REMARK VINA RESULT:      -8.8      4.128      5.968
REMARK  Name = 
REMARK  8 active torsions:
REMARK  status: ('A' for Active; 'I' for Inactive)
REMARK    1  A    between atoms: C_1  and  C_2
REMARK    2  A    between atoms: C_2  and  C_3
REMARK    3  A    between atoms: C_2  and  C_4
REMARK    4  A    between atoms: N_15  and  C_16
REMARK    5  A    between atoms: C_16  and  C_17
REMARK    6  A    between atoms: C_16  and  C_18
REMARK    7  A    between atoms: C_21  and  C_22
REMARK    8  A    between atoms: C_26  and  C_27
REMARK                            x       y       z     vdW  Elec       q    Type
REMARK                         _______ _______ _______ _____ _____    ______ ____
ROOT
ATOM      1  C   UNL     1       0.204  10.471  19.075  0.00  0.00    +0.000 C 
ATOM      2  C   UNL     1      -1.058  10.276  18.222  0.00  0.00    +0.000 C 
ENDROOT
BRANCH   1  14
ATOM      3  C   UNL     1       3.797  16.012  18.495  0.00  0.00    +0.000 C 
ATOM      4  C   UNL     1       5.007  16.905  18.771  0.00  0.00    +0.000 C 
ATOM      5  O   UNL     1       5.723  16.280  19.840  0.00  0.00    +0.000 OA
ATOM      6  C   UNL     1       4.867  15.421  20.474  0.00  0.00    +0.000 C 
ATOM      7  O   UNL     1       5.130  14.895  21.544  0.00  0.00    +0.000 OA
ATOM      8  N   UNL     1       3.735  15.256  19.713  0.00  0.00    +0.000 N 
ATOM      9  C   UNL     1       2.720  14.348  20.040  0.00  0.00    +0.000 A 
ATOM     10  C   UNL     1       2.038  14.576  21.214  0.00  0.00    +0.000 A 
ATOM     11  C   UNL     1       0.963  13.765  21.447  0.00  0.00    +0.000 A 
ATOM     12  N   UNL     1       0.608  12.765  20.629  0.00  0.00    +0.000 NA
ATOM     13  C   UNL     1       1.325  12.604  19.511  0.00  0.00    +0.000 A 
ATOM     14  N   UNL     1       0.965  11.634  18.591  0.00  0.00    +0.000 N 
ATOM     15  N   UNL     1       2.360  13.391  19.163  0.00  0.00    +0.000 NA
ATOM     16  H   UNL     1       1.798  11.428  18.060  0.00  0.00    +0.000 HD
BRANCH   3  18
ATOM     17  C   UNL     1       2.188  17.908  19.216  0.00  0.00    +0.000 C 
ATOM     18  C   UNL     1       2.510  16.824  18.171  0.00  0.00    +0.000 C 
ATOM     19  C   UNL     1       2.574  17.500  16.796  0.00  0.00    +0.000 C 
ENDBRANCH   3  18
ENDBRANCH   1  14
BRANCH   1  20
ATOM     20  C   UNL     1       1.048   9.191  19.019  0.00  0.00    +0.000 A 
ATOM     21  C   UNL     1       1.652   8.780  17.819  0.00  0.00    +0.000 A 
ATOM     22  C   UNL     1       2.436   7.625  17.810  0.00  0.00    +0.000 A 
ATOM     23  C   UNL     1       2.626   6.867  18.970  0.00  0.00    +0.000 A 
ATOM     24  C   UNL     1       1.964   7.348  20.108  0.00  0.00    +0.000 A 
ATOM     25  N   UNL     1       1.189   8.467  20.155  0.00  0.00    +0.000 NA
BRANCH  23  26
ATOM     26  C   UNL     1       3.457   5.650  18.979  0.00  0.00    +0.000 A 
ATOM     27  C   UNL     1       4.838   5.708  19.197  0.00  0.00    +0.000 A 
ATOM     28  C   UNL     1       5.582   4.539  19.180  0.00  0.00    +0.000 A 
ATOM     29  N   UNL     1       5.054   3.319  18.966  0.00  0.00    +0.000 NA
ATOM     30  C   UNL     1       3.712   3.238  18.756  0.00  0.00    +0.000 A 
ATOM     31  C   UNL     1       2.898   4.376  18.762  0.00  0.00    +0.000 A 
BRANCH  30  32
ATOM     32  C   UNL     1       3.072   1.879  18.498  0.00  0.00    +0.000 C 
ATOM     33  F   UNL     1       3.938   0.828  18.552  0.00  0.00    +0.000 F 
ATOM     34  F   UNL     1       2.082   1.589  19.393  0.00  0.00    +0.000 F 
ATOM     35  F   UNL     1       2.479   1.808  17.269  0.00  0.00    +0.000 F 
ENDBRANCH  30  32
ENDBRANCH  23  26
ENDBRANCH   1  20
TORSDOF 5
ENDMDL
MODEL 4
REMARK VINA RESULT:      -8.8      3.962      5.880
REMARK  Name = 
REMARK  8 active torsions:
REMARK  status: ('A' for Active; 'I' for Inactive)
REMARK    1  A    between atoms: C_1  and  C_2
REMARK    2  A    between atoms: C_2  and  C_3
REMARK    3  A    between atoms: C_2  and  C_4
REMARK    4  A    between atoms: N_15  and  C_16
REMARK    5  A    between atoms: C_16  and  C_17
REMARK    6  A    between atoms: C_16  and  C_18
REMARK    7  A    between atoms: C_21  and  C_22
REMARK    8  A    between atoms: C_26  and  C_27
REMARK                            x       y       z     vdW  Elec       q    Type
REMARK                         _______ _______ _______ _____ _____    ______ ____
ROOT
ATOM      1  C   UNL     1       0.112  10.395  19.099  0.00  0.00    +0.000 C 
ATOM      2  C   UNL     1      -0.962  10.235  18.014  0.00  0.00    +0.000 C 
ENDROOT
BRANCH   1  14
ATOM      3  C   UNL     1       3.018  16.299  19.900  0.00  0.00    +0.000 C 
ATOM      4  C   UNL     1       3.995  17.277  20.553  0.00  0.00    +0.000 C 
ATOM      5  O   UNL     1       4.482  16.622  21.728  0.00  0.00    +0.000 OA
ATOM      6  C   UNL     1       3.604  15.622  22.047  0.00  0.00    +0.000 C 
ATOM      7  O   UNL     1       3.644  15.020  23.108  0.00  0.00    +0.000 OA
ATOM      8  N   UNL     1       2.736  15.422  21.000  0.00  0.00    +0.000 N 
ATOM      9  C   UNL     1       1.792  14.389  20.977  0.00  0.00    +0.000 A 
ATOM     10  C   UNL     1       0.807  14.427  21.937  0.00  0.00    +0.000 A 
ATOM     11  C   UNL     1      -0.184  13.493  21.814  0.00  0.00    +0.000 A 
ATOM     12  N   UNL     1      -0.187  12.550  20.863  0.00  0.00    +0.000 NA
ATOM     13  C   UNL     1       0.809  12.575  19.971  0.00  0.00    +0.000 A 
ATOM     14  N   UNL     1       0.822  11.672  18.921  0.00  0.00    +0.000 N 
ATOM     15  N   UNL     1       1.793  13.493  19.970  0.00  0.00    +0.000 NA
ATOM     16  H   UNL     1       1.783  11.605  18.621  0.00  0.00    +0.000 HD
BRANCH   3  18
ATOM     17  C   UNL     1       1.419  18.333  19.999  0.00  0.00    +0.000 C 
ATOM     18  C   UNL     1       1.769  17.006  19.300  0.00  0.00    +0.000 C 
ATOM     19  C   UNL     1       1.919  17.290  17.800  0.00  0.00    +0.000 C 
ENDBRANCH   3  18
ENDBRANCH   1  14
BRANCH   1  20
ATOM     20  C   UNL     1       1.077   9.205  19.026  0.00  0.00    +0.000 A 
ATOM     21  C   UNL     1       1.774   8.916  17.842  0.00  0.00    +0.000 A 
ATOM     22  C   UNL     1       2.667   7.843  17.819  0.00  0.00    +0.000 A 
ATOM     23  C   UNL     1       2.875   7.047  18.950  0.00  0.00    +0.000 A 
ATOM     24  C   UNL     1       2.116   7.403  20.074  0.00  0.00    +0.000 A 
ATOM     25  N   UNL     1       1.235   8.440  20.133  0.00  0.00    +0.000 NA
BRANCH  23  26
ATOM     26  C   UNL     1       3.819   5.915  18.945  0.00  0.00    +0.000 A 
ATOM     27  C   UNL     1       3.420   4.628  19.322  0.00  0.00    +0.000 A 
ATOM     28  C   UNL     1       4.346   3.598  19.317  0.00  0.00    +0.000 A 
ATOM     29  N   UNL     1       5.636   3.752  18.964  0.00  0.00    +0.000 NA
ATOM     30  C   UNL     1       6.045   4.994  18.589  0.00  0.00    +0.000 A 
ATOM     31  C   UNL     1       5.165   6.081  18.567  0.00  0.00    +0.000 A 
BRANCH  30  32
ATOM     32  C   UNL     1       7.499   5.219  18.191  0.00  0.00    +0.000 C 
ATOM     33  F   UNL     1       8.116   4.124  17.663  0.00  0.00    +0.000 F 
ATOM     34  F   UNL     1       7.640   6.208  17.261  0.00  0.00    +0.000 F 
ATOM     35  F   UNL     1       8.274   5.606  19.248  0.00  0.00    +0.000 F 
ENDBRANCH  30  32
ENDBRANCH  23  26
ENDBRANCH   1  20
TORSDOF 5
ENDMDL
MODEL 5
REMARK VINA RESULT:      -8.8      3.019      5.106
REMARK  Name = 
REMARK  8 active torsions:
REMARK  status: ('A' for Active; 'I' for Inactive)
REMARK    1  A    between atoms: C_1  and  C_2
REMARK    2  A    between atoms: C_2  and  C_3
REMARK    3  A    between atoms: C_2  and  C_4
REMARK    4  A    between atoms: N_15  and  C_16
REMARK    5  A    between atoms: C_16  and  C_17
REMARK    6  A    between atoms: C_16  and  C_18
REMARK    7  A    between atoms: C_21  and  C_22
REMARK    8  A    between atoms: C_26  and  C_27
REMARK                            x       y       z     vdW  Elec       q    Type
REMARK                         _______ _______ _______ _____ _____    ______ ____
ROOT
ATOM      1  C   UNL     1       0.974   9.603  21.349  0.00  0.00    +0.000 C 
ATOM      2  C   UNL     1       1.122   9.259  22.838  0.00  0.00    +0.000 C 
ENDROOT
BRANCH   1  14
ATOM      3  C   UNL     1      -4.705  11.678  18.630  0.00  0.00    +0.000 C 
ATOM      4  C   UNL     1      -5.724  11.806  17.498  0.00  0.00    +0.000 C 
ATOM      5  O   UNL     1      -5.068  11.331  16.320  0.00  0.00    +0.000 OA
ATOM      6  C   UNL     1      -3.719  11.366  16.546  0.00  0.00    +0.000 C 
ATOM      7  O   UNL     1      -2.895  11.211  15.659  0.00  0.00    +0.000 OA
ATOM      8  N   UNL     1      -3.483  11.576  17.884  0.00  0.00    +0.000 N 
ATOM      9  C   UNL     1      -2.202  11.549  18.447  0.00  0.00    +0.000 A 
ATOM     10  C   UNL     1      -1.317  12.514  18.022  0.00  0.00    +0.000 A 
ATOM     11  C   UNL     1      -0.120  12.560  18.682  0.00  0.00    +0.000 A 
ATOM     12  N   UNL     1       0.217  11.693  19.646  0.00  0.00    +0.000 NA
ATOM     13  C   UNL     1      -0.695  10.781  19.998  0.00  0.00    +0.000 A 
ATOM     14  N   UNL     1      -0.432   9.904  21.037  0.00  0.00    +0.000 N 
ATOM     15  N   UNL     1      -1.922  10.697  19.453  0.00  0.00    +0.000 NA
ATOM     16  H   UNL     1      -1.033   9.107  20.890  0.00  0.00    +0.000 HD
BRANCH   3  18
ATOM     17  C   UNL     1      -5.986  13.779  19.434  0.00  0.00    +0.000 C 
ATOM     18  C   UNL     1      -4.756  12.872  19.626  0.00  0.00    +0.000 C 
ATOM     19  C   UNL     1      -4.732  12.415  21.090  0.00  0.00    +0.000 C 
ENDBRANCH   3  18
ENDBRANCH   1  14
BRANCH   1  20
ATOM     20  C   UNL     1       1.491   8.426  20.511  0.00  0.00    +0.000 A 
ATOM     21  C   UNL     1       1.968   8.628  19.206  0.00  0.00    +0.000 A 
ATOM     22  C   UNL     1       2.458   7.540  18.481  0.00  0.00    +0.000 A 
ATOM     23  C   UNL     1       2.476   6.253  19.028  0.00  0.00    +0.000 A 
ATOM     24  C   UNL     1       1.958   6.152  20.327  0.00  0.00    +0.000 A 
ATOM     25  N   UNL     1       1.469   7.189  21.062  0.00  0.00    +0.000 NA
BRANCH  23  26
ATOM     26  C   UNL     1       2.996   5.095  18.279  0.00  0.00    +0.000 A 
ATOM     27  C   UNL     1       2.367   3.846  18.333  0.00  0.00    +0.000 A 
ATOM     28  C   UNL     1       2.900   2.781  17.626  0.00  0.00    +0.000 A 
ATOM     29  N   UNL     1       4.011   2.866  16.869  0.00  0.00    +0.000 NA
ATOM     30  C   UNL     1       4.637   4.072  16.799  0.00  0.00    +0.000 A 
ATOM     31  C   UNL     1       4.154   5.192  17.484  0.00  0.00    +0.000 A 
BRANCH  30  32
ATOM     32  C   UNL     1       5.905   4.213  15.964  0.00  0.00    +0.000 C 
ATOM     33  F   UNL     1       5.965   5.352  15.217  0.00  0.00    +0.000 F 
ATOM     34  F   UNL     1       7.037   4.210  16.727  0.00  0.00    +0.000 F 
ATOM     35  F   UNL     1       6.063   3.183  15.080  0.00  0.00    +0.000 F 
ENDBRANCH  30  32
ENDBRANCH  23  26
ENDBRANCH   1  20
TORSDOF 5
ENDMDL
MODEL 6
REMARK VINA RESULT:      -8.7      3.010      5.101
REMARK  Name = 
REMARK  8 active torsions:
REMARK  status: ('A' for Active; 'I' for Inactive)
REMARK    1  A    between atoms: C_1  and  C_2
REMARK    2  A    between atoms: C_2  and  C_3
REMARK    3  A    between atoms: C_2  and  C_4
REMARK    4  A    between atoms: N_15  and  C_16
REMARK    5  A    between atoms: C_16  and  C_17
REMARK    6  A    between atoms: C_16  and  C_18
REMARK    7  A    between atoms: C_21  and  C_22
REMARK    8  A    between atoms: C_26  and  C_27
REMARK                            x       y       z     vdW  Elec       q    Type
REMARK                         _______ _______ _______ _____ _____    ______ ____
ROOT
ATOM      1  C   UNL     1       0.940   9.633  21.430  0.00  0.00    +0.000 C 
ATOM      2  C   UNL     1       1.067   9.331  22.931  0.00  0.00    +0.000 C 
ENDROOT
BRANCH   1  14
ATOM      3  C   UNL     1      -4.693  11.683  18.599  0.00  0.00    +0.000 C 
ATOM      4  C   UNL     1      -5.696  11.798  17.451  0.00  0.00    +0.000 C 
ATOM      5  O   UNL     1      -5.023  11.305  16.289  0.00  0.00    +0.000 OA
ATOM      6  C   UNL     1      -3.677  11.341  16.535  0.00  0.00    +0.000 C 
ATOM      7  O   UNL     1      -2.841  11.171  15.662  0.00  0.00    +0.000 OA
ATOM      8  N   UNL     1      -3.461  11.568  17.873  0.00  0.00    +0.000 N 
ATOM      9  C   UNL     1      -2.188  11.546  18.455  0.00  0.00    +0.000 A 
ATOM     10  C   UNL     1      -1.295  12.503  18.030  0.00  0.00    +0.000 A 
ATOM     11  C   UNL     1      -0.108  12.555  18.707  0.00  0.00    +0.000 A 
ATOM     12  N   UNL     1       0.213  11.702  19.688  0.00  0.00    +0.000 NA
ATOM     13  C   UNL     1      -0.706  10.797  20.039  0.00  0.00    +0.000 A 
ATOM     14  N   UNL     1      -0.461   9.933  21.094  0.00  0.00    +0.000 N 
ATOM     15  N   UNL     1      -1.926  10.707  19.477  0.00  0.00    +0.000 NA
ATOM     16  H   UNL     1      -1.061   9.135  20.949  0.00  0.00    +0.000 HD
BRANCH   3  18
ATOM     17  C   UNL     1      -5.995  13.783  19.373  0.00  0.00    +0.000 C 
ATOM     18  C   UNL     1      -4.757  12.891  19.577  0.00  0.00    +0.000 C 
ATOM     19  C   UNL     1      -4.727  12.456  21.048  0.00  0.00    +0.000 C 
ENDBRANCH   3  18
ENDBRANCH   1  14
BRANCH   1  20
ATOM     20  C   UNL     1       1.459   8.431  20.632  0.00  0.00    +0.000 A 
ATOM     21  C   UNL     1       1.416   7.136  21.173  0.00  0.00    +0.000 A 
ATOM     22  C   UNL     1       1.872   6.060  20.407  0.00  0.00    +0.000 A 
ATOM     23  C   UNL     1       2.375   6.250  19.116  0.00  0.00    +0.000 A 
ATOM     24  C   UNL     1       2.397   7.581  18.677  0.00  0.00    +0.000 A 
ATOM     25  N   UNL     1       1.965   8.655  19.395  0.00  0.00    +0.000 NA
BRANCH  23  26
ATOM     26  C   UNL     1       2.853   5.125  18.293  0.00  0.00    +0.000 A 
ATOM     27  C   UNL     1       2.141   3.923  18.212  0.00  0.00    +0.000 A 
ATOM     28  C   UNL     1       2.636   2.886  17.438  0.00  0.00    +0.000 A 
ATOM     29  N   UNL     1       3.784   2.957  16.738  0.00  0.00    +0.000 NA
ATOM     30  C   UNL     1       4.491   4.118  16.798  0.00  0.00    +0.000 A 
ATOM     31  C   UNL     1       4.050   5.208  17.557  0.00  0.00    +0.000 A 
BRANCH  30  32
ATOM     32  C   UNL     1       5.803   4.241  16.031  0.00  0.00    +0.000 C 
ATOM     33  F   UNL     1       6.041   3.225  15.154  0.00  0.00    +0.000 F 
ATOM     34  F   UNL     1       5.873   5.389  15.296  0.00  0.00    +0.000 F 
ATOM     35  F   UNL     1       6.889   4.277  16.860  0.00  0.00    +0.000 F 
ENDBRANCH  30  32
ENDBRANCH  23  26
ENDBRANCH   1  20
TORSDOF 5
ENDMDL
MODEL 7
REMARK VINA RESULT:      -8.5      4.094      6.036
REMARK  Name = 
REMARK  8 active torsions:
REMARK  status: ('A' for Active; 'I' for Inactive)
REMARK    1  A    between atoms: C_1  and  C_2
REMARK    2  A    between atoms: C_2  and  C_3
REMARK    3  A    between atoms: C_2  and  C_4
REMARK    4  A    between atoms: N_15  and  C_16
REMARK    5  A    between atoms: C_16  and  C_17
REMARK    6  A    between atoms: C_16  and  C_18
REMARK    7  A    between atoms: C_21  and  C_22
REMARK    8  A    between atoms: C_26  and  C_27
REMARK                            x       y       z     vdW  Elec       q    Type
REMARK                         _______ _______ _______ _____ _____    ______ ____
ROOT
ATOM      1  C   UNL     1       0.058  10.417  18.663  0.00  0.00    +0.000 C 
ATOM      2  C   UNL     1      -1.058  10.065  17.669  0.00  0.00    +0.000 C 
ENDROOT
BRANCH   1  14
ATOM      3  C   UNL     1       3.430  16.120  18.413  0.00  0.00    +0.000 C 
ATOM      4  C   UNL     1       4.649  17.011  18.652  0.00  0.00    +0.000 C 
ATOM      5  O   UNL     1       5.516  16.272  19.516  0.00  0.00    +0.000 OA
ATOM      6  C   UNL     1       4.771  15.300  20.128  0.00  0.00    +0.000 C 
ATOM      7  O   UNL     1       5.188  14.641  21.067  0.00  0.00    +0.000 OA
ATOM      8  N   UNL     1       3.549  15.200  19.508  0.00  0.00    +0.000 N 
ATOM      9  C   UNL     1       2.607  14.217  19.833  0.00  0.00    +0.000 A 
ATOM     10  C   UNL     1       2.087  14.252  21.107  0.00  0.00    +0.000 A 
ATOM     11  C   UNL     1       1.069  13.376  21.362  0.00  0.00    +0.000 A 
ATOM     12  N   UNL     1       0.626  12.487  20.463  0.00  0.00    +0.000 NA
ATOM     13  C   UNL     1       1.187  12.511  19.249  0.00  0.00    +0.000 A 
ATOM     14  N   UNL     1       0.723  11.665  18.255  0.00  0.00    +0.000 N 
ATOM     15  N   UNL     1       2.149  13.377  18.883  0.00  0.00    +0.000 NA
ATOM     16  H   UNL     1       1.480  11.567  17.595  0.00  0.00    +0.000 HD
BRANCH   3  18
ATOM     17  C   UNL     1       1.906  17.846  19.597  0.00  0.00    +0.000 C 
ATOM     18  C   UNL     1       2.095  16.919  18.383  0.00  0.00    +0.000 C 
ATOM     19  C   UNL     1       1.950  17.768  17.114  0.00  0.00    +0.000 C 
ENDBRANCH   3  18
ENDBRANCH   1  14
BRANCH   1  20
ATOM     20  C   UNL     1       1.053   9.252  18.731  0.00  0.00    +0.000 A 
ATOM     21  C   UNL     1       1.229   8.526  19.920  0.00  0.00    +0.000 A 
ATOM     22  C   UNL     1       2.123   7.452  19.939  0.00  0.00    +0.000 A 
ATOM     23  C   UNL     1       2.849   7.092  18.800  0.00  0.00    +0.000 A 
ATOM     24  C   UNL     1       2.619   7.893  17.671  0.00  0.00    +0.000 A 
ATOM     25  N   UNL     1       1.759   8.948  17.616  0.00  0.00    +0.000 NA
BRANCH  23  26
ATOM     26  C   UNL     1       3.790   5.958  18.801  0.00  0.00    +0.000 A 
ATOM     27  C   UNL     1       5.059   6.059  18.219  0.00  0.00    +0.000 A 
ATOM     28  C   UNL     1       5.904   4.962  18.229  0.00  0.00    +0.000 A 
ATOM     29  N   UNL     1       5.583   3.774  18.775  0.00  0.00    +0.000 NA
ATOM     30  C   UNL     1       4.355   3.654  19.350  0.00  0.00    +0.000 A 
ATOM     31  C   UNL     1       3.451   4.721  19.380  0.00  0.00    +0.000 A 
BRANCH  30  32
ATOM     32  C   UNL     1       3.943   2.324  19.972  0.00  0.00    +0.000 C 
ATOM     33  F   UNL     1       4.855   1.799  20.837  0.00  0.00    +0.000 F 
ATOM     34  F   UNL     1       2.776   2.416  20.674  0.00  0.00    +0.000 F 
ATOM     35  F   UNL     1       3.723   1.357  19.032  0.00  0.00    +0.000 F 
ENDBRANCH  30  32
ENDBRANCH  23  26
ENDBRANCH   1  20
TORSDOF 5
ENDMDL
MODEL 8
REMARK VINA RESULT:      -8.5      3.521      5.688
REMARK  Name = 
REMARK  8 active torsions:
REMARK  status: ('A' for Active; 'I' for Inactive)
REMARK    1  A    between atoms: C_1  and  C_2
REMARK    2  A    between atoms: C_2  and  C_3
REMARK    3  A    between atoms: C_2  and  C_4
REMARK    4  A    between atoms: N_15  and  C_16
REMARK    5  A    between atoms: C_16  and  C_17
REMARK    6  A    between atoms: C_16  and  C_18
REMARK    7  A    between atoms: C_21  and  C_22
REMARK    8  A    between atoms: C_26  and  C_27
REMARK                            x       y       z     vdW  Elec       q    Type
REMARK                         _______ _______ _______ _____ _____    ______ ____
ROOT
ATOM      1  C   UNL     1       0.438  10.509  19.938  0.00  0.00    +0.000 C 
ATOM      2  C   UNL     1      -0.969  10.489  19.323  0.00  0.00    +0.000 C 
ENDROOT
BRANCH   1  14
ATOM      3  C   UNL     1       3.095  16.581  20.095  0.00  0.00    +0.000 C 
ATOM      4  C   UNL     1       4.012  17.670  20.653  0.00  0.00    +0.000 C 
ATOM      5  O   UNL     1       4.480  17.184  21.914  0.00  0.00    +0.000 OA
ATOM      6  C   UNL     1       3.629  16.194  22.326  0.00  0.00    +0.000 C 
ATOM      7  O   UNL     1       3.653  15.728  23.454  0.00  0.00    +0.000 OA
ATOM      8  N   UNL     1       2.807  15.833  21.285  0.00  0.00    +0.000 N 
ATOM      9  C   UNL     1       1.903  14.767  21.361  0.00  0.00    +0.000 A 
ATOM     10  C   UNL     1       0.883  14.882  22.278  0.00  0.00    +0.000 A 
ATOM     11  C   UNL     1      -0.067  13.900  22.242  0.00  0.00    +0.000 A 
ATOM     12  N   UNL     1      -0.003  12.849  21.413  0.00  0.00    +0.000 NA
ATOM     13  C   UNL     1       1.023  12.806  20.556  0.00  0.00    +0.000 A 
ATOM     14  N   UNL     1       1.107  11.783  19.626  0.00  0.00    +0.000 N 
ATOM     15  N   UNL     1       1.972  13.756  20.472  0.00  0.00    +0.000 NA
ATOM     16  H   UNL     1       2.079  11.719  19.366  0.00  0.00    +0.000 HD
BRANCH   3  18
ATOM     17  C   UNL     1       1.474  18.583  19.829  0.00  0.00    +0.000 C 
ATOM     18  C   UNL     1       1.842  17.158  19.375  0.00  0.00    +0.000 C 
ATOM     19  C   UNL     1       2.000  17.176  17.850  0.00  0.00    +0.000 C 
ENDBRANCH   3  18
ENDBRANCH   1  14
BRANCH   1  20
ATOM     20  C   UNL     1       1.236   9.315  19.400  0.00  0.00    +0.000 A 
ATOM     21  C   UNL     1       1.667   9.281  18.065  0.00  0.00    +0.000 A 
ATOM     22  C   UNL     1       2.416   8.191  17.615  0.00  0.00    +0.000 A 
ATOM     23  C   UNL     1       2.738   7.131  18.469  0.00  0.00    +0.000 A 
ATOM     24  C   UNL     1       2.242   7.248  19.775  0.00  0.00    +0.000 A 
ATOM     25  N   UNL     1       1.507   8.293  20.248  0.00  0.00    +0.000 NA
BRANCH  23  26
ATOM     26  C   UNL     1       3.534   5.977  18.013  0.00  0.00    +0.000 A 
ATOM     27  C   UNL     1       2.948   4.725  17.794  0.00  0.00    +0.000 A 
ATOM     28  C   UNL     1       3.738   3.665  17.381  0.00  0.00    +0.000 A 
ATOM     29  N   UNL     1       5.064   3.757  17.169  0.00  0.00    +0.000 NA
ATOM     30  C   UNL     1       5.654   4.966  17.371  0.00  0.00    +0.000 A 
ATOM     31  C   UNL     1       4.919   6.082  17.785  0.00  0.00    +0.000 A 
BRANCH  30  32
ATOM     32  C   UNL     1       7.156   5.116  17.154  0.00  0.00    +0.000 C 
ATOM     33  F   UNL     1       7.920   4.744  18.220  0.00  0.00    +0.000 F 
ATOM     34  F   UNL     1       7.608   4.378  16.098  0.00  0.00    +0.000 F 
ATOM     35  F   UNL     1       7.515   6.404  16.872  0.00  0.00    +0.000 F 
ENDBRANCH  30  32
ENDBRANCH  23  26
ENDBRANCH   1  20
TORSDOF 5
ENDMDL
MODEL 9
REMARK VINA RESULT:      -8.5      3.111      5.418
REMARK  Name = 
REMARK  8 active torsions:
REMARK  status: ('A' for Active; 'I' for Inactive)
REMARK    1  A    between atoms: C_1  and  C_2
REMARK    2  A    between atoms: C_2  and  C_3
REMARK    3  A    between atoms: C_2  and  C_4
REMARK    4  A    between atoms: N_15  and  C_16
REMARK    5  A    between atoms: C_16  and  C_17
REMARK    6  A    between atoms: C_16  and  C_18
REMARK    7  A    between atoms: C_21  and  C_22
REMARK    8  A    between atoms: C_26  and  C_27
REMARK                            x       y       z     vdW  Elec       q    Type
REMARK                         _______ _______ _______ _____ _____    ______ ____
ROOT
ATOM      1  C   UNL     1       0.039  10.548  19.426  0.00  0.00    +0.000 C 
ATOM      2  C   UNL     1      -1.211  10.384  18.550  0.00  0.00    +0.000 C 
ENDROOT
BRANCH   1  14
ATOM      3  C   UNL     1       2.628  16.632  19.902  0.00  0.00    +0.000 C 
ATOM      4  C   UNL     1       3.576  17.685  20.476  0.00  0.00    +0.000 C 
ATOM      5  O   UNL     1       4.157  17.098  21.644  0.00  0.00    +0.000 OA
ATOM      6  C   UNL     1       3.356  16.060  22.036  0.00  0.00    +0.000 C 
ATOM      7  O   UNL     1       3.483  15.497  23.111  0.00  0.00    +0.000 OA
ATOM      8  N   UNL     1       2.452  15.777  21.040  0.00  0.00    +0.000 N 
ATOM      9  C   UNL     1       1.571  14.691  21.096  0.00  0.00    +0.000 A 
ATOM     10  C   UNL     1       0.632  14.704  22.103  0.00  0.00    +0.000 A 
ATOM     11  C   UNL     1      -0.306  13.710  22.059  0.00  0.00    +0.000 A 
ATOM     12  N   UNL     1      -0.300  12.738  21.137  0.00  0.00    +0.000 NA
ATOM     13  C   UNL     1       0.648  12.792  20.196  0.00  0.00    +0.000 A 
ATOM     14  N   UNL     1       0.664  11.856  19.174  0.00  0.00    +0.000 N 
ATOM     15  N   UNL     1       1.575  13.764  20.117  0.00  0.00    +0.000 NA
ATOM     16  H   UNL     1       1.611  11.835  18.828  0.00  0.00    +0.000 HD
BRANCH   3  18
ATOM     17  C   UNL     1       0.774  18.417  20.190  0.00  0.00    +0.000 C 
ATOM     18  C   UNL     1       1.311  17.246  19.346  0.00  0.00    +0.000 C 
ATOM     19  C   UNL     1       1.459  17.737  17.900  0.00  0.00    +0.000 C 
ENDBRANCH   3  18
ENDBRANCH   1  14
BRANCH   1  20
ATOM     20  C   UNL     1       1.012   9.400  19.128  0.00  0.00    +0.000 A 
ATOM     21  C   UNL     1       1.650   9.304  17.881  0.00  0.00    +0.000 A 
ATOM     22  C   UNL     1       2.552   8.262  17.652  0.00  0.00    +0.000 A 
ATOM     23  C   UNL     1       2.826   7.310  18.639  0.00  0.00    +0.000 A 
ATOM     24  C   UNL     1       2.122   7.480  19.840  0.00  0.00    +0.000 A 
ATOM     25  N   UNL     1       1.234   8.481  20.098  0.00  0.00    +0.000 NA
BRANCH  23  26
ATOM     26  C   UNL     1       3.780   6.209  18.417  0.00  0.00    +0.000 A 
ATOM     27  C   UNL     1       4.120   5.318  19.441  0.00  0.00    +0.000 A 
ATOM     28  C   UNL     1       5.034   4.308  19.192  0.00  0.00    +0.000 A 
ATOM     29  N   UNL     1       5.632   4.117  18.001  0.00  0.00    +0.000 NA
ATOM     30  C   UNL     1       5.313   4.968  16.989  0.00  0.00    +0.000 A 
ATOM     31  C   UNL     1       4.396   6.010  17.168  0.00  0.00    +0.000 A 
BRANCH  30  32
ATOM     32  C   UNL     1       5.973   4.797  15.625  0.00  0.00    +0.000 C 
ATOM     33  F   UNL     1       6.086   3.504  15.211  0.00  0.00    +0.000 F 
ATOM     34  F   UNL     1       5.297   5.447  14.632  0.00  0.00    +0.000 F 
ATOM     35  F   UNL     1       7.240   5.309  15.593  0.00  0.00    +0.000 F 
ENDBRANCH  30  32
ENDBRANCH  23  26
ENDBRANCH   1  20
TORSDOF 5
ENDMDL
