MODEL 1
REMARK VINA RESULT:      -7.8      0.000      0.000
REMARK  Name = 
REMARK  6 active torsions:
REMARK  status: ('A' for Active; 'I' for Inactive)
REMARK    1  A    between atoms: C_1  and  O_2
REMARK    2  A    between atoms: O_2  and  C_3
REMARK    3  A    between atoms: C_6  and  C_7
REMARK    4  A    between atoms: C_7  and  C_9
REMARK    5  A    between atoms: C_20  and  O_21
REMARK    6  A    between atoms: O_21  and  C_22
REMARK                            x       y       z     vdW  Elec       q    Type
REMARK                         _______ _______ _______ _____ _____    ______ ____
ROOT
ATOM      1  C   UNL     1       3.708   4.374  17.919  0.00  0.00    +0.000 C 
ATOM      2  O   UNL     1       3.218   3.254  17.730  0.00  0.00    +0.000 OA
ENDROOT
BRANCH   1   3
ATOM      3  C   UNL     1       3.034   5.274  18.873  0.00  0.00    +0.000 A 
ATOM      4  C   UNL     1       3.116   4.933  20.220  0.00  0.00    +0.000 A 
ATOM      5  N   UNL     1       2.191   5.660  20.895  0.00  0.00    +0.000 N 
ATOM      6  C   UNL     1       1.947   6.806  20.192  0.00  0.00    +0.000 A 
ATOM      7  C   UNL     1       1.379   8.002  20.644  0.00  0.00    +0.000 A 
ATOM      8  C   UNL     1       1.354   9.069  19.769  0.00  0.00    +0.000 A 
ATOM      9 BR   UNL     1       0.782  10.759  20.399  0.00  0.00    +0.000 Br
ATOM     10  C   UNL     1       1.787   8.915  18.452  0.00  0.00    +0.000 A 
ATOM     11  C   UNL     1       2.299   7.683  17.989  0.00  0.00    +0.000 A 
ATOM     12  C   UNL     1       2.427   6.593  18.885  0.00  0.00    +0.000 A 
ATOM     13  H   UNL     1       1.881   5.480  21.845  0.00  0.00    +0.000 HD
ENDBRANCH   1   3
BRANCH   1  17
ATOM     14  C   UNL     1       6.889   5.153  15.049  0.00  0.00    +0.000 A 
ATOM     15  C   UNL     1       5.926   4.167  14.847  0.00  0.00    +0.000 A 
ATOM     16  C   UNL     1       4.906   3.971  15.798  0.00  0.00    +0.000 A 
ATOM     17  C   UNL     1       4.826   4.731  16.979  0.00  0.00    +0.000 A 
ATOM     18  C   UNL     1       5.789   5.724  17.172  0.00  0.00    +0.000 A 
ATOM     19  C   UNL     1       6.835   5.915  16.228  0.00  0.00    +0.000 A 
BRANCH  14  21
ATOM     20  C   UNL     1       7.669   5.013  12.788  0.00  0.00    +0.000 C 
ATOM     21  O   UNL     1       7.905   5.349  14.154  0.00  0.00    +0.000 OA
ENDBRANCH  14  21
BRANCH  19  22
ATOM     22  O   UNL     1       7.704   6.905  16.622  0.00  0.00    +0.000 OA
ATOM     23  C   UNL     1       7.708   7.302  17.988  0.00  0.00    +0.000 C 
ENDBRANCH  19  22
ENDBRANCH   1  17
TORSDOF 4
ENDMDL
MODEL 2
REMARK VINA RESULT:      -7.3      1.717      2.520
REMARK  Name = 
REMARK  6 active torsions:
REMARK  status: ('A' for Active; 'I' for Inactive)
REMARK    1  A    between atoms: C_1  and  O_2
REMARK    2  A    between atoms: O_2  and  C_3
REMARK    3  A    between atoms: C_6  and  C_7
REMARK    4  A    between atoms: C_7  and  C_9
REMARK    5  A    between atoms: C_20  and  O_21
REMARK    6  A    between atoms: O_21  and  C_22
REMARK                            x       y       z     vdW  Elec       q    Type
REMARK                         _______ _______ _______ _____ _____    ______ ____
ROOT
ATOM      1  C   UNL     1       3.133   6.232  19.007  0.00  0.00    +0.000 C 
ATOM      2  O   UNL     1       2.767   5.352  19.795  0.00  0.00    +0.000 OA
ENDROOT
BRANCH   1   3
ATOM      3  C   UNL     1       2.420   7.523  19.027  0.00  0.00    +0.000 A 
ATOM      4  C   UNL     1       2.140   8.102  17.792  0.00  0.00    +0.000 A 
ATOM      5  N   UNL     1       1.794   9.396  18.004  0.00  0.00    +0.000 N 
ATOM      6  C   UNL     1       1.291   9.507  19.270  0.00  0.00    +0.000 A 
ATOM      7  C   UNL     1       0.482  10.517  19.802  0.00  0.00    +0.000 A 
ATOM      8  C   UNL     1      -0.007  10.338  21.080  0.00  0.00    +0.000 A 
ATOM      9 BR   UNL     1      -1.263  11.576  21.764  0.00  0.00    +0.000 Br
ATOM     10  C   UNL     1       0.385   9.235  21.840  0.00  0.00    +0.000 A 
ATOM     11  C   UNL     1       1.254   8.254  21.314  0.00  0.00    +0.000 A 
ATOM     12  C   UNL     1       1.700   8.357  19.973  0.00  0.00    +0.000 A 
ATOM     13  H   UNL     1       1.737  10.115  17.288  0.00  0.00    +0.000 HD
ENDBRANCH   1   3
BRANCH   1  17
ATOM     14  C   UNL     1       5.903   4.647  16.044  0.00  0.00    +0.000 A 
ATOM     15  C   UNL     1       4.695   4.022  16.347  0.00  0.00    +0.000 A 
ATOM     16  C   UNL     1       3.826   4.590  17.298  0.00  0.00    +0.000 A 
ATOM     17  C   UNL     1       4.140   5.776  17.987  0.00  0.00    +0.000 A 
ATOM     18  C   UNL     1       5.348   6.402  17.674  0.00  0.00    +0.000 A 
ATOM     19  C   UNL     1       6.241   5.825  16.730  0.00  0.00    +0.000 A 
BRANCH  14  21
ATOM     20  C   UNL     1       6.362   4.010  13.781  0.00  0.00    +0.000 C 
ATOM     21  O   UNL     1       6.777   4.105  15.142  0.00  0.00    +0.000 OA
ENDBRANCH  14  21
BRANCH  19  22
ATOM     22  O   UNL     1       7.392   6.567  16.597  0.00  0.00    +0.000 OA
ATOM     23  C   UNL     1       7.638   7.613  17.528  0.00  0.00    +0.000 C 
ENDBRANCH  19  22
ENDBRANCH   1  17
TORSDOF 4
ENDMDL
MODEL 3
REMARK VINA RESULT:      -7.1      3.805      6.757
REMARK  Name = 
REMARK  6 active torsions:
REMARK  status: ('A' for Active; 'I' for Inactive)
REMARK    1  A    between atoms: C_1  and  O_2
REMARK    2  A    between atoms: O_2  and  C_3
REMARK    3  A    between atoms: C_6  and  C_7
REMARK    4  A    between atoms: C_7  and  C_9
REMARK    5  A    between atoms: C_20  and  O_21
REMARK    6  A    between atoms: O_21  and  C_22
REMARK                            x       y       z     vdW  Elec       q    Type
REMARK                         _______ _______ _______ _____ _____    ______ ____
ROOT
ATOM      1  C   UNL     1       2.782   5.747  19.808  0.00  0.00    +0.000 C 
ATOM      2  O   UNL     1       2.366   5.106  20.780  0.00  0.00    +0.000 OA
ENDROOT
BRANCH   1   3
ATOM      3  C   UNL     1       3.912   5.191  19.041  0.00  0.00    +0.000 A 
ATOM      4  C   UNL     1       4.379   3.939  19.433  0.00  0.00    +0.000 A 
ATOM      5  N   UNL     1       5.590   3.743  18.855  0.00  0.00    +0.000 N 
ATOM      6  C   UNL     1       5.650   4.493  17.714  0.00  0.00    +0.000 A 
ATOM      7  C   UNL     1       6.506   4.345  16.618  0.00  0.00    +0.000 A 
ATOM      8  C   UNL     1       6.286   5.154  15.521  0.00  0.00    +0.000 A 
ATOM      9 BR   UNL     1       7.286   4.853  13.943  0.00  0.00    +0.000 Br
ATOM     10  C   UNL     1       5.309   6.149  15.560  0.00  0.00    +0.000 A 
ATOM     11  C   UNL     1       4.493   6.331  16.698  0.00  0.00    +0.000 A 
ATOM     12  C   UNL     1       4.628   5.457  17.806  0.00  0.00    +0.000 A 
ATOM     13  H   UNL     1       6.255   3.021  19.116  0.00  0.00    +0.000 HD
ENDBRANCH   1   3
BRANCH   1  17
ATOM     14  C   UNL     1       1.202   9.750  19.140  0.00  0.00    +0.000 A 
ATOM     15  C   UNL     1       1.763   8.989  18.117  0.00  0.00    +0.000 A 
ATOM     16  C   UNL     1       2.240   7.690  18.385  0.00  0.00    +0.000 A 
ATOM     17  C   UNL     1       2.191   7.124  19.671  0.00  0.00    +0.000 A 
ATOM     18  C   UNL     1       1.620   7.888  20.690  0.00  0.00    +0.000 A 
ATOM     19  C   UNL     1       1.155   9.208  20.435  0.00  0.00    +0.000 A 
BRANCH  14  21
ATOM     20  C   UNL     1       1.721  12.040  18.667  0.00  0.00    +0.000 C 
ATOM     21  O   UNL     1       0.753  11.023  18.914  0.00  0.00    +0.000 OA
ENDBRANCH  14  21
BRANCH  19  22
ATOM     22  O   UNL     1       0.672   9.809  21.574  0.00  0.00    +0.000 OA
ATOM     23  C   UNL     1      -0.401   9.186  22.268  0.00  0.00    +0.000 C 
ENDBRANCH  19  22
ENDBRANCH   1  17
TORSDOF 4
ENDMDL
MODEL 4
REMARK VINA RESULT:      -7.0      1.397      1.917
REMARK  Name = 
REMARK  6 active torsions:
REMARK  status: ('A' for Active; 'I' for Inactive)
REMARK    1  A    between atoms: C_1  and  O_2
REMARK    2  A    between atoms: O_2  and  C_3
REMARK    3  A    between atoms: C_6  and  C_7
REMARK    4  A    between atoms: C_7  and  C_9
REMARK    5  A    between atoms: C_20  and  O_21
REMARK    6  A    between atoms: O_21  and  C_22
REMARK                            x       y       z     vdW  Elec       q    Type
REMARK                         _______ _______ _______ _____ _____    ______ ____
ROOT
ATOM      1  C   UNL     1       2.699   5.666  19.020  0.00  0.00    +0.000 C 
ATOM      2  O   UNL     1       2.165   4.603  19.357  0.00  0.00    +0.000 OA
ENDROOT
BRANCH   1   3
ATOM      3  C   UNL     1       2.105   6.927  19.502  0.00  0.00    +0.000 A 
ATOM      4  C   UNL     1       1.848   7.014  20.868  0.00  0.00    +0.000 A 
ATOM      5  N   UNL     1       1.024   8.072  21.073  0.00  0.00    +0.000 N 
ATOM      6  C   UNL     1       1.207   8.965  20.055  0.00  0.00    +0.000 A 
ATOM      7  C   UNL     1       0.880  10.325  20.019  0.00  0.00    +0.000 A 
ATOM      8  C   UNL     1       1.285  11.051  18.917  0.00  0.00    +0.000 A 
ATOM      9 BR   UNL     1       1.044  12.927  18.916  0.00  0.00    +0.000 Br
ATOM     10  C   UNL     1       1.903  10.416  17.839  0.00  0.00    +0.000 A 
ATOM     11  C   UNL     1       2.170   9.030  17.861  0.00  0.00    +0.000 A 
ATOM     12  C   UNL     1       1.854   8.271  19.015  0.00  0.00    +0.000 A 
ATOM     13  H   UNL     1       0.507   8.257  21.927  0.00  0.00    +0.000 HD
ENDBRANCH   1   3
BRANCH   1  17
ATOM     14  C   UNL     1       5.764   4.943  16.011  0.00  0.00    +0.000 A 
ATOM     15  C   UNL     1       4.794   3.995  16.332  0.00  0.00    +0.000 A 
ATOM     16  C   UNL     1       3.812   4.290  17.298  0.00  0.00    +0.000 A 
ATOM     17  C   UNL     1       3.779   5.518  17.983  0.00  0.00    +0.000 A 
ATOM     18  C   UNL     1       4.748   6.467  17.652  0.00  0.00    +0.000 A 
ATOM     19  C   UNL     1       5.756   6.171  16.692  0.00  0.00    +0.000 A 
BRANCH  14  21
ATOM     20  C   UNL     1       6.361   4.059  13.866  0.00  0.00    +0.000 C 
ATOM     21  O   UNL     1       6.743   4.676  15.094  0.00  0.00    +0.000 OA
ENDBRANCH  14  21
BRANCH  19  22
ATOM     22  O   UNL     1       6.640   7.214  16.542  0.00  0.00    +0.000 OA
ATOM     23  C   UNL     1       7.546   7.495  17.602  0.00  0.00    +0.000 C 
ENDBRANCH  19  22
ENDBRANCH   1  17
TORSDOF 4
ENDMDL
MODEL 5
REMARK VINA RESULT:      -7.0      3.758      5.785
REMARK  Name = 
REMARK  6 active torsions:
REMARK  status: ('A' for Active; 'I' for Inactive)
REMARK    1  A    between atoms: C_1  and  O_2
REMARK    2  A    between atoms: O_2  and  C_3
REMARK    3  A    between atoms: C_6  and  C_7
REMARK    4  A    between atoms: C_7  and  C_9
REMARK    5  A    between atoms: C_20  and  O_21
REMARK    6  A    between atoms: O_21  and  C_22
REMARK                            x       y       z     vdW  Elec       q    Type
REMARK                         _______ _______ _______ _____ _____    ______ ____
ROOT
ATOM      1  C   UNL     1       2.442   7.654  18.447  0.00  0.00    +0.000 C 
ATOM      2  O   UNL     1       3.495   7.812  17.818  0.00  0.00    +0.000 OA
ENDROOT
BRANCH   1   3
ATOM      3  C   UNL     1       1.684   8.854  18.847  0.00  0.00    +0.000 A 
ATOM      4  C   UNL     1       1.212   9.667  17.819  0.00  0.00    +0.000 A 
ATOM      5  N   UNL     1       0.844  10.855  18.360  0.00  0.00    +0.000 N 
ATOM      6  C   UNL     1       0.517  10.651  19.670  0.00  0.00    +0.000 A 
ATOM      7  C   UNL     1      -0.253  11.460  20.514  0.00  0.00    +0.000 A 
ATOM      8  C   UNL     1      -0.552  10.972  21.769  0.00  0.00    +0.000 A 
ATOM      9 BR   UNL     1      -1.753  11.937  22.867  0.00  0.00    +0.000 Br
ATOM     10  C   UNL     1      -0.013   9.761  22.206  0.00  0.00    +0.000 A 
ATOM     11  C   UNL     1       0.816   8.984  21.367  0.00  0.00    +0.000 A 
ATOM     12  C   UNL     1       1.067   9.408  20.039  0.00  0.00    +0.000 A 
ATOM     13  H   UNL     1       0.658  11.706  17.837  0.00  0.00    +0.000 HD
ENDBRANCH   1   3
BRANCH   1  17
ATOM     14  C   UNL     1       1.764   3.649  20.017  0.00  0.00    +0.000 A 
ATOM     15  C   UNL     1       1.843   4.770  20.841  0.00  0.00    +0.000 A 
ATOM     16  C   UNL     1       2.042   6.046  20.277  0.00  0.00    +0.000 A 
ATOM     17  C   UNL     1       2.188   6.240  18.892  0.00  0.00    +0.000 A 
ATOM     18  C   UNL     1       2.100   5.113  18.071  0.00  0.00    +0.000 A 
ATOM     19  C   UNL     1       1.919   3.819  18.632  0.00  0.00    +0.000 A 
BRANCH  14  21
ATOM     20  C   UNL     1       1.572   2.257  21.958  0.00  0.00    +0.000 C 
ATOM     21  O   UNL     1       1.595   2.395  20.539  0.00  0.00    +0.000 OA
ENDBRANCH  14  21
BRANCH  19  22
ATOM     22  O   UNL     1       1.905   2.841  17.665  0.00  0.00    +0.000 OA
ATOM     23  C   UNL     1       3.061   2.028  17.503  0.00  0.00    +0.000 C 
ENDBRANCH  19  22
ENDBRANCH   1  17
TORSDOF 4
ENDMDL
MODEL 6
REMARK VINA RESULT:      -6.9      4.088      7.481
REMARK  Name = 
REMARK  6 active torsions:
REMARK  status: ('A' for Active; 'I' for Inactive)
REMARK    1  A    between atoms: C_1  and  O_2
REMARK    2  A    between atoms: O_2  and  C_3
REMARK    3  A    between atoms: C_6  and  C_7
REMARK    4  A    between atoms: C_7  and  C_9
REMARK    5  A    between atoms: C_20  and  O_21
REMARK    6  A    between atoms: O_21  and  C_22
REMARK                            x       y       z     vdW  Elec       q    Type
REMARK                         _______ _______ _______ _____ _____    ______ ____
ROOT
ATOM      1  C   UNL     1       4.600   6.080  16.732  0.00  0.00    +0.000 C 
ATOM      2  O   UNL     1       4.390   7.295  16.823  0.00  0.00    +0.000 OA
ENDROOT
BRANCH   1   3
ATOM      3  C   UNL     1       5.590   5.617  15.742  0.00  0.00    +0.000 A 
ATOM      4  C   UNL     1       6.931   5.736  16.096  0.00  0.00    +0.000 A 
ATOM      5  N   UNL     1       7.677   5.580  14.974  0.00  0.00    +0.000 N 
ATOM      6  C   UNL     1       6.966   4.825  14.084  0.00  0.00    +0.000 A 
ATOM      7  C   UNL     1       7.435   4.104  12.981  0.00  0.00    +0.000 A 
ATOM      8  C   UNL     1       6.532   3.309  12.305  0.00  0.00    +0.000 A 
ATOM      9 BR   UNL     1       7.161   2.164  10.938  0.00  0.00    +0.000 Br
ATOM     10  C   UNL     1       5.181   3.317  12.656  0.00  0.00    +0.000 A 
ATOM     11  C   UNL     1       4.708   4.100  13.731  0.00  0.00    +0.000 A 
ATOM     12  C   UNL     1       5.623   4.854  14.507  0.00  0.00    +0.000 A 
ATOM     13  H   UNL     1       8.661   5.816  14.885  0.00  0.00    +0.000 HD
ENDBRANCH   1   3
BRANCH   1  17
ATOM     14  C   UNL     1       1.799   3.838  19.201  0.00  0.00    +0.000 A 
ATOM     15  C   UNL     1       1.920   5.224  19.280  0.00  0.00    +0.000 A 
ATOM     16  C   UNL     1       2.827   5.901  18.442  0.00  0.00    +0.000 A 
ATOM     17  C   UNL     1       3.649   5.224  17.523  0.00  0.00    +0.000 A 
ATOM     18  C   UNL     1       3.517   3.836  17.443  0.00  0.00    +0.000 A 
ATOM     19  C   UNL     1       2.619   3.141  18.299  0.00  0.00    +0.000 A 
BRANCH  14  21
ATOM     20  C   UNL     1       1.370   2.873  21.351  0.00  0.00    +0.000 C 
ATOM     21  O   UNL     1       0.944   3.152  20.019  0.00  0.00    +0.000 OA
ENDBRANCH  14  21
BRANCH  19  22
ATOM     22  O   UNL     1       2.671   1.781  18.098  0.00  0.00    +0.000 OA
ATOM     23  C   UNL     1       3.757   1.053  18.657  0.00  0.00    +0.000 C 
ENDBRANCH  19  22
ENDBRANCH   1  17
TORSDOF 4
ENDMDL
MODEL 7
REMARK VINA RESULT:      -6.9      3.863      6.982
REMARK  Name = 
REMARK  6 active torsions:
REMARK  status: ('A' for Active; 'I' for Inactive)
REMARK    1  A    between atoms: C_1  and  O_2
REMARK    2  A    between atoms: O_2  and  C_3
REMARK    3  A    between atoms: C_6  and  C_7
REMARK    4  A    between atoms: C_7  and  C_9
REMARK    5  A    between atoms: C_20  and  O_21
REMARK    6  A    between atoms: O_21  and  C_22
REMARK                            x       y       z     vdW  Elec       q    Type
REMARK                         _______ _______ _______ _____ _____    ______ ____
ROOT
ATOM      1  C   UNL     1       2.259   6.044  19.792  0.00  0.00    +0.000 C 
ATOM      2  O   UNL     1       2.199   5.512  20.907  0.00  0.00    +0.000 OA
ENDROOT
BRANCH   1   3
ATOM      3  C   UNL     1       2.901   5.293  18.697  0.00  0.00    +0.000 A 
ATOM      4  C   UNL     1       2.154   4.269  18.119  0.00  0.00    +0.000 A 
ATOM      5  N   UNL     1       2.995   3.498  17.386  0.00  0.00    +0.000 N 
ATOM      6  C   UNL     1       4.060   4.264  17.004  0.00  0.00    +0.000 A 
ATOM      7  C   UNL     1       4.968   4.039  15.964  0.00  0.00    +0.000 A 
ATOM      8  C   UNL     1       5.888   5.031  15.692  0.00  0.00    +0.000 A 
ATOM      9 BR   UNL     1       7.000   4.859  14.171  0.00  0.00    +0.000 Br
ATOM     10  C   UNL     1       5.967   6.165  16.501  0.00  0.00    +0.000 A 
ATOM     11  C   UNL     1       5.086   6.351  17.589  0.00  0.00    +0.000 A 
ATOM     12  C   UNL     1       4.067   5.398  17.839  0.00  0.00    +0.000 A 
ATOM     13  H   UNL     1       2.779   2.574  17.023  0.00  0.00    +0.000 HD
ENDBRANCH   1   3
BRANCH   1  17
ATOM     14  C   UNL     1       1.165  10.245  19.447  0.00  0.00    +0.000 A 
ATOM     15  C   UNL     1       1.602   9.495  18.357  0.00  0.00    +0.000 A 
ATOM     16  C   UNL     1       1.923   8.134  18.521  0.00  0.00    +0.000 A 
ATOM     17  C   UNL     1       1.838   7.488  19.768  0.00  0.00    +0.000 A 
ATOM     18  C   UNL     1       1.391   8.242  20.854  0.00  0.00    +0.000 A 
ATOM     19  C   UNL     1       1.085   9.622  20.704  0.00  0.00    +0.000 A 
BRANCH  14  21
ATOM     20  C   UNL     1      -0.385  11.932  18.746  0.00  0.00    +0.000 C 
ATOM     21  O   UNL     1       0.870  11.575  19.323  0.00  0.00    +0.000 OA
ENDBRANCH  14  21
BRANCH  19  22
ATOM     22  O   UNL     1       0.709  10.195  21.896  0.00  0.00    +0.000 OA
ATOM     23  C   UNL     1      -0.303   9.559  22.666  0.00  0.00    +0.000 C 
ENDBRANCH  19  22
ENDBRANCH   1  17
TORSDOF 4
ENDMDL
MODEL 8
REMARK VINA RESULT:      -6.9      1.720      2.311
REMARK  Name = 
REMARK  6 active torsions:
REMARK  status: ('A' for Active; 'I' for Inactive)
REMARK    1  A    between atoms: C_1  and  O_2
REMARK    2  A    between atoms: O_2  and  C_3
REMARK    3  A    between atoms: C_6  and  C_7
REMARK    4  A    between atoms: C_7  and  C_9
REMARK    5  A    between atoms: C_20  and  O_21
REMARK    6  A    between atoms: O_21  and  C_22
REMARK                            x       y       z     vdW  Elec       q    Type
REMARK                         _______ _______ _______ _____ _____    ______ ____
ROOT
ATOM      1  C   UNL     1       2.786   5.934  19.214  0.00  0.00    +0.000 C 
ATOM      2  O   UNL     1       2.214   4.852  19.384  0.00  0.00    +0.000 OA
ENDROOT
BRANCH   1   3
ATOM      3  C   UNL     1       2.089   7.163  19.636  0.00  0.00    +0.000 A 
ATOM      4  C   UNL     1       1.713   7.240  20.975  0.00  0.00    +0.000 A 
ATOM      5  N   UNL     1       0.820   8.253  21.102  0.00  0.00    +0.000 N 
ATOM      6  C   UNL     1       1.042   9.153  20.098  0.00  0.00    +0.000 A 
ATOM      7  C   UNL     1       0.648  10.494  20.026  0.00  0.00    +0.000 A 
ATOM      8  C   UNL     1       1.106  11.237  18.957  0.00  0.00    +0.000 A 
ATOM      9 BR   UNL     1       0.769  13.098  18.923  0.00  0.00    +0.000 Br
ATOM     10  C   UNL     1       1.846  10.634  17.939  0.00  0.00    +0.000 A 
ATOM     11  C   UNL     1       2.182   9.263  17.992  0.00  0.00    +0.000 A 
ATOM     12  C   UNL     1       1.809   8.491  19.120  0.00  0.00    +0.000 A 
ATOM     13  H   UNL     1       0.224   8.413  21.910  0.00  0.00    +0.000 HD
ENDBRANCH   1   3
BRANCH   1  17
ATOM     14  C   UNL     1       6.278   5.731  16.619  0.00  0.00    +0.000 A 
ATOM     15  C   UNL     1       5.039   6.185  16.170  0.00  0.00    +0.000 A 
ATOM     16  C   UNL     1       3.948   6.250  17.058  0.00  0.00    +0.000 A 
ATOM     17  C   UNL     1       4.050   5.850  18.403  0.00  0.00    +0.000 A 
ATOM     18  C   UNL     1       5.296   5.404  18.849  0.00  0.00    +0.000 A 
ATOM     19  C   UNL     1       6.398   5.315  17.955  0.00  0.00    +0.000 A 
BRANCH  14  21
ATOM     20  C   UNL     1       7.180   4.902  14.560  0.00  0.00    +0.000 C 
ATOM     21  O   UNL     1       7.348   5.634  15.772  0.00  0.00    +0.000 OA
ENDBRANCH  14  21
BRANCH  19  22
ATOM     22  O   UNL     1       7.518   4.811  18.573  0.00  0.00    +0.000 OA
ATOM     23  C   UNL     1       8.132   5.581  19.599  0.00  0.00    +0.000 C 
ENDBRANCH  19  22
ENDBRANCH   1  17
TORSDOF 4
ENDMDL
MODEL 9
REMARK VINA RESULT:      -6.8      1.910      2.757
REMARK  Name = 
REMARK  6 active torsions:
REMARK  status: ('A' for Active; 'I' for Inactive)
REMARK    1  A    between atoms: C_1  and  O_2
REMARK    2  A    between atoms: O_2  and  C_3
REMARK    3  A    between atoms: C_6  and  C_7
REMARK    4  A    between atoms: C_7  and  C_9
REMARK    5  A    between atoms: C_20  and  O_21
REMARK    6  A    between atoms: O_21  and  C_22
REMARK                            x       y       z     vdW  Elec       q    Type
REMARK                         _______ _______ _______ _____ _____    ______ ____
ROOT
ATOM      1  C   UNL     1       2.270   5.806  20.012  0.00  0.00    +0.000 C 
ATOM      2  O   UNL     1       1.665   4.880  20.563  0.00  0.00    +0.000 OA
ENDROOT
BRANCH   1   3
ATOM      3  C   UNL     1       1.735   7.173  20.162  0.00  0.00    +0.000 A 
ATOM      4  C   UNL     1       1.311   7.541  21.436  0.00  0.00    +0.000 A 
ATOM      5  N   UNL     1       0.567   8.669  21.320  0.00  0.00    +0.000 N 
ATOM      6  C   UNL     1       0.960   9.333  20.193  0.00  0.00    +0.000 A 
ATOM      7  C   UNL     1       0.765  10.678  19.860  0.00  0.00    +0.000 A 
ATOM      8  C   UNL     1       1.373  11.147  18.713  0.00  0.00    +0.000 A 
ATOM      9 BR   UNL     1       1.305  12.998  18.330  0.00  0.00    +0.000 Br
ATOM     10  C   UNL     1       2.066  10.275  17.871  0.00  0.00    +0.000 A 
ATOM     11  C   UNL     1       2.202   8.906  18.187  0.00  0.00    +0.000 A 
ATOM     12  C   UNL     1       1.671   8.409  19.403  0.00  0.00    +0.000 A 
ATOM     13  H   UNL     1      -0.038   9.051  22.043  0.00  0.00    +0.000 HD
ENDBRANCH   1   3
BRANCH   1  17
ATOM     14  C   UNL     1       5.245   4.439  17.140  0.00  0.00    +0.000 A 
ATOM     15  C   UNL     1       3.894   4.555  16.818  0.00  0.00    +0.000 A 
ATOM     16  C   UNL     1       2.977   5.023  17.779  0.00  0.00    +0.000 A 
ATOM     17  C   UNL     1       3.371   5.368  19.085  0.00  0.00    +0.000 A 
ATOM     18  C   UNL     1       4.727   5.257  19.400  0.00  0.00    +0.000 A 
ATOM     19  C   UNL     1       5.657   4.765  18.442  0.00  0.00    +0.000 A 
BRANCH  14  21
ATOM     20  C   UNL     1       6.917   4.912  15.490  0.00  0.00    +0.000 C 
ATOM     21  O   UNL     1       6.153   3.964  16.234  0.00  0.00    +0.000 OA
ENDBRANCH  14  21
BRANCH  19  22
ATOM     22  O   UNL     1       6.929   4.688  18.959  0.00  0.00    +0.000 OA
ATOM     23  C   UNL     1       7.674   5.889  19.112  0.00  0.00    +0.000 C 
ENDBRANCH  19  22
ENDBRANCH   1  17
TORSDOF 4
ENDMDL
