MODEL 1
REMARK VINA RESULT:      -9.5      0.000      0.000
REMARK  Name = 
REMARK  3 active torsions:
REMARK  status: ('A' for Active; 'I' for Inactive)
REMARK    1  A    between atoms: C_2  and  C_17
REMARK    2  A    between atoms: C_7  and  C_8
REMARK    3  A    between atoms: C_20  and  N_21
REMARK                            x       y       z     vdW  Elec       q    Type
REMARK                         _______ _______ _______ _____ _____    ______ ____
ROOT
ATOM      1  O   UNL     1       1.860   8.693  19.282  0.00  0.00    +0.000 OA
ATOM      2  C   UNL     1       1.366   8.358  20.352  0.00  0.00    +0.000 C 
ATOM      3  N   UNL     1       1.410   7.120  20.946  0.00  0.00    +0.000 N 
ATOM      4  C   UNL     1       2.123   6.057  20.455  0.00  0.00    +0.000 A 
ATOM      5  N   UNL     1       1.937   4.842  20.970  0.00  0.00    +0.000 NA
ATOM      6  S   UNL     1       2.928   3.808  20.112  0.00  0.00    +0.000 S 
ATOM      7  C   UNL     1       3.605   5.069  19.159  0.00  0.00    +0.000 A 
ATOM      8  N   UNL     1       3.062   6.228  19.464  0.00  0.00    +0.000 NA
ATOM      9  H   UNL     1       0.815   6.890  21.727  0.00  0.00    +0.000 HD
ENDROOT
BRANCH   7  10
ATOM     10  C   UNL     1       4.665   4.882  18.160  0.00  0.00    +0.000 A 
ATOM     11  C   UNL     1       4.319   4.951  16.793  0.00  0.00    +0.000 A 
ATOM     12  C   UNL     1       5.281   4.801  15.789  0.00  0.00    +0.000 A 
ATOM     13  C   UNL     1       6.603   4.573  16.146  0.00  0.00    +0.000 A 
ATOM     14  F   UNL     1       7.529   4.432  15.190  0.00  0.00    +0.000 F 
ATOM     15  C   UNL     1       6.961   4.493  17.487  0.00  0.00    +0.000 A 
ATOM     16  F   UNL     1       8.237   4.271  17.830  0.00  0.00    +0.000 F 
ATOM     17  C   UNL     1       6.007   4.645  18.491  0.00  0.00    +0.000 A 
ENDBRANCH   7  10
BRANCH   2  18
ATOM     18  C   UNL     1       0.575   9.365  21.102  0.00  0.00    +0.000 A 
ATOM     19  C   UNL     1       0.053   9.029  22.354  0.00  0.00    +0.000 A 
ATOM     20  C   UNL     1      -0.663   9.979  23.091  0.00  0.00    +0.000 A 
ATOM     21  C   UNL     1      -0.855  11.276  22.594  0.00  0.00    +0.000 A 
ATOM     22  C   UNL     1      -0.404  11.558  21.297  0.00  0.00    +0.000 A 
ATOM     23  C   UNL     1       0.324  10.625  20.559  0.00  0.00    +0.000 A 
BRANCH  21  24
ATOM     24  N   UNL     1      -1.564  12.225  23.367  0.00  0.00    +0.000 N 
ATOM     25  C   UNL     1      -2.888  12.681  23.146  0.00  0.00    +0.000 A 
ATOM     26  C   UNL     1      -3.450  13.537  24.077  0.00  0.00    +0.000 A 
ATOM     27  C   UNL     1      -4.753  13.929  23.853  0.00  0.00    +0.000 A 
ATOM     28  N   UNL     1      -5.484  13.516  22.805  0.00  0.00    +0.000 NA
ATOM     29  C   UNL     1      -4.858  12.685  21.967  0.00  0.00    +0.000 A 
ATOM     30  N   UNL     1      -3.596  12.254  22.085  0.00  0.00    +0.000 NA
ATOM     31  H   UNL     1      -0.971  12.996  23.654  0.00  0.00    +0.000 HD
ENDBRANCH  21  24
ENDBRANCH   2  18
TORSDOF 3
ENDMDL
MODEL 2
REMARK VINA RESULT:      -9.4      0.727      1.147
REMARK  Name = 
REMARK  3 active torsions:
REMARK  status: ('A' for Active; 'I' for Inactive)
REMARK    1  A    between atoms: C_2  and  C_17
REMARK    2  A    between atoms: C_7  and  C_8
REMARK    3  A    between atoms: C_20  and  N_21
REMARK                            x       y       z     vdW  Elec       q    Type
REMARK                         _______ _______ _______ _____ _____    ______ ____
ROOT
ATOM      1  O   UNL     1       1.770   8.959  19.323  0.00  0.00    +0.000 OA
ATOM      2  C   UNL     1       1.324   8.582  20.400  0.00  0.00    +0.000 C 
ATOM      3  N   UNL     1       1.398   7.322  20.944  0.00  0.00    +0.000 N 
ATOM      4  C   UNL     1       2.093   6.283  20.384  0.00  0.00    +0.000 A 
ATOM      5  N   UNL     1       1.934   5.048  20.860  0.00  0.00    +0.000 NA
ATOM      6  S   UNL     1       2.891   4.053  19.922  0.00  0.00    +0.000 S 
ATOM      7  C   UNL     1       3.522   5.351  18.990  0.00  0.00    +0.000 A 
ATOM      8  N   UNL     1       2.989   6.495  19.361  0.00  0.00    +0.000 NA
ATOM      9  H   UNL     1       0.837   7.061  21.740  0.00  0.00    +0.000 HD
ENDROOT
BRANCH   7  10
ATOM     10  C   UNL     1       4.540   5.208  17.941  0.00  0.00    +0.000 A 
ATOM     11  C   UNL     1       4.371   4.190  16.977  0.00  0.00    +0.000 A 
ATOM     12  C   UNL     1       5.291   4.009  15.940  0.00  0.00    +0.000 A 
ATOM     13  C   UNL     1       6.397   4.844  15.861  0.00  0.00    +0.000 A 
ATOM     14  F   UNL     1       7.280   4.677  14.868  0.00  0.00    +0.000 F 
ATOM     15  C   UNL     1       6.585   5.845  16.806  0.00  0.00    +0.000 A 
ATOM     16  F   UNL     1       7.654   6.650  16.730  0.00  0.00    +0.000 F 
ATOM     17  C   UNL     1       5.669   6.033  17.840  0.00  0.00    +0.000 A 
ENDBRANCH   7  10
BRANCH   2  18
ATOM     18  C   UNL     1       0.562   9.556  21.220  0.00  0.00    +0.000 A 
ATOM     19  C   UNL     1       0.535  10.900  20.835  0.00  0.00    +0.000 A 
ATOM     20  C   UNL     1      -0.209  11.824  21.576  0.00  0.00    +0.000 A 
ATOM     21  C   UNL     1      -0.944  11.418  22.700  0.00  0.00    +0.000 A 
ATOM     22  C   UNL     1      -0.824  10.085  23.119  0.00  0.00    +0.000 A 
ATOM     23  C   UNL     1      -0.097   9.152  22.380  0.00  0.00    +0.000 A 
BRANCH  21  24
ATOM     24  N   UNL     1      -1.705  12.368  23.420  0.00  0.00    +0.000 N 
ATOM     25  C   UNL     1      -3.033  12.778  23.141  0.00  0.00    +0.000 A 
ATOM     26  C   UNL     1      -3.650  13.645  24.026  0.00  0.00    +0.000 A 
ATOM     27  C   UNL     1      -4.956  13.991  23.747  0.00  0.00    +0.000 A 
ATOM     28  N   UNL     1      -5.639  13.527  22.689  0.00  0.00    +0.000 NA
ATOM     29  C   UNL     1      -4.961  12.690  21.898  0.00  0.00    +0.000 A 
ATOM     30  N   UNL     1      -3.693  12.300  22.070  0.00  0.00    +0.000 NA
ATOM     31  H   UNL     1      -1.144  13.164  23.703  0.00  0.00    +0.000 HD
ENDBRANCH  21  24
ENDBRANCH   2  18
TORSDOF 3
ENDMDL
MODEL 3
REMARK VINA RESULT:      -9.3      1.015      1.405
REMARK  Name = 
REMARK  3 active torsions:
REMARK  status: ('A' for Active; 'I' for Inactive)
REMARK    1  A    between atoms: C_2  and  C_17
REMARK    2  A    between atoms: C_7  and  C_8
REMARK    3  A    between atoms: C_20  and  N_21
REMARK                            x       y       z     vdW  Elec       q    Type
REMARK                         _______ _______ _______ _____ _____    ______ ____
ROOT
ATOM      1  O   UNL     1       1.394   8.992  19.107  0.00  0.00    +0.000 OA
ATOM      2  C   UNL     1       1.169   8.673  20.269  0.00  0.00    +0.000 C 
ATOM      3  N   UNL     1       1.451   7.475  20.879  0.00  0.00    +0.000 N 
ATOM      4  C   UNL     1       2.141   6.452  20.283  0.00  0.00    +0.000 A 
ATOM      5  N   UNL     1       2.180   5.253  20.865  0.00  0.00    +0.000 NA
ATOM      6  S   UNL     1       3.061   4.263  19.849  0.00  0.00    +0.000 S 
ATOM      7  C   UNL     1       3.403   5.525  18.734  0.00  0.00    +0.000 A 
ATOM      8  N   UNL     1       2.831   6.649  19.109  0.00  0.00    +0.000 NA
ATOM      9  H   UNL     1       1.058   7.237  21.776  0.00  0.00    +0.000 HD
ENDROOT
BRANCH   7  10
ATOM     10  C   UNL     1       4.243   5.375  17.538  0.00  0.00    +0.000 A 
ATOM     11  C   UNL     1       4.584   6.535  16.809  0.00  0.00    +0.000 A 
ATOM     12  C   UNL     1       5.395   6.468  15.671  0.00  0.00    +0.000 A 
ATOM     13  C   UNL     1       5.869   5.234  15.249  0.00  0.00    +0.000 A 
ATOM     14  F   UNL     1       6.649   5.164  14.162  0.00  0.00    +0.000 F 
ATOM     15  C   UNL     1       5.536   4.081  15.948  0.00  0.00    +0.000 A 
ATOM     16  F   UNL     1       5.992   2.889  15.537  0.00  0.00    +0.000 F 
ATOM     17  C   UNL     1       4.731   4.142  17.084  0.00  0.00    +0.000 A 
ENDBRANCH   7  10
BRANCH   2  18
ATOM     18  C   UNL     1       0.464   9.648  21.137  0.00  0.00    +0.000 A 
ATOM     19  C   UNL     1       0.427  10.994  20.763  0.00  0.00    +0.000 A 
ATOM     20  C   UNL     1      -0.265  11.920  21.550  0.00  0.00    +0.000 A 
ATOM     21  C   UNL     1      -0.939  11.513  22.711  0.00  0.00    +0.000 A 
ATOM     22  C   UNL     1      -0.807  10.176  23.114  0.00  0.00    +0.000 A 
ATOM     23  C   UNL     1      -0.132   9.241  22.330  0.00  0.00    +0.000 A 
BRANCH  21  24
ATOM     24  N   UNL     1      -1.649  12.464  23.479  0.00  0.00    +0.000 N 
ATOM     25  C   UNL     1      -2.988  12.888  23.278  0.00  0.00    +0.000 A 
ATOM     26  C   UNL     1      -3.546  13.754  24.202  0.00  0.00    +0.000 A 
ATOM     27  C   UNL     1      -4.862  14.114  24.000  0.00  0.00    +0.000 A 
ATOM     28  N   UNL     1      -5.608  13.663  22.979  0.00  0.00    +0.000 NA
ATOM     29  C   UNL     1      -4.983  12.826  22.145  0.00  0.00    +0.000 A 
ATOM     30  N   UNL     1      -3.711  12.423  22.243  0.00  0.00    +0.000 NA
ATOM     31  H   UNL     1      -1.066  13.254  23.735  0.00  0.00    +0.000 HD
ENDBRANCH  21  24
ENDBRANCH   2  18
TORSDOF 3
ENDMDL
MODEL 4
REMARK VINA RESULT:      -9.3      0.506      1.229
REMARK  Name = 
REMARK  3 active torsions:
REMARK  status: ('A' for Active; 'I' for Inactive)
REMARK    1  A    between atoms: C_2  and  C_17
REMARK    2  A    between atoms: C_7  and  C_8
REMARK    3  A    between atoms: C_20  and  N_21
REMARK                            x       y       z     vdW  Elec       q    Type
REMARK                         _______ _______ _______ _____ _____    ______ ____
ROOT
ATOM      1  O   UNL     1       1.776   8.728  19.301  0.00  0.00    +0.000 OA
ATOM      2  C   UNL     1       1.313   8.414  20.391  0.00  0.00    +0.000 C 
ATOM      3  N   UNL     1       1.382   7.189  21.009  0.00  0.00    +0.000 N 
ATOM      4  C   UNL     1       2.089   6.120  20.523  0.00  0.00    +0.000 A 
ATOM      5  N   UNL     1       1.926   4.916  21.069  0.00  0.00    +0.000 NA
ATOM      6  S   UNL     1       2.900   3.870  20.207  0.00  0.00    +0.000 S 
ATOM      7  C   UNL     1       3.542   5.113  19.209  0.00  0.00    +0.000 A 
ATOM      8  N   UNL     1       3.000   6.275  19.504  0.00  0.00    +0.000 NA
ATOM      9  H   UNL     1       0.810   6.973  21.811  0.00  0.00    +0.000 HD
ENDROOT
BRANCH   7  10
ATOM     10  C   UNL     1       4.577   4.911  18.186  0.00  0.00    +0.000 A 
ATOM     11  C   UNL     1       5.931   4.965  18.581  0.00  0.00    +0.000 A 
ATOM     12  C   UNL     1       6.966   4.763  17.663  0.00  0.00    +0.000 A 
ATOM     13  C   UNL     1       6.654   4.510  16.335  0.00  0.00    +0.000 A 
ATOM     14  F   UNL     1       7.641   4.313  15.451  0.00  0.00    +0.000 F 
ATOM     15  C   UNL     1       5.327   4.463  15.925  0.00  0.00    +0.000 A 
ATOM     16  F   UNL     1       5.027   4.221  14.642  0.00  0.00    +0.000 F 
ATOM     17  C   UNL     1       4.291   4.660  16.837  0.00  0.00    +0.000 A 
ENDBRANCH   7  10
BRANCH   2  18
ATOM     18  C   UNL     1       0.537   9.432  21.140  0.00  0.00    +0.000 A 
ATOM     19  C   UNL     1      -0.045   9.085  22.362  0.00  0.00    +0.000 A 
ATOM     20  C   UNL     1      -0.749  10.043  23.099  0.00  0.00    +0.000 A 
ATOM     21  C   UNL     1      -0.870  11.360  22.633  0.00  0.00    +0.000 A 
ATOM     22  C   UNL     1      -0.360  11.658  21.361  0.00  0.00    +0.000 A 
ATOM     23  C   UNL     1       0.356  10.715  20.624  0.00  0.00    +0.000 A 
BRANCH  21  24
ATOM     24  N   UNL     1      -1.569  12.316  23.406  0.00  0.00    +0.000 N 
ATOM     25  C   UNL     1      -2.903  12.755  23.211  0.00  0.00    +0.000 A 
ATOM     26  C   UNL     1      -3.450  13.622  24.139  0.00  0.00    +0.000 A 
ATOM     27  C   UNL     1      -4.762  13.997  23.942  0.00  0.00    +0.000 A 
ATOM     28  N   UNL     1      -5.516  13.557  22.921  0.00  0.00    +0.000 NA
ATOM     29  C   UNL     1      -4.903  12.716  22.083  0.00  0.00    +0.000 A 
ATOM     30  N   UNL     1      -3.634  12.301  22.176  0.00  0.00    +0.000 NA
ATOM     31  H   UNL     1      -0.977  13.099  23.663  0.00  0.00    +0.000 HD
ENDBRANCH  21  24
ENDBRANCH   2  18
TORSDOF 3
ENDMDL
MODEL 5
REMARK VINA RESULT:      -9.2      1.307      1.773
REMARK  Name = 
REMARK  3 active torsions:
REMARK  status: ('A' for Active; 'I' for Inactive)
REMARK    1  A    between atoms: C_2  and  C_17
REMARK    2  A    between atoms: C_7  and  C_8
REMARK    3  A    between atoms: C_20  and  N_21
REMARK                            x       y       z     vdW  Elec       q    Type
REMARK                         _______ _______ _______ _____ _____    ______ ____
ROOT
ATOM      1  O   UNL     1       1.819   8.576  19.191  0.00  0.00    +0.000 OA
ATOM      2  C   UNL     1       1.358   8.248  20.278  0.00  0.00    +0.000 C 
ATOM      3  N   UNL     1       1.461   7.027  20.900  0.00  0.00    +0.000 N 
ATOM      4  C   UNL     1       2.207   5.982  20.422  0.00  0.00    +0.000 A 
ATOM      5  N   UNL     1       2.078   4.773  20.969  0.00  0.00    +0.000 NA
ATOM      6  S   UNL     1       3.093   3.758  20.117  0.00  0.00    +0.000 S 
ATOM      7  C   UNL     1       3.703   5.020  19.122  0.00  0.00    +0.000 A 
ATOM      8  N   UNL     1       3.121   6.164  19.410  0.00  0.00    +0.000 NA
ATOM      9  H   UNL     1       0.890   6.794  21.697  0.00  0.00    +0.000 HD
ENDROOT
BRANCH   7  10
ATOM     10  C   UNL     1       4.752   4.849  18.108  0.00  0.00    +0.000 A 
ATOM     11  C   UNL     1       4.389   4.934  16.747  0.00  0.00    +0.000 A 
ATOM     12  C   UNL     1       5.340   4.800  15.730  0.00  0.00    +0.000 A 
ATOM     13  C   UNL     1       6.666   4.574  16.068  0.00  0.00    +0.000 A 
ATOM     14  F   UNL     1       7.582   4.448  15.098  0.00  0.00    +0.000 F 
ATOM     15  C   UNL     1       7.041   4.479  17.402  0.00  0.00    +0.000 A 
ATOM     16  F   UNL     1       8.322   4.258  17.728  0.00  0.00    +0.000 F 
ATOM     17  C   UNL     1       6.099   4.615  18.420  0.00  0.00    +0.000 A 
ENDBRANCH   7  10
BRANCH   2  18
ATOM     18  C   UNL     1       0.542   9.242  21.018  0.00  0.00    +0.000 A 
ATOM     19  C   UNL     1       0.374   9.096  22.398  0.00  0.00    +0.000 A 
ATOM     20  C   UNL     1      -0.361  10.045  23.117  0.00  0.00    +0.000 A 
ATOM     21  C   UNL     1      -0.925  11.155  22.472  0.00  0.00    +0.000 A 
ATOM     22  C   UNL     1      -0.823  11.227  21.075  0.00  0.00    +0.000 A 
ATOM     23  C   UNL     1      -0.081  10.296  20.350  0.00  0.00    +0.000 A 
BRANCH  21  24
ATOM     24  N   UNL     1      -1.646  12.111  23.224  0.00  0.00    +0.000 N 
ATOM     25  C   UNL     1      -1.356  13.495  23.339  0.00  0.00    +0.000 A 
ATOM     26  C   UNL     1      -2.242  14.293  24.039  0.00  0.00    +0.000 A 
ATOM     27  C   UNL     1      -1.952  15.640  24.097  0.00  0.00    +0.000 A 
ATOM     28  N   UNL     1      -0.881  16.196  23.508  0.00  0.00    +0.000 NA
ATOM     29  C   UNL     1      -0.090  15.345  22.849  0.00  0.00    +0.000 A 
ATOM     30  N   UNL     1      -0.273  14.024  22.742  0.00  0.00    +0.000 NA
ATOM     31  H   UNL     1      -1.943  11.740  24.120  0.00  0.00    +0.000 HD
ENDBRANCH  21  24
ENDBRANCH   2  18
TORSDOF 3
ENDMDL
MODEL 6
REMARK VINA RESULT:      -9.0      1.405      2.165
REMARK  Name = 
REMARK  3 active torsions:
REMARK  status: ('A' for Active; 'I' for Inactive)
REMARK    1  A    between atoms: C_2  and  C_17
REMARK    2  A    between atoms: C_7  and  C_8
REMARK    3  A    between atoms: C_20  and  N_21
REMARK                            x       y       z     vdW  Elec       q    Type
REMARK                         _______ _______ _______ _____ _____    ______ ____
ROOT
ATOM      1  O   UNL     1       1.742   8.631  19.197  0.00  0.00    +0.000 OA
ATOM      2  C   UNL     1       1.306   8.314  20.297  0.00  0.00    +0.000 C 
ATOM      3  N   UNL     1       1.434   7.102  20.932  0.00  0.00    +0.000 N 
ATOM      4  C   UNL     1       2.179   6.056  20.452  0.00  0.00    +0.000 A 
ATOM      5  N   UNL     1       2.072   4.854  21.018  0.00  0.00    +0.000 NA
ATOM      6  S   UNL     1       3.079   3.837  20.158  0.00  0.00    +0.000 S 
ATOM      7  C   UNL     1       3.656   5.091  19.135  0.00  0.00    +0.000 A 
ATOM      8  N   UNL     1       3.070   6.234  19.419  0.00  0.00    +0.000 NA
ATOM      9  H   UNL     1       0.881   6.874  21.745  0.00  0.00    +0.000 HD
ENDROOT
BRANCH   7  10
ATOM     10  C   UNL     1       4.685   4.917  18.101  0.00  0.00    +0.000 A 
ATOM     11  C   UNL     1       6.040   4.914  18.498  0.00  0.00    +0.000 A 
ATOM     12  C   UNL     1       7.071   4.734  17.569  0.00  0.00    +0.000 A 
ATOM     13  C   UNL     1       6.753   4.561  16.229  0.00  0.00    +0.000 A 
ATOM     14  F   UNL     1       7.735   4.385  15.336  0.00  0.00    +0.000 F 
ATOM     15  C   UNL     1       5.425   4.570  15.819  0.00  0.00    +0.000 A 
ATOM     16  F   UNL     1       5.119   4.405  14.524  0.00  0.00    +0.000 F 
ATOM     17  C   UNL     1       4.394   4.746  16.740  0.00  0.00    +0.000 A 
ENDBRANCH   7  10
BRANCH   2  18
ATOM     18  C   UNL     1       0.497   9.310  21.041  0.00  0.00    +0.000 A 
ATOM     19  C   UNL     1       0.318   9.153  22.419  0.00  0.00    +0.000 A 
ATOM     20  C   UNL     1      -0.410  10.103  23.142  0.00  0.00    +0.000 A 
ATOM     21  C   UNL     1      -0.958  11.225  22.503  0.00  0.00    +0.000 A 
ATOM     22  C   UNL     1      -0.846  11.309  21.108  0.00  0.00    +0.000 A 
ATOM     23  C   UNL     1      -0.109  10.377  20.379  0.00  0.00    +0.000 A 
BRANCH  21  24
ATOM     24  N   UNL     1      -1.673  12.183  23.260  0.00  0.00    +0.000 N 
ATOM     25  C   UNL     1      -1.377  13.565  23.378  0.00  0.00    +0.000 A 
ATOM     26  C   UNL     1      -2.258  14.366  24.082  0.00  0.00    +0.000 A 
ATOM     27  C   UNL     1      -1.962  15.711  24.142  0.00  0.00    +0.000 A 
ATOM     28  N   UNL     1      -0.890  16.264  23.552  0.00  0.00    +0.000 NA
ATOM     29  C   UNL     1      -0.104  15.412  22.888  0.00  0.00    +0.000 A 
ATOM     30  N   UNL     1      -0.293  14.091  22.779  0.00  0.00    +0.000 NA
ATOM     31  H   UNL     1      -1.969  11.811  24.156  0.00  0.00    +0.000 HD
ENDBRANCH  21  24
ENDBRANCH   2  18
TORSDOF 3
ENDMDL
MODEL 7
REMARK VINA RESULT:      -8.8      1.578      2.301
REMARK  Name = 
REMARK  3 active torsions:
REMARK  status: ('A' for Active; 'I' for Inactive)
REMARK    1  A    between atoms: C_2  and  C_17
REMARK    2  A    between atoms: C_7  and  C_8
REMARK    3  A    between atoms: C_20  and  N_21
REMARK                            x       y       z     vdW  Elec       q    Type
REMARK                         _______ _______ _______ _____ _____    ______ ____
ROOT
ATOM      1  O   UNL     1       1.904   8.595  18.811  0.00  0.00    +0.000 OA
ATOM      2  C   UNL     1       1.600   8.232  19.941  0.00  0.00    +0.000 C 
ATOM      3  N   UNL     1       1.873   7.025  20.537  0.00  0.00    +0.000 N 
ATOM      4  C   UNL     1       2.641   6.042  19.967  0.00  0.00    +0.000 A 
ATOM      5  N   UNL     1       2.674   4.828  20.515  0.00  0.00    +0.000 NA
ATOM      6  S   UNL     1       3.663   3.898  19.543  0.00  0.00    +0.000 S 
ATOM      7  C   UNL     1       4.049   5.204  18.495  0.00  0.00    +0.000 A 
ATOM      8  N   UNL     1       3.413   6.298  18.857  0.00  0.00    +0.000 NA
ATOM      9  H   UNL     1       1.419   6.747  21.393  0.00  0.00    +0.000 HD
ENDROOT
BRANCH   7  10
ATOM     10  C   UNL     1       4.984   5.119  17.365  0.00  0.00    +0.000 A 
ATOM     11  C   UNL     1       6.209   5.814  17.455  0.00  0.00    +0.000 A 
ATOM     12  C   UNL     1       7.153   5.761  16.424  0.00  0.00    +0.000 A 
ATOM     13  C   UNL     1       6.875   5.014  15.288  0.00  0.00    +0.000 A 
ATOM     14  F   UNL     1       7.776   4.958  14.299  0.00  0.00    +0.000 F 
ATOM     15  C   UNL     1       5.670   4.331  15.178  0.00  0.00    +0.000 A 
ATOM     16  F   UNL     1       5.402   3.612  14.080  0.00  0.00    +0.000 F 
ATOM     17  C   UNL     1       4.727   4.377  16.204  0.00  0.00    +0.000 A 
ENDBRANCH   7  10
BRANCH   2  18
ATOM     18  C   UNL     1       0.797   9.157  20.779  0.00  0.00    +0.000 A 
ATOM     19  C   UNL     1       0.091  10.196  20.166  0.00  0.00    +0.000 A 
ATOM     20  C   UNL     1      -0.701  11.053  20.938  0.00  0.00    +0.000 A 
ATOM     21  C   UNL     1      -0.806  10.878  22.325  0.00  0.00    +0.000 A 
ATOM     22  C   UNL     1      -0.013   9.890  22.927  0.00  0.00    +0.000 A 
ATOM     23  C   UNL     1       0.768   9.020  22.167  0.00  0.00    +0.000 A 
BRANCH  21  24
ATOM     24  N   UNL     1      -1.629  11.746  23.080  0.00  0.00    +0.000 N 
ATOM     25  C   UNL     1      -1.446  13.140  23.269  0.00  0.00    +0.000 A 
ATOM     26  C   UNL     1      -2.420  13.841  23.957  0.00  0.00    +0.000 A 
ATOM     27  C   UNL     1      -2.232  15.201  24.086  0.00  0.00    +0.000 A 
ATOM     28  N   UNL     1      -1.177  15.857  23.576  0.00  0.00    +0.000 NA
ATOM     29  C   UNL     1      -0.296  15.096  22.922  0.00  0.00    +0.000 A 
ATOM     30  N   UNL     1      -0.377  13.771  22.750  0.00  0.00    +0.000 NA
ATOM     31  H   UNL     1      -1.940  11.314  23.944  0.00  0.00    +0.000 HD
ENDBRANCH  21  24
ENDBRANCH   2  18
TORSDOF 3
ENDMDL
MODEL 8
REMARK VINA RESULT:      -8.7      1.961      2.581
REMARK  Name = 
REMARK  3 active torsions:
REMARK  status: ('A' for Active; 'I' for Inactive)
REMARK    1  A    between atoms: C_2  and  C_17
REMARK    2  A    between atoms: C_7  and  C_8
REMARK    3  A    between atoms: C_20  and  N_21
REMARK                            x       y       z     vdW  Elec       q    Type
REMARK                         _______ _______ _______ _____ _____    ______ ____
ROOT
ATOM      1  O   UNL     1       2.016   8.275  18.233  0.00  0.00    +0.000 OA
ATOM      2  C   UNL     1       1.880   7.996  19.419  0.00  0.00    +0.000 C 
ATOM      3  N   UNL     1       2.345   6.883  20.077  0.00  0.00    +0.000 N 
ATOM      4  C   UNL     1       3.144   5.928  19.504  0.00  0.00    +0.000 A 
ATOM      5  N   UNL     1       3.367   4.781  20.145  0.00  0.00    +0.000 NA
ATOM      6  S   UNL     1       4.334   3.860  19.143  0.00  0.00    +0.000 S 
ATOM      7  C   UNL     1       4.460   5.090  17.949  0.00  0.00    +0.000 A 
ATOM      8  N   UNL     1       3.756   6.148  18.291  0.00  0.00    +0.000 NA
ATOM      9  H   UNL     1       2.021   6.647  21.002  0.00  0.00    +0.000 HD
ENDROOT
BRANCH   7  10
ATOM     10  C   UNL     1       5.266   4.986  16.725  0.00  0.00    +0.000 A 
ATOM     11  C   UNL     1       6.598   5.453  16.758  0.00  0.00    +0.000 A 
ATOM     12  C   UNL     1       7.428   5.367  15.635  0.00  0.00    +0.000 A 
ATOM     13  C   UNL     1       6.927   4.816  14.463  0.00  0.00    +0.000 A 
ATOM     14  F   UNL     1       7.718   4.729  13.386  0.00  0.00    +0.000 F 
ATOM     15  C   UNL     1       5.616   4.360  14.410  0.00  0.00    +0.000 A 
ATOM     16  F   UNL     1       5.133   3.831  13.277  0.00  0.00    +0.000 F 
ATOM     17  C   UNL     1       4.786   4.440  15.527  0.00  0.00    +0.000 A 
ENDBRANCH   7  10
BRANCH   2  18
ATOM     18  C   UNL     1       1.083   8.917  20.266  0.00  0.00    +0.000 A 
ATOM     19  C   UNL     1       1.147   8.793  21.657  0.00  0.00    +0.000 A 
ATOM     20  C   UNL     1       0.432   9.677  22.471  0.00  0.00    +0.000 A 
ATOM     21  C   UNL     1      -0.346  10.700  21.910  0.00  0.00    +0.000 A 
ATOM     22  C   UNL     1      -0.469  10.743  20.513  0.00  0.00    +0.000 A 
ATOM     23  C   UNL     1       0.251   9.877  19.691  0.00  0.00    +0.000 A 
BRANCH  21  24
ATOM     24  N   UNL     1      -1.044  11.594  22.754  0.00  0.00    +0.000 N 
ATOM     25  C   UNL     1      -0.831  12.991  22.873  0.00  0.00    +0.000 A 
ATOM     26  C   UNL     1      -1.689  13.718  23.679  0.00  0.00    +0.000 A 
ATOM     27  C   UNL     1      -1.480  15.080  23.739  0.00  0.00    +0.000 A 
ATOM     28  N   UNL     1      -0.513  15.715  23.057  0.00  0.00    +0.000 NA
ATOM     29  C   UNL     1       0.258  14.929  22.300  0.00  0.00    +0.000 A 
ATOM     30  N   UNL     1       0.149  13.601  22.181  0.00  0.00    +0.000 NA
ATOM     31  H   UNL     1      -1.222  11.189  23.667  0.00  0.00    +0.000 HD
ENDBRANCH  21  24
ENDBRANCH   2  18
TORSDOF 3
ENDMDL
MODEL 9
REMARK VINA RESULT:      -8.7      2.452      2.692
REMARK  Name = 
REMARK  3 active torsions:
REMARK  status: ('A' for Active; 'I' for Inactive)
REMARK    1  A    between atoms: C_2  and  C_17
REMARK    2  A    between atoms: C_7  and  C_8
REMARK    3  A    between atoms: C_20  and  N_21
REMARK                            x       y       z     vdW  Elec       q    Type
REMARK                         _______ _______ _______ _____ _____    ______ ____
ROOT
ATOM      1  O   UNL     1       0.860   7.807  21.530  0.00  0.00    +0.000 OA
ATOM      2  C   UNL     1       0.754   8.816  20.844  0.00  0.00    +0.000 C 
ATOM      3  N   UNL     1       1.353   9.075  19.634  0.00  0.00    +0.000 N 
ATOM      4  C   UNL     1       2.110   8.167  18.942  0.00  0.00    +0.000 A 
ATOM      5  N   UNL     1       2.827   8.568  17.892  0.00  0.00    +0.000 NA
ATOM      6  S   UNL     1       3.641   7.222  17.333  0.00  0.00    +0.000 S 
ATOM      7  C   UNL     1       2.918   6.170  18.483  0.00  0.00    +0.000 A 
ATOM      8  N   UNL     1       2.114   6.835  19.285  0.00  0.00    +0.000 NA
ATOM      9  H   UNL     1       1.360  10.003  19.240  0.00  0.00    +0.000 HD
ENDROOT
BRANCH   7  10
ATOM     10  C   UNL     1       3.144   4.720  18.545  0.00  0.00    +0.000 A 
ATOM     11  C   UNL     1       2.564   3.907  17.547  0.00  0.00    +0.000 A 
ATOM     12  C   UNL     1       2.754   2.522  17.534  0.00  0.00    +0.000 A 
ATOM     13  C   UNL     1       3.524   1.934  18.528  0.00  0.00    +0.000 A 
ATOM     14  F   UNL     1       3.712   0.608  18.519  0.00  0.00    +0.000 F 
ATOM     15  C   UNL     1       4.096   2.717  19.524  0.00  0.00    +0.000 A 
ATOM     16  F   UNL     1       4.837   2.148  20.484  0.00  0.00    +0.000 F 
ATOM     17  C   UNL     1       3.912   4.098  19.539  0.00  0.00    +0.000 A 
ENDBRANCH   7  10
BRANCH   2  18
ATOM     18  C   UNL     1      -0.066   9.936  21.370  0.00  0.00    +0.000 A 
ATOM     19  C   UNL     1      -0.546   9.874  22.681  0.00  0.00    +0.000 A 
ATOM     20  C   UNL     1      -1.288  10.937  23.205  0.00  0.00    +0.000 A 
ATOM     21  C   UNL     1      -1.551  12.078  22.432  0.00  0.00    +0.000 A 
ATOM     22  C   UNL     1      -1.141  12.074  21.091  0.00  0.00    +0.000 A 
ATOM     23  C   UNL     1      -0.387  11.027  20.563  0.00  0.00    +0.000 A 
BRANCH  21  24
ATOM     24  N   UNL     1      -2.286  13.149  22.991  0.00  0.00    +0.000 N 
ATOM     25  C   UNL     1      -3.688  13.350  22.908  0.00  0.00    +0.000 A 
ATOM     26  C   UNL     1      -4.240  14.405  23.613  0.00  0.00    +0.000 A 
ATOM     27  C   UNL     1      -5.610  14.548  23.544  0.00  0.00    +0.000 A 
ATOM     28  N   UNL     1      -6.410  13.722  22.852  0.00  0.00    +0.000 NA
ATOM     29  C   UNL     1      -5.785  12.729  22.212  0.00  0.00    +0.000 A 
ATOM     30  N   UNL     1      -4.465  12.509  22.203  0.00  0.00    +0.000 NA
ATOM     31  H   UNL     1      -1.799  14.033  22.892  0.00  0.00    +0.000 HD
ENDBRANCH  21  24
ENDBRANCH   2  18
TORSDOF 3
ENDMDL
