MODEL 1
REMARK VINA RESULT:      -5.7      0.000      0.000
REMARK  Name = 
REMARK  7 active torsions:
REMARK  status: ('A' for Active; 'I' for Inactive)
REMARK    1  A    between atoms: C_1  and  S_2
REMARK    2  A    between atoms: S_2  and  C_3
REMARK    3  A    between atoms: C_3  and  S_13
REMARK    4  A    between atoms: C_4  and  C_5
REMARK    5  A    between atoms: C_9  and  C_10
REMARK    6  A    between atoms: N_11  and  C_12
REMARK    7  A    between atoms: S_13  and  C_14
REMARK                            x       y       z     vdW  Elec       q    Type
REMARK                         _______ _______ _______ _____ _____    ______ ____
ROOT
ATOM      1  C   UNL     1       3.718   4.701  18.771  0.00  0.00    +0.000 A 
ATOM      2  C   UNL     1       3.139   5.970  18.866  0.00  0.00    +0.000 A 
ATOM      3  C   UNL     1       2.210   6.236  19.857  0.00  0.00    +0.000 A 
ATOM      4  C   UNL     1       1.856   5.221  20.730  0.00  0.00    +0.000 A 
ATOM      5  C   UNL     1       2.451   3.953  20.634  0.00  0.00    +0.000 A 
ATOM      6  C   UNL     1       2.005   2.876  21.587  0.00  0.00    +0.000 C 
ATOM      7  N   UNL     1       3.396   3.723  19.673  0.00  0.00    +0.000 N 
ATOM      8  C   UNL     1       4.122   2.427  19.611  0.00  0.00    +0.000 C 
ENDROOT
BRANCH   1  10
ATOM      9  C   UNL     1       5.972   4.693  17.690  0.00  0.00    +0.000 C 
ATOM     10  C   UNL     1       4.648   4.436  17.664  0.00  0.00    +0.000 C 
BRANCH   9  12
ATOM     11  C   UNL     1       7.741   6.741  18.222  0.00  0.00    +0.000 C 
ATOM     12  S   UNL     1       6.729   5.490  19.046  0.00  0.00    +0.000 S 
ENDBRANCH   9  12
BRANCH   9  13
ATOM     13  S   UNL     1       6.871   4.558  16.203  0.00  0.00    +0.000 S 
ATOM     14  C   UNL     1       5.559   4.345  14.982  0.00  0.00    +0.000 C 
ENDBRANCH   9  13
ENDBRANCH   1  10
TORSDOF 3
ENDMDL
MODEL 2
REMARK VINA RESULT:      -5.6      1.666      2.364
REMARK  Name = 
REMARK  7 active torsions:
REMARK  status: ('A' for Active; 'I' for Inactive)
REMARK    1  A    between atoms: C_1  and  S_2
REMARK    2  A    between atoms: S_2  and  C_3
REMARK    3  A    between atoms: C_3  and  S_13
REMARK    4  A    between atoms: C_4  and  C_5
REMARK    5  A    between atoms: C_9  and  C_10
REMARK    6  A    between atoms: N_11  and  C_12
REMARK    7  A    between atoms: S_13  and  C_14
REMARK                            x       y       z     vdW  Elec       q    Type
REMARK                         _______ _______ _______ _____ _____    ______ ____
ROOT
ATOM      1  C   UNL     1       3.594   4.207  19.560  0.00  0.00    +0.000 A 
ATOM      2  C   UNL     1       3.003   5.191  20.359  0.00  0.00    +0.000 A 
ATOM      3  C   UNL     1       1.650   5.133  20.645  0.00  0.00    +0.000 A 
ATOM      4  C   UNL     1       0.898   4.100  20.109  0.00  0.00    +0.000 A 
ATOM      5  C   UNL     1       1.502   3.111  19.317  0.00  0.00    +0.000 A 
ATOM      6  C   UNL     1       0.633   2.030  18.732  0.00  0.00    +0.000 C 
ATOM      7  N   UNL     1       2.848   3.165  19.080  0.00  0.00    +0.000 N 
ATOM      8  C   UNL     1       3.536   2.077  18.337  0.00  0.00    +0.000 C 
ENDROOT
BRANCH   1  10
ATOM      9  C   UNL     1       5.507   5.101  18.223  0.00  0.00    +0.000 C 
ATOM     10  C   UNL     1       5.018   4.340  19.223  0.00  0.00    +0.000 C 
BRANCH   9  12
ATOM     11  C   UNL     1       5.395   5.867  15.576  0.00  0.00    +0.000 C 
ATOM     12  S   UNL     1       4.460   5.957  17.120  0.00  0.00    +0.000 S 
ENDBRANCH   9  12
BRANCH   9  13
ATOM     13  S   UNL     1       7.191   4.935  17.804  0.00  0.00    +0.000 S 
ATOM     14  C   UNL     1       7.972   6.167  18.867  0.00  0.00    +0.000 C 
ENDBRANCH   9  13
ENDBRANCH   1  10
TORSDOF 3
ENDMDL
MODEL 3
REMARK VINA RESULT:      -5.6      2.310      5.303
REMARK  Name = 
REMARK  7 active torsions:
REMARK  status: ('A' for Active; 'I' for Inactive)
REMARK    1  A    between atoms: C_1  and  S_2
REMARK    2  A    between atoms: S_2  and  C_3
REMARK    3  A    between atoms: C_3  and  S_13
REMARK    4  A    between atoms: C_4  and  C_5
REMARK    5  A    between atoms: C_9  and  C_10
REMARK    6  A    between atoms: N_11  and  C_12
REMARK    7  A    between atoms: S_13  and  C_14
REMARK                            x       y       z     vdW  Elec       q    Type
REMARK                         _______ _______ _______ _____ _____    ______ ____
ROOT
ATOM      1  C   UNL     1       5.161   5.034  18.606  0.00  0.00    +0.000 A 
ATOM      2  C   UNL     1       6.318   5.380  19.311  0.00  0.00    +0.000 A 
ATOM      3  C   UNL     1       7.554   5.314  18.692  0.00  0.00    +0.000 A 
ATOM      4  C   UNL     1       7.620   4.883  17.377  0.00  0.00    +0.000 A 
ATOM      5  C   UNL     1       6.452   4.549  16.674  0.00  0.00    +0.000 A 
ATOM      6  C   UNL     1       6.584   4.054  15.258  0.00  0.00    +0.000 C 
ATOM      7  N   UNL     1       5.238   4.659  17.292  0.00  0.00    +0.000 N 
ATOM      8  C   UNL     1       3.976   4.416  16.544  0.00  0.00    +0.000 C 
ENDROOT
BRANCH   1  10
ATOM      9  C   UNL     1       3.349   4.004  19.985  0.00  0.00    +0.000 C 
ATOM     10  C   UNL     1       3.875   5.051  19.317  0.00  0.00    +0.000 C 
BRANCH   9  12
ATOM     11  C   UNL     1       3.335   1.638  18.568  0.00  0.00    +0.000 C 
ATOM     12  S   UNL     1       4.114   2.435  19.991  0.00  0.00    +0.000 S 
ENDBRANCH   9  12
BRANCH   9  13
ATOM     13  S   UNL     1       1.702   4.123  20.546  0.00  0.00    +0.000 S 
ATOM     14  C   UNL     1       1.571   2.700  21.647  0.00  0.00    +0.000 C 
ENDBRANCH   9  13
ENDBRANCH   1  10
TORSDOF 3
ENDMDL
MODEL 4
REMARK VINA RESULT:      -5.4      2.548      5.221
REMARK  Name = 
REMARK  7 active torsions:
REMARK  status: ('A' for Active; 'I' for Inactive)
REMARK    1  A    between atoms: C_1  and  S_2
REMARK    2  A    between atoms: S_2  and  C_3
REMARK    3  A    between atoms: C_3  and  S_13
REMARK    4  A    between atoms: C_4  and  C_5
REMARK    5  A    between atoms: C_9  and  C_10
REMARK    6  A    between atoms: N_11  and  C_12
REMARK    7  A    between atoms: S_13  and  C_14
REMARK                            x       y       z     vdW  Elec       q    Type
REMARK                         _______ _______ _______ _____ _____    ______ ____
ROOT
ATOM      1  C   UNL     1       4.504   4.413  17.179  0.00  0.00    +0.000 A 
ATOM      2  C   UNL     1       4.822   3.925  15.907  0.00  0.00    +0.000 A 
ATOM      3  C   UNL     1       6.075   4.158  15.368  0.00  0.00    +0.000 A 
ATOM      4  C   UNL     1       6.990   4.895  16.101  0.00  0.00    +0.000 A 
ATOM      5  C   UNL     1       6.666   5.371  17.381  0.00  0.00    +0.000 A 
ATOM      6  C   UNL     1       7.686   6.196  18.120  0.00  0.00    +0.000 C 
ATOM      7  N   UNL     1       5.436   5.096  17.911  0.00  0.00    +0.000 N 
ATOM      8  C   UNL     1       5.100   5.492  19.304  0.00  0.00    +0.000 C 
ENDROOT
BRANCH   1  10
ATOM      9  C   UNL     1       2.722   3.101  18.341  0.00  0.00    +0.000 C 
ATOM     10  C   UNL     1       3.141   4.204  17.689  0.00  0.00    +0.000 C 
BRANCH   9  12
ATOM     11  C   UNL     1       4.438   2.023  20.212  0.00  0.00    +0.000 C 
ATOM     12  S   UNL     1       3.757   1.714  18.566  0.00  0.00    +0.000 S 
ENDBRANCH   9  12
BRANCH   9  13
ATOM     13  S   UNL     1       1.014   2.917  18.643  0.00  0.00    +0.000 S 
ATOM     14  C   UNL     1       0.829   3.684  20.266  0.00  0.00    +0.000 C 
ENDBRANCH   9  13
ENDBRANCH   1  10
TORSDOF 3
ENDMDL
MODEL 5
REMARK VINA RESULT:      -5.4      1.612      1.711
REMARK  Name = 
REMARK  7 active torsions:
REMARK  status: ('A' for Active; 'I' for Inactive)
REMARK    1  A    between atoms: C_1  and  S_2
REMARK    2  A    between atoms: S_2  and  C_3
REMARK    3  A    between atoms: C_3  and  S_13
REMARK    4  A    between atoms: C_4  and  C_5
REMARK    5  A    between atoms: C_9  and  C_10
REMARK    6  A    between atoms: N_11  and  C_12
REMARK    7  A    between atoms: S_13  and  C_14
REMARK                            x       y       z     vdW  Elec       q    Type
REMARK                         _______ _______ _______ _____ _____    ______ ____
ROOT
ATOM      1  C   UNL     1       2.945   5.195  18.589  0.00  0.00    +0.000 A 
ATOM      2  C   UNL     1       2.642   5.970  19.713  0.00  0.00    +0.000 A 
ATOM      3  C   UNL     1       1.695   5.533  20.622  0.00  0.00    +0.000 A 
ATOM      4  C   UNL     1       1.047   4.332  20.385  0.00  0.00    +0.000 A 
ATOM      5  C   UNL     1       1.366   3.555  19.261  0.00  0.00    +0.000 A 
ATOM      6  C   UNL     1       0.607   2.275  19.033  0.00  0.00    +0.000 C 
ATOM      7  N   UNL     1       2.333   3.987  18.396  0.00  0.00    +0.000 N 
ATOM      8  C   UNL     1       2.770   3.139  17.255  0.00  0.00    +0.000 C 
ENDROOT
BRANCH   1  10
ATOM      9  C   UNL     1       5.246   5.612  17.706  0.00  0.00    +0.000 C 
ATOM     10  C   UNL     1       3.906   5.724  17.610  0.00  0.00    +0.000 C 
BRANCH   9  12
ATOM     11  C   UNL     1       7.586   5.785  19.156  0.00  0.00    +0.000 C 
ATOM     12  S   UNL     1       6.014   4.894  19.099  0.00  0.00    +0.000 S 
ENDBRANCH   9  12
BRANCH   9  13
ATOM     13  S   UNL     1       6.235   6.522  16.594  0.00  0.00    +0.000 S 
ATOM     14  C   UNL     1       6.876   5.230  15.509  0.00  0.00    +0.000 C 
ENDBRANCH   9  13
ENDBRANCH   1  10
TORSDOF 3
ENDMDL
MODEL 6
REMARK VINA RESULT:      -5.4      1.296      1.553
REMARK  Name = 
REMARK  7 active torsions:
REMARK  status: ('A' for Active; 'I' for Inactive)
REMARK    1  A    between atoms: C_1  and  S_2
REMARK    2  A    between atoms: S_2  and  C_3
REMARK    3  A    between atoms: C_3  and  S_13
REMARK    4  A    between atoms: C_4  and  C_5
REMARK    5  A    between atoms: C_9  and  C_10
REMARK    6  A    between atoms: N_11  and  C_12
REMARK    7  A    between atoms: S_13  and  C_14
REMARK                            x       y       z     vdW  Elec       q    Type
REMARK                         _______ _______ _______ _____ _____    ______ ____
ROOT
ATOM      1  C   UNL     1       4.065   5.692  17.795  0.00  0.00    +0.000 A 
ATOM      2  C   UNL     1       3.562   6.981  17.591  0.00  0.00    +0.000 A 
ATOM      3  C   UNL     1       2.677   7.533  18.501  0.00  0.00    +0.000 A 
ATOM      4  C   UNL     1       2.291   6.779  19.597  0.00  0.00    +0.000 A 
ATOM      5  C   UNL     1       2.810   5.491  19.800  0.00  0.00    +0.000 A 
ATOM      6  C   UNL     1       2.330   4.702  20.989  0.00  0.00    +0.000 C 
ATOM      7  N   UNL     1       3.713   4.980  18.910  0.00  0.00    +0.000 N 
ATOM      8  C   UNL     1       4.362   3.665  19.152  0.00  0.00    +0.000 C 
ENDROOT
BRANCH   1  10
ATOM      9  C   UNL     1       6.250   5.425  16.612  0.00  0.00    +0.000 C 
ATOM     10  C   UNL     1       4.948   5.114  16.773  0.00  0.00    +0.000 C 
BRANCH   9  12
ATOM     11  C   UNL     1       7.638   5.716  18.977  0.00  0.00    +0.000 C 
ATOM     12  S   UNL     1       7.026   6.664  17.565  0.00  0.00    +0.000 S 
ENDBRANCH   9  12
BRANCH   9  13
ATOM     13  S   UNL     1       7.072   4.839  15.190  0.00  0.00    +0.000 S 
ATOM     14  C   UNL     1       5.712   4.160  14.216  0.00  0.00    +0.000 C 
ENDBRANCH   9  13
ENDBRANCH   1  10
TORSDOF 3
ENDMDL
MODEL 7
REMARK VINA RESULT:      -5.4      2.367      5.223
REMARK  Name = 
REMARK  7 active torsions:
REMARK  status: ('A' for Active; 'I' for Inactive)
REMARK    1  A    between atoms: C_1  and  S_2
REMARK    2  A    between atoms: S_2  and  C_3
REMARK    3  A    between atoms: C_3  and  S_13
REMARK    4  A    between atoms: C_4  and  C_5
REMARK    5  A    between atoms: C_9  and  C_10
REMARK    6  A    between atoms: N_11  and  C_12
REMARK    7  A    between atoms: S_13  and  C_14
REMARK                            x       y       z     vdW  Elec       q    Type
REMARK                         _______ _______ _______ _____ _____    ______ ____
ROOT
ATOM      1  C   UNL     1       5.256   4.171  17.569  0.00  0.00    +0.000 A 
ATOM      2  C   UNL     1       5.097   3.835  16.220  0.00  0.00    +0.000 A 
ATOM      3  C   UNL     1       5.753   4.561  15.242  0.00  0.00    +0.000 A 
ATOM      4  C   UNL     1       6.547   5.630  15.624  0.00  0.00    +0.000 A 
ATOM      5  C   UNL     1       6.710   5.952  16.980  0.00  0.00    +0.000 A 
ATOM      6  C   UNL     1       7.558   7.145  17.338  0.00  0.00    +0.000 C 
ATOM      7  N   UNL     1       6.084   5.198  17.933  0.00  0.00    +0.000 N 
ATOM      8  C   UNL     1       6.321   5.446  19.379  0.00  0.00    +0.000 C 
ENDROOT
BRANCH   1  10
ATOM      9  C   UNL     1       3.216   3.685  18.928  0.00  0.00    +0.000 C 
ATOM     10  C   UNL     1       4.490   3.421  18.574  0.00  0.00    +0.000 C 
BRANCH   9  12
ATOM     11  C   UNL     1       2.688   6.326  19.522  0.00  0.00    +0.000 C 
ATOM     12  S   UNL     1       2.345   5.053  18.284  0.00  0.00    +0.000 S 
ENDBRANCH   9  12
BRANCH   9  13
ATOM     13  S   UNL     1       2.555   2.862  20.316  0.00  0.00    +0.000 S 
ATOM     14  C   UNL     1       0.783   3.135  20.114  0.00  0.00    +0.000 C 
ENDBRANCH   9  13
ENDBRANCH   1  10
TORSDOF 3
ENDMDL
MODEL 8
REMARK VINA RESULT:      -5.3      1.656      2.959
REMARK  Name = 
REMARK  7 active torsions:
REMARK  status: ('A' for Active; 'I' for Inactive)
REMARK    1  A    between atoms: C_1  and  S_2
REMARK    2  A    between atoms: S_2  and  C_3
REMARK    3  A    between atoms: C_3  and  S_13
REMARK    4  A    between atoms: C_4  and  C_5
REMARK    5  A    between atoms: C_9  and  C_10
REMARK    6  A    between atoms: N_11  and  C_12
REMARK    7  A    between atoms: S_13  and  C_14
REMARK                            x       y       z     vdW  Elec       q    Type
REMARK                         _______ _______ _______ _____ _____    ______ ____
ROOT
ATOM      1  C   UNL     1       4.144   3.847  18.641  0.00  0.00    +0.000 A 
ATOM      2  C   UNL     1       4.063   2.791  17.728  0.00  0.00    +0.000 A 
ATOM      3  C   UNL     1       2.882   2.084  17.586  0.00  0.00    +0.000 A 
ATOM      4  C   UNL     1       1.798   2.432  18.376  0.00  0.00    +0.000 A 
ATOM      5  C   UNL     1       1.885   3.500  19.282  0.00  0.00    +0.000 A 
ATOM      6  C   UNL     1       0.688   3.813  20.140  0.00  0.00    +0.000 C 
ATOM      7  N   UNL     1       3.049   4.210  19.378  0.00  0.00    +0.000 N 
ATOM      8  C   UNL     1       3.140   5.413  20.247  0.00  0.00    +0.000 C 
ENDROOT
BRANCH   1  10
ATOM      9  C   UNL     1       5.847   5.593  18.094  0.00  0.00    +0.000 C 
ATOM     10  C   UNL     1       5.434   4.529  18.813  0.00  0.00    +0.000 C 
BRANCH   9  12
ATOM     11  C   UNL     1       5.582   5.322  15.362  0.00  0.00    +0.000 C 
ATOM     12  S   UNL     1       4.905   6.232  16.771  0.00  0.00    +0.000 S 
ENDBRANCH   9  12
BRANCH   9  13
ATOM     13  S   UNL     1       7.505   6.108  18.254  0.00  0.00    +0.000 S 
ATOM     14  C   UNL     1       7.470   7.747  17.501  0.00  0.00    +0.000 C 
ENDBRANCH   9  13
ENDBRANCH   1  10
TORSDOF 3
ENDMDL
MODEL 9
REMARK VINA RESULT:      -5.3      1.228      2.350
REMARK  Name = 
REMARK  7 active torsions:
REMARK  status: ('A' for Active; 'I' for Inactive)
REMARK    1  A    between atoms: C_1  and  S_2
REMARK    2  A    between atoms: S_2  and  C_3
REMARK    3  A    between atoms: C_3  and  S_13
REMARK    4  A    between atoms: C_4  and  C_5
REMARK    5  A    between atoms: C_9  and  C_10
REMARK    6  A    between atoms: N_11  and  C_12
REMARK    7  A    between atoms: S_13  and  C_14
REMARK                            x       y       z     vdW  Elec       q    Type
REMARK                         _______ _______ _______ _____ _____    ______ ____
ROOT
ATOM      1  C   UNL     1       3.743   3.733  17.649  0.00  0.00    +0.000 A 
ATOM      2  C   UNL     1       3.579   2.383  17.976  0.00  0.00    +0.000 A 
ATOM      3  C   UNL     1       2.836   2.024  19.087  0.00  0.00    +0.000 A 
ATOM      4  C   UNL     1       2.281   3.023  19.870  0.00  0.00    +0.000 A 
ATOM      5  C   UNL     1       2.442   4.374  19.528  0.00  0.00    +0.000 A 
ATOM      6  C   UNL     1       1.847   5.420  20.433  0.00  0.00    +0.000 C 
ATOM      7  N   UNL     1       3.147   4.706  18.404  0.00  0.00    +0.000 N 
ATOM      8  C   UNL     1       3.245   6.120  17.955  0.00  0.00    +0.000 C 
ENDROOT
BRANCH   1  10
ATOM      9  C   UNL     1       5.892   4.440  16.586  0.00  0.00    +0.000 C 
ATOM     10  C   UNL     1       4.596   4.078  16.503  0.00  0.00    +0.000 C 
BRANCH   9  12
ATOM     11  C   UNL     1       7.374   6.312  17.967  0.00  0.00    +0.000 C 
ATOM     12  S   UNL     1       6.695   4.643  18.122  0.00  0.00    +0.000 S 
ENDBRANCH   9  12
BRANCH   9  13
ATOM     13  S   UNL     1       6.671   5.063  15.156  0.00  0.00    +0.000 S 
ATOM     14  C   UNL     1       6.104   3.917  13.883  0.00  0.00    +0.000 C 
ENDBRANCH   9  13
ENDBRANCH   1  10
TORSDOF 3
ENDMDL
