MODEL 1
REMARK VINA RESULT:      -9.4      0.000      0.000
REMARK  Name = 
REMARK  6 active torsions:
REMARK  status: ('A' for Active; 'I' for Inactive)
REMARK    1  A    between atoms: C_1  and  C_2
REMARK    2  A    between atoms: C_11  and  C_12
REMARK    3  A    between atoms: C_15  and  N_16
REMARK    4  A    between atoms: C_17  and  O_18
REMARK    5  A    between atoms: O_18  and  C_19
REMARK    6  A    between atoms: C_24  and  C_25
REMARK                            x       y       z     vdW  Elec       q    Type
REMARK                         _______ _______ _______ _____ _____    ______ ____
ROOT
ATOM      1  C   UNL     1       1.400  13.503  21.178  0.00  0.00    +0.000 C 
ATOM      2  C   UNL     1       1.249  12.766  19.876  0.00  0.00    +0.000 C 
ATOM      3  O   UNL     1       2.002  12.958  18.924  0.00  0.00    +0.000 OA
ATOM      4  N   UNL     1       0.255  11.836  19.858  0.00  0.00    +0.000 N 
ATOM      5  C   UNL     1      -0.737  11.415  20.826  0.00  0.00    +0.000 C 
ATOM      6  C   UNL     1      -0.655  10.034  20.163  0.00  0.00    +0.000 C 
ATOM      7  C   UNL     1       0.362   9.064  20.751  0.00  0.00    +0.000 C 
ATOM      8  N   UNL     1       1.299   8.810  19.674  0.00  0.00    +0.000 N 
ATOM      9  C   UNL     1       1.947   7.604  19.562  0.00  0.00    +0.000 A 
ATOM     10  C   UNL     1       2.884   7.379  18.578  0.00  0.00    +0.000 A 
ATOM     11  C   UNL     1       3.495   6.141  18.527  0.00  0.00    +0.000 A 
ATOM     12  N   UNL     1       3.170   5.158  19.382  0.00  0.00    +0.000 NA
ATOM     13  C   UNL     1       2.254   5.433  20.325  0.00  0.00    +0.000 A 
ATOM     14  N   UNL     1       1.651   6.631  20.442  0.00  0.00    +0.000 NA
ATOM     15  C   UNL     1       1.249   9.840  18.638  0.00  0.00    +0.000 C 
ATOM     16  C   UNL     1       0.032  10.707  18.959  0.00  0.00    +0.000 C 
ENDROOT
BRANCH  11  17
ATOM     17  C   UNL     1       4.566   5.820  17.574  0.00  0.00    +0.000 A 
ATOM     18  C   UNL     1       4.472   4.762  16.678  0.00  0.00    +0.000 A 
ATOM     19  N   UNL     1       5.442   4.400  15.796  0.00  0.00    +0.000 NA
ATOM     20  C   UNL     1       6.571   5.132  15.776  0.00  0.00    +0.000 A 
ATOM     21  C   UNL     1       6.770   6.232  16.610  0.00  0.00    +0.000 A 
ATOM     22  C   UNL     1       5.763   6.542  17.527  0.00  0.00    +0.000 A 
BRANCH  20  23
ATOM     23  N   UNL     1       7.513   4.689  14.844  0.00  0.00    +0.000 N 
ATOM     24  H   UNL     1       7.634   3.696  15.050  0.00  0.00    +0.000 HD
ATOM     25  H   UNL     1       7.125   4.782  13.907  0.00  0.00    +0.000 HD
ENDBRANCH  20  23
BRANCH  21  26
ATOM     26  O   UNL     1       7.843   7.067  16.704  0.00  0.00    +0.000 OA
BRANCH  26  27
ATOM     27  C   UNL     1       7.898   7.962  17.799  0.00  0.00    +0.000 C 
ATOM     28  F   UNL     1       8.702   7.468  18.774  0.00  0.00    +0.000 F 
ATOM     29  F   UNL     1       8.517   9.085  17.343  0.00  0.00    +0.000 F 
ENDBRANCH  26  27
ENDBRANCH  21  26
ENDBRANCH  11  17
BRANCH  13  30
ATOM     30  C   UNL     1       1.912   4.344  21.312  0.00  0.00    +0.000 C 
ATOM     31  C   UNL     1       1.176   3.100  20.872  0.00  0.00    +0.000 C 
ATOM     32  C   UNL     1       2.627   3.011  21.241  0.00  0.00    +0.000 C 
ENDBRANCH  13  30
TORSDOF 5
ENDMDL
MODEL 2
REMARK VINA RESULT:      -9.2      2.597      2.937
REMARK  Name = 
REMARK  6 active torsions:
REMARK  status: ('A' for Active; 'I' for Inactive)
REMARK    1  A    between atoms: C_1  and  C_2
REMARK    2  A    between atoms: C_11  and  C_12
REMARK    3  A    between atoms: C_15  and  N_16
REMARK    4  A    between atoms: C_17  and  O_18
REMARK    5  A    between atoms: O_18  and  C_19
REMARK    6  A    between atoms: C_24  and  C_25
REMARK                            x       y       z     vdW  Elec       q    Type
REMARK                         _______ _______ _______ _____ _____    ______ ____
ROOT
ATOM      1  C   UNL     1       1.984  13.321  20.775  0.00  0.00    +0.000 C 
ATOM      2  C   UNL     1       1.805  12.627  19.453  0.00  0.00    +0.000 C 
ATOM      3  O   UNL     1       2.542  12.842  18.496  0.00  0.00    +0.000 OA
ATOM      4  N   UNL     1       0.802  11.706  19.425  0.00  0.00    +0.000 N 
ATOM      5  C   UNL     1      -0.177  11.263  20.396  0.00  0.00    +0.000 C 
ATOM      6  C   UNL     1      -0.119   9.903  19.690  0.00  0.00    +0.000 C 
ATOM      7  C   UNL     1       0.900   8.906  20.229  0.00  0.00    +0.000 C 
ATOM      8  N   UNL     1       1.816   8.678  19.129  0.00  0.00    +0.000 N 
ATOM      9  C   UNL     1       2.450   7.471  18.969  0.00  0.00    +0.000 A 
ATOM     10  C   UNL     1       3.369   7.269  17.962  0.00  0.00    +0.000 A 
ATOM     11  C   UNL     1       3.968   6.028  17.862  0.00  0.00    +0.000 A 
ATOM     12  N   UNL     1       3.649   5.022  18.692  0.00  0.00    +0.000 NA
ATOM     13  C   UNL     1       2.752   5.275  19.659  0.00  0.00    +0.000 A 
ATOM     14  N   UNL     1       2.161   6.474  19.823  0.00  0.00    +0.000 NA
ATOM     15  C   UNL     1       1.757   9.740  18.126  0.00  0.00    +0.000 C 
ATOM     16  C   UNL     1       0.553  10.608  18.495  0.00  0.00    +0.000 C 
ENDROOT
BRANCH  11  17
ATOM     17  C   UNL     1       5.019   5.728  16.882  0.00  0.00    +0.000 A 
ATOM     18  C   UNL     1       6.232   6.407  16.860  0.00  0.00    +0.000 A 
ATOM     19  N   UNL     1       7.228   6.194  15.959  0.00  0.00    +0.000 NA
ATOM     20  C   UNL     1       7.034   5.242  15.028  0.00  0.00    +0.000 A 
ATOM     21  C   UNL     1       5.868   4.478  14.965  0.00  0.00    +0.000 A 
ATOM     22  C   UNL     1       4.857   4.759  15.886  0.00  0.00    +0.000 A 
BRANCH  20  23
ATOM     23  N   UNL     1       8.104   5.092  14.143  0.00  0.00    +0.000 N 
ATOM     24  H   UNL     1       8.311   6.039  13.824  0.00  0.00    +0.000 HD
ATOM     25  H   UNL     1       8.911   4.735  14.653  0.00  0.00    +0.000 HD
ENDBRANCH  20  23
BRANCH  21  26
ATOM     26  O   UNL     1       5.528   3.484  14.097  0.00  0.00    +0.000 OA
BRANCH  26  27
ATOM     27  C   UNL     1       5.644   3.741  12.710  0.00  0.00    +0.000 C 
ATOM     28  F   UNL     1       6.469   2.834  12.128  0.00  0.00    +0.000 F 
ATOM     29  F   UNL     1       4.413   3.517  12.176  0.00  0.00    +0.000 F 
ENDBRANCH  26  27
ENDBRANCH  21  26
ENDBRANCH  11  17
BRANCH  13  30
ATOM     30  C   UNL     1       2.417   4.159  20.618  0.00  0.00    +0.000 C 
ATOM     31  C   UNL     1       1.070   3.476  20.574  0.00  0.00    +0.000 C 
ATOM     32  C   UNL     1       2.289   2.739  20.106  0.00  0.00    +0.000 C 
ENDBRANCH  13  30
TORSDOF 5
ENDMDL
MODEL 3
REMARK VINA RESULT:      -8.3      1.125      1.344
REMARK  Name = 
REMARK  6 active torsions:
REMARK  status: ('A' for Active; 'I' for Inactive)
REMARK    1  A    between atoms: C_1  and  C_2
REMARK    2  A    between atoms: C_11  and  C_12
REMARK    3  A    between atoms: C_15  and  N_16
REMARK    4  A    between atoms: C_17  and  O_18
REMARK    5  A    between atoms: O_18  and  C_19
REMARK    6  A    between atoms: C_24  and  C_25
REMARK                            x       y       z     vdW  Elec       q    Type
REMARK                         _______ _______ _______ _____ _____    ______ ____
ROOT
ATOM      1  C   UNL     1       1.286  13.820  21.362  0.00  0.00    +0.000 C 
ATOM      2  C   UNL     1       1.271  13.167  20.008  0.00  0.00    +0.000 C 
ATOM      3  O   UNL     1       2.150  13.367  19.175  0.00  0.00    +0.000 OA
ATOM      4  N   UNL     1       0.241  12.299  19.805  0.00  0.00    +0.000 N 
ATOM      5  C   UNL     1      -0.890  11.884  20.608  0.00  0.00    +0.000 C 
ATOM      6  C   UNL     1      -0.792  10.539  19.876  0.00  0.00    +0.000 C 
ATOM      7  C   UNL     1       0.088   9.480  20.527  0.00  0.00    +0.000 C 
ATOM      8  N   UNL     1       1.145   9.232  19.566  0.00  0.00    +0.000 N 
ATOM      9  C   UNL     1       1.739   7.998  19.463  0.00  0.00    +0.000 A 
ATOM     10  C   UNL     1       2.785   7.774  18.595  0.00  0.00    +0.000 A 
ATOM     11  C   UNL     1       3.333   6.507  18.545  0.00  0.00    +0.000 A 
ATOM     12  N   UNL     1       2.849   5.498  19.288  0.00  0.00    +0.000 NA
ATOM     13  C   UNL     1       1.832   5.773  20.121  0.00  0.00    +0.000 A 
ATOM     14  N   UNL     1       1.280   6.997  20.234  0.00  0.00    +0.000 NA
ATOM     15  C   UNL     1       1.284  10.319  18.599  0.00  0.00    +0.000 C 
ATOM     16  C   UNL     1       0.081  11.237  18.815  0.00  0.00    +0.000 C 
ENDROOT
BRANCH  11  17
ATOM     17  C   UNL     1       4.502   6.177  17.720  0.00  0.00    +0.000 A 
ATOM     18  C   UNL     1       4.541   6.422  16.352  0.00  0.00    +0.000 A 
ATOM     19  N   UNL     1       5.581   6.111  15.534  0.00  0.00    +0.000 NA
ATOM     20  C   UNL     1       6.664   5.539  16.091  0.00  0.00    +0.000 A 
ATOM     21  C   UNL     1       6.752   5.267  17.457  0.00  0.00    +0.000 A 
ATOM     22  C   UNL     1       5.644   5.567  18.252  0.00  0.00    +0.000 A 
BRANCH  20  23
ATOM     23  N   UNL     1       7.682   5.250  15.180  0.00  0.00    +0.000 N 
ATOM     24  H   UNL     1       7.307   4.496  14.603  0.00  0.00    +0.000 HD
ATOM     25  H   UNL     1       7.840   6.065  14.588  0.00  0.00    +0.000 HD
ENDBRANCH  20  23
BRANCH  21  26
ATOM     26  O   UNL     1       7.770   4.703  18.166  0.00  0.00    +0.000 OA
BRANCH  26  27
ATOM     27  C   UNL     1       8.424   5.496  19.140  0.00  0.00    +0.000 C 
ATOM     28  F   UNL     1       8.413   6.802  18.773  0.00  0.00    +0.000 F 
ATOM     29  F   UNL     1       7.661   5.422  20.265  0.00  0.00    +0.000 F 
ENDBRANCH  26  27
ENDBRANCH  21  26
ENDBRANCH  11  17
BRANCH  13  30
ATOM     30  C   UNL     1       1.308   4.653  20.986  0.00  0.00    +0.000 C 
ATOM     31  C   UNL     1       1.178   3.249  20.443  0.00  0.00    +0.000 C 
ATOM     32  C   UNL     1       2.245   3.558  21.450  0.00  0.00    +0.000 C 
ENDBRANCH  13  30
TORSDOF 5
ENDMDL
MODEL 4
REMARK VINA RESULT:      -8.1      2.286      2.590
REMARK  Name = 
REMARK  6 active torsions:
REMARK  status: ('A' for Active; 'I' for Inactive)
REMARK    1  A    between atoms: C_1  and  C_2
REMARK    2  A    between atoms: C_11  and  C_12
REMARK    3  A    between atoms: C_15  and  N_16
REMARK    4  A    between atoms: C_17  and  O_18
REMARK    5  A    between atoms: O_18  and  C_19
REMARK    6  A    between atoms: C_24  and  C_25
REMARK                            x       y       z     vdW  Elec       q    Type
REMARK                         _______ _______ _______ _____ _____    ______ ____
ROOT
ATOM      1  C   UNL     1       1.736  13.442  20.845  0.00  0.00    +0.000 C 
ATOM      2  C   UNL     1       1.620  12.659  19.567  0.00  0.00    +0.000 C 
ATOM      3  O   UNL     1       2.418  12.791  18.643  0.00  0.00    +0.000 OA
ATOM      4  N   UNL     1       0.600  11.757  19.542  0.00  0.00    +0.000 N 
ATOM      5  C   UNL     1      -0.444  11.403  20.481  0.00  0.00    +0.000 C 
ATOM      6  C   UNL     1      -0.375   9.994  19.876  0.00  0.00    +0.000 C 
ATOM      7  C   UNL     1       0.587   9.021  20.545  0.00  0.00    +0.000 C 
ATOM      8  N   UNL     1       1.561   8.698  19.521  0.00  0.00    +0.000 N 
ATOM      9  C   UNL     1       2.177   7.471  19.485  0.00  0.00    +0.000 A 
ATOM     10  C   UNL     1       3.148   7.181  18.552  0.00  0.00    +0.000 A 
ATOM     11  C   UNL     1       3.724   5.925  18.576  0.00  0.00    +0.000 A 
ATOM     12  N   UNL     1       3.334   4.986  19.453  0.00  0.00    +0.000 NA
ATOM     13  C   UNL     1       2.387   5.324  20.344  0.00  0.00    +0.000 A 
ATOM     14  N   UNL     1       1.815   6.543  20.387  0.00  0.00    +0.000 NA
ATOM     15  C   UNL     1       1.586   9.686  18.445  0.00  0.00    +0.000 C 
ATOM     16  C   UNL     1       0.383  10.600  18.679  0.00  0.00    +0.000 C 
ENDROOT
BRANCH  11  17
ATOM     17  C   UNL     1       4.824   5.537  17.684  0.00  0.00    +0.000 A 
ATOM     18  C   UNL     1       6.092   5.221  18.160  0.00  0.00    +0.000 A 
ATOM     19  N   UNL     1       7.155   4.884  17.382  0.00  0.00    +0.000 NA
ATOM     20  C   UNL     1       6.963   4.837  16.051  0.00  0.00    +0.000 A 
ATOM     21  C   UNL     1       5.730   5.109  15.458  0.00  0.00    +0.000 A 
ATOM     22  C   UNL     1       4.677   5.488  16.294  0.00  0.00    +0.000 A 
BRANCH  20  23
ATOM     23  N   UNL     1       8.106   4.488  15.328  0.00  0.00    +0.000 N 
ATOM     24  H   UNL     1       8.875   4.939  15.825  0.00  0.00    +0.000 HD
ATOM     25  H   UNL     1       8.235   3.478  15.376  0.00  0.00    +0.000 HD
ENDBRANCH  20  23
BRANCH  21  26
ATOM     26  O   UNL     1       5.378   5.098  14.141  0.00  0.00    +0.000 OA
BRANCH  26  27
ATOM     27  C   UNL     1       5.515   3.885  13.425  0.00  0.00    +0.000 C 
ATOM     28  F   UNL     1       4.478   3.723  12.565  0.00  0.00    +0.000 F 
ATOM     29  F   UNL     1       6.622   4.025  12.646  0.00  0.00    +0.000 F 
ENDBRANCH  26  27
ENDBRANCH  21  26
ENDBRANCH  11  17
BRANCH  13  30
ATOM     30  C   UNL     1       1.971   4.286  21.357  0.00  0.00    +0.000 C 
ATOM     31  C   UNL     1       1.120   3.104  20.953  0.00  0.00    +0.000 C 
ATOM     32  C   UNL     1       2.564   2.894  21.295  0.00  0.00    +0.000 C 
ENDBRANCH  13  30
TORSDOF 5
ENDMDL
MODEL 5
REMARK VINA RESULT:      -7.3      3.505      5.864
REMARK  Name = 
REMARK  6 active torsions:
REMARK  status: ('A' for Active; 'I' for Inactive)
REMARK    1  A    between atoms: C_1  and  C_2
REMARK    2  A    between atoms: C_11  and  C_12
REMARK    3  A    between atoms: C_15  and  N_16
REMARK    4  A    between atoms: C_17  and  O_18
REMARK    5  A    between atoms: O_18  and  C_19
REMARK    6  A    between atoms: C_24  and  C_25
REMARK                            x       y       z     vdW  Elec       q    Type
REMARK                         _______ _______ _______ _____ _____    ______ ____
ROOT
ATOM      1  C   UNL     1       3.032  16.455  22.356  0.00  0.00    +0.000 C 
ATOM      2  C   UNL     1       3.610  15.742  21.164  0.00  0.00    +0.000 C 
ATOM      3  O   UNL     1       4.630  15.063  21.239  0.00  0.00    +0.000 OA
ATOM      4  N   UNL     1       2.882  15.863  20.020  0.00  0.00    +0.000 N 
ATOM      5  C   UNL     1       1.668  16.574  19.678  0.00  0.00    +0.000 C 
ATOM      6  C   UNL     1       1.417  15.456  18.657  0.00  0.00    +0.000 C 
ATOM      7  C   UNL     1       0.608  14.263  19.149  0.00  0.00    +0.000 C 
ATOM      8  N   UNL     1       1.510  13.133  19.047  0.00  0.00    +0.000 N 
ATOM      9  C   UNL     1       1.042  11.868  18.791  0.00  0.00    +0.000 A 
ATOM     10  C   UNL     1       1.889  10.782  18.755  0.00  0.00    +0.000 A 
ATOM     11  C   UNL     1       1.346   9.539  18.491  0.00  0.00    +0.000 A 
ATOM     12  N   UNL     1       0.038   9.378  18.238  0.00  0.00    +0.000 NA
ATOM     13  C   UNL     1      -0.743  10.470  18.292  0.00  0.00    +0.000 A 
ATOM     14  N   UNL     1      -0.274  11.701  18.576  0.00  0.00    +0.000 NA
ATOM     15  C   UNL     1       2.911  13.544  18.978  0.00  0.00    +0.000 C 
ATOM     16  C   UNL     1       2.901  15.063  18.799  0.00  0.00    +0.000 C 
ENDROOT
BRANCH  11  17
ATOM     17  C   UNL     1       2.140   8.303  18.511  0.00  0.00    +0.000 A 
ATOM     18  C   UNL     1       3.082   8.008  17.532  0.00  0.00    +0.000 A 
ATOM     19  N   UNL     1       3.823   6.869  17.482  0.00  0.00    +0.000 NA
ATOM     20  C   UNL     1       3.645   5.965  18.464  0.00  0.00    +0.000 A 
ATOM     21  C   UNL     1       2.747   6.161  19.513  0.00  0.00    +0.000 A 
ATOM     22  C   UNL     1       1.979   7.328  19.502  0.00  0.00    +0.000 A 
BRANCH  20  23
ATOM     23  N   UNL     1       4.442   4.826  18.332  0.00  0.00    +0.000 N 
ATOM     24  H   UNL     1       4.483   4.429  19.272  0.00  0.00    +0.000 HD
ATOM     25  H   UNL     1       3.974   4.161  17.718  0.00  0.00    +0.000 HD
ENDBRANCH  20  23
BRANCH  21  26
ATOM     26  O   UNL     1       2.461   5.354  20.573  0.00  0.00    +0.000 OA
BRANCH  26  27
ATOM     27  C   UNL     1       1.313   4.530  20.493  0.00  0.00    +0.000 C 
ATOM     28  F   UNL     1       1.144   4.075  19.226  0.00  0.00    +0.000 F 
ATOM     29  F   UNL     1       1.580   3.430  21.249  0.00  0.00    +0.000 F 
ENDBRANCH  26  27
ENDBRANCH  21  26
ENDBRANCH  11  17
BRANCH  13  30
ATOM     30  C   UNL     1      -2.221  10.292  18.045  0.00  0.00    +0.000 C 
ATOM     31  C   UNL     1      -3.005  11.313  17.254  0.00  0.00    +0.000 C 
ATOM     32  C   UNL     1      -2.718   9.971  16.651  0.00  0.00    +0.000 C 
ENDBRANCH  13  30
TORSDOF 5
ENDMDL
MODEL 6
REMARK VINA RESULT:      -7.2      2.902      5.986
REMARK  Name = 
REMARK  6 active torsions:
REMARK  status: ('A' for Active; 'I' for Inactive)
REMARK    1  A    between atoms: C_1  and  C_2
REMARK    2  A    between atoms: C_11  and  C_12
REMARK    3  A    between atoms: C_15  and  N_16
REMARK    4  A    between atoms: C_17  and  O_18
REMARK    5  A    between atoms: O_18  and  C_19
REMARK    6  A    between atoms: C_24  and  C_25
REMARK                            x       y       z     vdW  Elec       q    Type
REMARK                         _______ _______ _______ _____ _____    ______ ____
ROOT
ATOM      1  C   UNL     1       1.220  17.122  23.205  0.00  0.00    +0.000 C 
ATOM      2  C   UNL     1       2.165  16.344  22.331  0.00  0.00    +0.000 C 
ATOM      3  O   UNL     1       3.013  15.588  22.796  0.00  0.00    +0.000 OA
ATOM      4  N   UNL     1       1.965  16.502  20.994  0.00  0.00    +0.000 N 
ATOM      5  C   UNL     1       1.048  17.301  20.207  0.00  0.00    +0.000 C 
ATOM      6  C   UNL     1       1.136  16.188  19.154  0.00  0.00    +0.000 C 
ATOM      7  C   UNL     1       0.105  15.072  19.266  0.00  0.00    +0.000 C 
ATOM      8  N   UNL     1       0.880  13.873  19.514  0.00  0.00    +0.000 N 
ATOM      9  C   UNL     1       0.453  12.644  19.074  0.00  0.00    +0.000 A 
ATOM     10  C   UNL     1       1.155  11.494  19.361  0.00  0.00    +0.000 A 
ATOM     11  C   UNL     1       0.664  10.293  18.885  0.00  0.00    +0.000 A 
ATOM     12  N   UNL     1      -0.444  10.233  18.129  0.00  0.00    +0.000 NA
ATOM     13  C   UNL     1      -1.091  11.384  17.884  0.00  0.00    +0.000 A 
ATOM     14  N   UNL     1      -0.677  12.578  18.350  0.00  0.00    +0.000 NA
ATOM     15  C   UNL     1       2.221  14.170  20.015  0.00  0.00    +0.000 C 
ATOM     16  C   UNL     1       2.404  15.681  19.869  0.00  0.00    +0.000 C 
ENDROOT
BRANCH  11  17
ATOM     17  C   UNL     1       1.284   8.999  19.200  0.00  0.00    +0.000 A 
ATOM     18  C   UNL     1       1.148   8.392  20.444  0.00  0.00    +0.000 A 
ATOM     19  N   UNL     1       1.722   7.213  20.801  0.00  0.00    +0.000 NA
ATOM     20  C   UNL     1       2.464   6.574  19.878  0.00  0.00    +0.000 A 
ATOM     21  C   UNL     1       2.652   7.073  18.588  0.00  0.00    +0.000 A 
ATOM     22  C   UNL     1       2.076   8.306  18.278  0.00  0.00    +0.000 A 
BRANCH  20  23
ATOM     23  N   UNL     1       3.018   5.375  20.330  0.00  0.00    +0.000 N 
ATOM     24  H   UNL     1       4.018   5.564  20.409  0.00  0.00    +0.000 HD
ATOM     25  H   UNL     1       2.652   5.168  21.259  0.00  0.00    +0.000 HD
ENDBRANCH  20  23
BRANCH  21  26
ATOM     26  O   UNL     1       3.362   6.547  17.550  0.00  0.00    +0.000 OA
BRANCH  26  27
ATOM     27  C   UNL     1       4.544   7.212  17.145  0.00  0.00    +0.000 C 
ATOM     28  F   UNL     1       5.628   6.656  17.743  0.00  0.00    +0.000 F 
ATOM     29  F   UNL     1       4.685   6.962  15.815  0.00  0.00    +0.000 F 
ENDBRANCH  26  27
ENDBRANCH  21  26
ENDBRANCH  11  17
BRANCH  13  30
ATOM     30  C   UNL     1      -2.358  11.318  17.066  0.00  0.00    +0.000 C 
ATOM     31  C   UNL     1      -2.946   9.990  16.650  0.00  0.00    +0.000 C 
ATOM     32  C   UNL     1      -3.637  10.809  17.698  0.00  0.00    +0.000 C 
ENDBRANCH  13  30
TORSDOF 5
ENDMDL
MODEL 7
REMARK VINA RESULT:      -7.0      6.655      8.921
REMARK  Name = 
REMARK  6 active torsions:
REMARK  status: ('A' for Active; 'I' for Inactive)
REMARK    1  A    between atoms: C_1  and  C_2
REMARK    2  A    between atoms: C_11  and  C_12
REMARK    3  A    between atoms: C_15  and  N_16
REMARK    4  A    between atoms: C_17  and  O_18
REMARK    5  A    between atoms: O_18  and  C_19
REMARK    6  A    between atoms: C_24  and  C_25
REMARK                            x       y       z     vdW  Elec       q    Type
REMARK                         _______ _______ _______ _____ _____    ______ ____
ROOT
ATOM      1  C   UNL     1       4.945  16.331  17.966  0.00  0.00    +0.000 C 
ATOM      2  C   UNL     1       3.598  16.627  18.564  0.00  0.00    +0.000 C 
ATOM      3  O   UNL     1       2.686  17.125  17.909  0.00  0.00    +0.000 OA
ATOM      4  N   UNL     1       3.455  16.247  19.864  0.00  0.00    +0.000 N 
ATOM      5  C   UNL     1       4.345  15.642  20.832  0.00  0.00    +0.000 C 
ATOM      6  C   UNL     1       3.090  15.006  21.443  0.00  0.00    +0.000 C 
ATOM      7  C   UNL     1       2.702  13.633  20.908  0.00  0.00    +0.000 C 
ATOM      8  N   UNL     1       1.400  13.825  20.301  0.00  0.00    +0.000 N 
ATOM      9  C   UNL     1       0.471  12.814  20.273  0.00  0.00    +0.000 A 
ATOM     10  C   UNL     1      -0.744  12.972  19.642  0.00  0.00    +0.000 A 
ATOM     11  C   UNL     1      -1.629  11.911  19.655  0.00  0.00    +0.000 A 
ATOM     12  N   UNL     1      -1.347  10.763  20.291  0.00  0.00    +0.000 NA
ATOM     13  C   UNL     1      -0.146  10.661  20.885  0.00  0.00    +0.000 A 
ATOM     14  N   UNL     1       0.768  11.651  20.877  0.00  0.00    +0.000 NA
ATOM     15  C   UNL     1       1.129  15.228  19.996  0.00  0.00    +0.000 C 
ATOM     16  C   UNL     1       2.249  16.031  20.659  0.00  0.00    +0.000 C 
ENDROOT
BRANCH  11  17
ATOM     17  C   UNL     1      -2.914  11.938  18.945  0.00  0.00    +0.000 A 
ATOM     18  C   UNL     1      -4.057  12.510  19.494  0.00  0.00    +0.000 A 
ATOM     19  N   UNL     1      -5.278  12.538  18.897  0.00  0.00    +0.000 NA
ATOM     20  C   UNL     1      -5.388  11.986  17.675  0.00  0.00    +0.000 A 
ATOM     21  C   UNL     1      -4.307  11.404  17.012  0.00  0.00    +0.000 A 
ATOM     22  C   UNL     1      -3.081  11.363  17.680  0.00  0.00    +0.000 A 
BRANCH  20  23
ATOM     23  N   UNL     1      -6.676  12.055  17.138  0.00  0.00    +0.000 N 
ATOM     24  H   UNL     1      -6.751  11.233  16.538  0.00  0.00    +0.000 HD
ATOM     25  H   UNL     1      -7.355  11.971  17.893  0.00  0.00    +0.000 HD
ENDBRANCH  20  23
BRANCH  21  26
ATOM     26  O   UNL     1      -4.256  10.816  15.784  0.00  0.00    +0.000 OA
BRANCH  26  27
ATOM     27  C   UNL     1      -2.988  10.459  15.266  0.00  0.00    +0.000 C 
ATOM     28  F   UNL     1      -2.707   9.164  15.555  0.00  0.00    +0.000 F 
ATOM     29  F   UNL     1      -3.099  10.520  13.911  0.00  0.00    +0.000 F 
ENDBRANCH  26  27
ENDBRANCH  21  26
ENDBRANCH  11  17
BRANCH  13  30
ATOM     30  C   UNL     1       0.192   9.360  21.570  0.00  0.00    +0.000 C 
ATOM     31  C   UNL     1       1.404   9.247  22.466  0.00  0.00    +0.000 C 
ATOM     32  C   UNL     1       0.033   9.235  23.071  0.00  0.00    +0.000 C 
ENDBRANCH  13  30
TORSDOF 5
ENDMDL
MODEL 8
REMARK VINA RESULT:      -6.9      4.201      6.755
REMARK  Name = 
REMARK  6 active torsions:
REMARK  status: ('A' for Active; 'I' for Inactive)
REMARK    1  A    between atoms: C_1  and  C_2
REMARK    2  A    between atoms: C_11  and  C_12
REMARK    3  A    between atoms: C_15  and  N_16
REMARK    4  A    between atoms: C_17  and  O_18
REMARK    5  A    between atoms: O_18  and  C_19
REMARK    6  A    between atoms: C_24  and  C_25
REMARK                            x       y       z     vdW  Elec       q    Type
REMARK                         _______ _______ _______ _____ _____    ______ ____
ROOT
ATOM      1  C   UNL     1       1.853   2.177  21.499  0.00  0.00    +0.000 C 
ATOM      2  C   UNL     1       1.795   3.596  21.006  0.00  0.00    +0.000 C 
ATOM      3  O   UNL     1       2.038   4.553  21.735  0.00  0.00    +0.000 OA
ATOM      4  N   UNL     1       1.511   3.728  19.681  0.00  0.00    +0.000 N 
ATOM      5  C   UNL     1       1.207   2.785  18.625  0.00  0.00    +0.000 C 
ATOM      6  C   UNL     1       1.855   3.795  17.669  0.00  0.00    +0.000 C 
ATOM      7  C   UNL     1       3.349   3.626  17.421  0.00  0.00    +0.000 C 
ATOM      8  N   UNL     1       3.949   4.846  17.924  0.00  0.00    +0.000 N 
ATOM      9  C   UNL     1       5.095   5.359  17.367  0.00  0.00    +0.000 A 
ATOM     10  C   UNL     1       5.704   6.483  17.881  0.00  0.00    +0.000 A 
ATOM     11  C   UNL     1       6.854   6.941  17.267  0.00  0.00    +0.000 A 
ATOM     12  N   UNL     1       7.359   6.343  16.177  0.00  0.00    +0.000 NA
ATOM     13  C   UNL     1       6.729   5.247  15.721  0.00  0.00    +0.000 A 
ATOM     14  N   UNL     1       5.623   4.738  16.298  0.00  0.00    +0.000 NA
ATOM     15  C   UNL     1       3.073   5.555  18.855  0.00  0.00    +0.000 C 
ATOM     16  C   UNL     1       1.715   4.857  18.778  0.00  0.00    +0.000 C 
ENDROOT
BRANCH  11  17
ATOM     17  C   UNL     1       7.630   8.078  17.779  0.00  0.00    +0.000 A 
ATOM     18  C   UNL     1       8.540   7.948  18.823  0.00  0.00    +0.000 A 
ATOM     19  N   UNL     1       9.262   8.968  19.357  0.00  0.00    +0.000 NA
ATOM     20  C   UNL     1       9.099  10.194  18.826  0.00  0.00    +0.000 A 
ATOM     21  C   UNL     1       8.234  10.443  17.760  0.00  0.00    +0.000 A 
ATOM     22  C   UNL     1       7.483   9.372  17.269  0.00  0.00    +0.000 A 
BRANCH  20  23
ATOM     23  N   UNL     1       9.875  11.182  19.437  0.00  0.00    +0.000 N 
ATOM     24  H   UNL     1      10.417  10.685  20.144  0.00  0.00    +0.000 HD
ATOM     25  H   UNL     1      10.518  11.573  18.749  0.00  0.00    +0.000 HD
ENDBRANCH  20  23
BRANCH  21  26
ATOM     26  O   UNL     1       7.966  11.613  17.115  0.00  0.00    +0.000 OA
BRANCH  26  27
ATOM     27  C   UNL     1       8.406  12.819  17.710  0.00  0.00    +0.000 C 
ATOM     28  F   UNL     1       9.547  13.251  17.115  0.00  0.00    +0.000 F 
ATOM     29  F   UNL     1       7.461  13.754  17.420  0.00  0.00    +0.000 F 
ENDBRANCH  26  27
ENDBRANCH  21  26
ENDBRANCH  11  17
BRANCH  13  30
ATOM     30  C   UNL     1       7.312   4.549  14.518  0.00  0.00    +0.000 C 
ATOM     31  C   UNL     1       6.418   3.950  13.457  0.00  0.00    +0.000 C 
ATOM     32  C   UNL     1       7.204   5.188  13.149  0.00  0.00    +0.000 C 
ENDBRANCH  13  30
TORSDOF 5
ENDMDL
MODEL 9
REMARK VINA RESULT:      -6.9      2.513      5.304
REMARK  Name = 
REMARK  6 active torsions:
REMARK  status: ('A' for Active; 'I' for Inactive)
REMARK    1  A    between atoms: C_1  and  C_2
REMARK    2  A    between atoms: C_11  and  C_12
REMARK    3  A    between atoms: C_15  and  N_16
REMARK    4  A    between atoms: C_17  and  O_18
REMARK    5  A    between atoms: O_18  and  C_19
REMARK    6  A    between atoms: C_24  and  C_25
REMARK                            x       y       z     vdW  Elec       q    Type
REMARK                         _______ _______ _______ _____ _____    ______ ____
ROOT
ATOM      1  C   UNL     1       0.816  16.265  23.092  0.00  0.00    +0.000 C 
ATOM      2  C   UNL     1       1.780  15.698  22.087  0.00  0.00    +0.000 C 
ATOM      3  O   UNL     1       2.793  15.089  22.423  0.00  0.00    +0.000 OA
ATOM      4  N   UNL     1       1.412  15.863  20.787  0.00  0.00    +0.000 N 
ATOM      5  C   UNL     1       0.290  16.512  20.141  0.00  0.00    +0.000 C 
ATOM      6  C   UNL     1       0.454  15.469  19.027  0.00  0.00    +0.000 C 
ATOM      7  C   UNL     1      -0.350  14.184  19.184  0.00  0.00    +0.000 C 
ATOM      8  N   UNL     1       0.643  13.134  19.289  0.00  0.00    +0.000 N 
ATOM      9  C   UNL     1       0.390  11.865  18.831  0.00  0.00    +0.000 A 
ATOM     10  C   UNL     1       1.307  10.848  18.984  0.00  0.00    +0.000 A 
ATOM     11  C   UNL     1       0.982   9.596  18.498  0.00  0.00    +0.000 A 
ATOM     12  N   UNL     1      -0.174   9.366  17.856  0.00  0.00    +0.000 NA
ATOM     13  C   UNL     1      -1.034  10.391  17.739  0.00  0.00    +0.000 A 
ATOM     14  N   UNL     1      -0.784  11.623  18.222  0.00  0.00    +0.000 NA
ATOM     15  C   UNL     1       1.959  13.648  19.666  0.00  0.00    +0.000 C 
ATOM     16  C   UNL     1       1.861  15.171  19.582  0.00  0.00    +0.000 C 
ENDROOT
BRANCH  11  17
ATOM     17  C   UNL     1       1.847   8.423  18.680  0.00  0.00    +0.000 A 
ATOM     18  C   UNL     1       1.709   7.557  19.760  0.00  0.00    +0.000 A 
ATOM     19  N   UNL     1       2.498   6.475  19.996  0.00  0.00    +0.000 NA
ATOM     20  C   UNL     1       3.476   6.210  19.110  0.00  0.00    +0.000 A 
ATOM     21  C   UNL     1       3.695   6.992  17.975  0.00  0.00    +0.000 A 
ATOM     22  C   UNL     1       2.886   8.116  17.794  0.00  0.00    +0.000 A 
BRANCH  20  23
ATOM     23  N   UNL     1       4.238   5.085  19.431  0.00  0.00    +0.000 N 
ATOM     24  H   UNL     1       4.096   4.953  20.433  0.00  0.00    +0.000 HD
ATOM     25  H   UNL     1       3.862   4.276  18.939  0.00  0.00    +0.000 HD
ENDBRANCH  20  23
BRANCH  21  26
ATOM     26  O   UNL     1       4.629   6.853  16.992  0.00  0.00    +0.000 OA
BRANCH  26  27
ATOM     27  C   UNL     1       5.976   6.653  17.376  0.00  0.00    +0.000 C 
ATOM     28  F   UNL     1       6.574   5.755  16.553  0.00  0.00    +0.000 F 
ATOM     29  F   UNL     1       6.614   7.836  17.158  0.00  0.00    +0.000 F 
ENDBRANCH  26  27
ENDBRANCH  21  26
ENDBRANCH  11  17
BRANCH  13  30
ATOM     30  C   UNL     1      -2.352  10.129  17.052  0.00  0.00    +0.000 C 
ATOM     31  C   UNL     1      -3.510  11.088  17.204  0.00  0.00    +0.000 C 
ATOM     32  C   UNL     1      -2.785  11.005  15.895  0.00  0.00    +0.000 C 
ENDBRANCH  13  30
TORSDOF 5
ENDMDL
