MODEL 1
REMARK VINA RESULT:      -8.5      0.000      0.000
REMARK  Name = 
REMARK  12 active torsions:
REMARK  status: ('A' for Active; 'I' for Inactive)
REMARK    1  A    between atoms: C_1  and  C_2
REMARK    2  A    between atoms: C_4  and  C_5
REMARK    3  A    between atoms: C_8  and  C_9
REMARK    4  A    between atoms: C_9  and  O_11
REMARK    5  A    between atoms: O_11  and  C_12
REMARK    6  A    between atoms: C_12  and  C_13
REMARK    7  A    between atoms: N_15  and  C_16
REMARK    8  A    between atoms: C_19  and  C_20
REMARK    9  A    between atoms: C_21  and  S_22
REMARK   10  A    between atoms: S_22  and  N_25
REMARK   11  A    between atoms: N_25  and  C_26
REMARK   12  A    between atoms: N_25  and  C_27
REMARK                            x       y       z     vdW  Elec       q    Type
REMARK                         _______ _______ _______ _____ _____    ______ ____
ROOT
ATOM      1  C   UNL     1       1.707   4.598  20.753  0.00  0.00    +0.000 C 
ATOM      2  O   UNL     1       0.635   4.475  20.155  0.00  0.00    +0.000 OA
ATOM      3  N   UNL     1       2.523   5.734  20.714  0.00  0.00    +0.000 N 
ATOM      4  H   UNL     1       3.496   5.625  21.004  0.00  0.00    +0.000 HD
ENDROOT
BRANCH   3   5
ATOM      5  C   UNL     1       2.160   6.906  20.005  0.00  0.00    +0.000 A 
ATOM      6  C   UNL     1       2.575   7.092  18.690  0.00  0.00    +0.000 A 
ATOM      7  C   UNL     1       2.423   8.312  18.045  0.00  0.00    +0.000 A 
ATOM      8  C   UNL     1       1.829   9.405  18.688  0.00  0.00    +0.000 A 
ATOM      9  C   UNL     1       1.923  10.715  17.956  0.00  0.00    +0.000 C 
ATOM     10  C   UNL     1       1.237   9.174  19.950  0.00  0.00    +0.000 A 
ATOM     11  C   UNL     1       1.422   7.926  20.606  0.00  0.00    +0.000 A 
BRANCH  10  12
ATOM     12  S   UNL     1       0.403  10.452  20.908  0.00  0.00    +0.000 S 
ATOM     13  O   UNL     1      -0.173   9.780  22.072  0.00  0.00    +0.000 OA
ATOM     14  O   UNL     1       1.316  11.542  21.086  0.00  0.00    +0.000 OA
BRANCH  12  15
ATOM     15  N   UNL     1      -0.915  10.990  19.964  0.00  0.00    +0.000 NA
ATOM     16  C   UNL     1      -0.861  12.376  19.471  0.00  0.00    +0.000 C 
ATOM     17  C   UNL     1      -1.368  10.064  18.909  0.00  0.00    +0.000 C 
ENDBRANCH  12  15
ENDBRANCH  10  12
ENDBRANCH   3   5
BRANCH   1  18
ATOM     18  C   UNL     1       2.229   3.418  21.567  0.00  0.00    +0.000 C 
BRANCH  18  19
ATOM     19  O   UNL     1       2.737   2.382  20.713  0.00  0.00    +0.000 OA
BRANCH  19  20
ATOM     20  C   UNL     1       4.100   2.351  20.601  0.00  0.00    +0.000 C 
ATOM     21  O   UNL     1       4.814   1.745  21.407  0.00  0.00    +0.000 OA
BRANCH  20  29
ATOM     22  C   UNL     1       5.701   5.293  14.163  0.00  0.00    +0.000 C 
ATOM     23  C   UNL     1       5.713   4.943  15.634  0.00  0.00    +0.000 A 
ATOM     24  C   UNL     1       6.733   5.647  16.476  0.00  0.00    +0.000 A 
ATOM     25  C   UNL     1       6.746   5.339  17.782  0.00  0.00    +0.000 A 
ATOM     26  C   UNL     1       7.705   5.959  18.750  0.00  0.00    +0.000 C 
ATOM     27  N   UNL     1       5.824   4.401  18.268  0.00  0.00    +0.000 N 
ATOM     28  N   UNL     1       5.660   3.948  19.531  0.00  0.00    +0.000 NA
ATOM     29  C   UNL     1       4.636   3.081  19.422  0.00  0.00    +0.000 A 
ATOM     30  N   UNL     1       4.155   2.960  18.132  0.00  0.00    +0.000 NA
ATOM     31  C   UNL     1       4.897   3.786  17.419  0.00  0.00    +0.000 A 
ATOM     32  N   UNL     1       4.852   4.071  16.081  0.00  0.00    +0.000 NA
ENDBRANCH  20  29
ENDBRANCH  19  20
ENDBRANCH  18  19
ENDBRANCH   1  18
TORSDOF 7
ENDMDL
MODEL 2
REMARK VINA RESULT:      -8.5      1.086      1.975
REMARK  Name = 
REMARK  12 active torsions:
REMARK  status: ('A' for Active; 'I' for Inactive)
REMARK    1  A    between atoms: C_1  and  C_2
REMARK    2  A    between atoms: C_4  and  C_5
REMARK    3  A    between atoms: C_8  and  C_9
REMARK    4  A    between atoms: C_9  and  O_11
REMARK    5  A    between atoms: O_11  and  C_12
REMARK    6  A    between atoms: C_12  and  C_13
REMARK    7  A    between atoms: N_15  and  C_16
REMARK    8  A    between atoms: C_19  and  C_20
REMARK    9  A    between atoms: C_21  and  S_22
REMARK   10  A    between atoms: S_22  and  N_25
REMARK   11  A    between atoms: N_25  and  C_26
REMARK   12  A    between atoms: N_25  and  C_27
REMARK                            x       y       z     vdW  Elec       q    Type
REMARK                         _______ _______ _______ _____ _____    ______ ____
ROOT
ATOM      1  C   UNL     1       1.854   3.923  20.464  0.00  0.00    +0.000 C 
ATOM      2  O   UNL     1       0.896   3.776  19.701  0.00  0.00    +0.000 OA
ATOM      3  N   UNL     1       2.555   5.119  20.652  0.00  0.00    +0.000 N 
ATOM      4  H   UNL     1       3.482   5.060  21.077  0.00  0.00    +0.000 HD
ENDROOT
BRANCH   3   5
ATOM      5  C   UNL     1       2.189   6.325  20.003  0.00  0.00    +0.000 A 
ATOM      6  C   UNL     1       2.560   6.556  18.682  0.00  0.00    +0.000 A 
ATOM      7  C   UNL     1       2.407   7.803  18.092  0.00  0.00    +0.000 A 
ATOM      8  C   UNL     1       1.858   8.879  18.798  0.00  0.00    +0.000 A 
ATOM      9  C   UNL     1       1.950  10.216  18.116  0.00  0.00    +0.000 C 
ATOM     10  C   UNL     1       1.308   8.609  20.072  0.00  0.00    +0.000 A 
ATOM     11  C   UNL     1       1.493   7.332  20.670  0.00  0.00    +0.000 A 
BRANCH  10  12
ATOM     12  S   UNL     1       0.533   9.862  21.109  0.00  0.00    +0.000 S 
ATOM     13  O   UNL     1      -0.672   9.246  21.664  0.00  0.00    +0.000 OA
ATOM     14  O   UNL     1       1.534  10.398  21.983  0.00  0.00    +0.000 OA
BRANCH  12  15
ATOM     15  N   UNL     1      -0.001  11.102  20.063  0.00  0.00    +0.000 NA
ATOM     16  C   UNL     1      -1.405  11.045  19.622  0.00  0.00    +0.000 C 
ATOM     17  C   UNL     1       0.385  12.473  20.443  0.00  0.00    +0.000 C 
ENDBRANCH  12  15
ENDBRANCH  10  12
ENDBRANCH   3   5
BRANCH   1  18
ATOM     18  C   UNL     1       2.362   2.712  21.239  0.00  0.00    +0.000 C 
BRANCH  18  19
ATOM     19  O   UNL     1       3.697   2.364  20.842  0.00  0.00    +0.000 OA
BRANCH  19  20
ATOM     20  C   UNL     1       3.868   2.205  19.494  0.00  0.00    +0.000 C 
ATOM     21  O   UNL     1       3.406   1.237  18.880  0.00  0.00    +0.000 OA
BRANCH  20  29
ATOM     22  C   UNL     1       7.934   7.900  17.572  0.00  0.00    +0.000 C 
ATOM     23  C   UNL     1       7.046   6.677  17.522  0.00  0.00    +0.000 A 
ATOM     24  C   UNL     1       6.679   6.178  16.158  0.00  0.00    +0.000 A 
ATOM     25  C   UNL     1       5.891   5.093  16.111  0.00  0.00    +0.000 A 
ATOM     26  C   UNL     1       5.440   4.476  14.824  0.00  0.00    +0.000 C 
ATOM     27  N   UNL     1       5.472   4.504  17.313  0.00  0.00    +0.000 N 
ATOM     28  N   UNL     1       4.688   3.419  17.498  0.00  0.00    +0.000 NA
ATOM     29  C   UNL     1       4.627   3.302  18.838  0.00  0.00    +0.000 A 
ATOM     30  N   UNL     1       5.334   4.284  19.507  0.00  0.00    +0.000 NA
ATOM     31  C   UNL     1       5.860   5.027  18.552  0.00  0.00    +0.000 A 
ATOM     32  N   UNL     1       6.661   6.133  18.643  0.00  0.00    +0.000 NA
ENDBRANCH  20  29
ENDBRANCH  19  20
ENDBRANCH  18  19
ENDBRANCH   1  18
TORSDOF 7
ENDMDL
MODEL 3
REMARK VINA RESULT:      -8.5      1.119      1.447
REMARK  Name = 
REMARK  12 active torsions:
REMARK  status: ('A' for Active; 'I' for Inactive)
REMARK    1  A    between atoms: C_1  and  C_2
REMARK    2  A    between atoms: C_4  and  C_5
REMARK    3  A    between atoms: C_8  and  C_9
REMARK    4  A    between atoms: C_9  and  O_11
REMARK    5  A    between atoms: O_11  and  C_12
REMARK    6  A    between atoms: C_12  and  C_13
REMARK    7  A    between atoms: N_15  and  C_16
REMARK    8  A    between atoms: C_19  and  C_20
REMARK    9  A    between atoms: C_21  and  S_22
REMARK   10  A    between atoms: S_22  and  N_25
REMARK   11  A    between atoms: N_25  and  C_26
REMARK   12  A    between atoms: N_25  and  C_27
REMARK                            x       y       z     vdW  Elec       q    Type
REMARK                         _______ _______ _______ _____ _____    ______ ____
ROOT
ATOM      1  C   UNL     1       1.737   4.648  20.767  0.00  0.00    +0.000 C 
ATOM      2  O   UNL     1       0.637   4.514  20.225  0.00  0.00    +0.000 OA
ATOM      3  N   UNL     1       2.552   5.780  20.662  0.00  0.00    +0.000 N 
ATOM      4  H   UNL     1       3.538   5.676  20.907  0.00  0.00    +0.000 HD
ENDROOT
BRANCH   3   5
ATOM      5  C   UNL     1       2.158   6.936  19.943  0.00  0.00    +0.000 A 
ATOM      6  C   UNL     1       2.541   7.108  18.617  0.00  0.00    +0.000 A 
ATOM      7  C   UNL     1       2.358   8.315  17.957  0.00  0.00    +0.000 A 
ATOM      8  C   UNL     1       1.763   9.410  18.596  0.00  0.00    +0.000 A 
ATOM      9  C   UNL     1       1.823  10.710  17.843  0.00  0.00    +0.000 C 
ATOM     10  C   UNL     1       1.202   9.190  19.875  0.00  0.00    +0.000 A 
ATOM     11  C   UNL     1       1.419   7.955  20.545  0.00  0.00    +0.000 A 
BRANCH  10  12
ATOM     12  S   UNL     1       0.371  10.472  20.831  0.00  0.00    +0.000 S 
ATOM     13  O   UNL     1       1.385  11.484  21.127  0.00  0.00    +0.000 OA
ATOM     14  O   UNL     1      -0.828  10.838  20.137  0.00  0.00    +0.000 OA
BRANCH  12  15
ATOM     15  N   UNL     1      -0.055   9.768  22.327  0.00  0.00    +0.000 NA
ATOM     16  C   UNL     1       1.048   9.315  23.190  0.00  0.00    +0.000 C 
ATOM     17  C   UNL     1      -1.082  10.485  23.105  0.00  0.00    +0.000 C 
ENDBRANCH  12  15
ENDBRANCH  10  12
ENDBRANCH   3   5
BRANCH   1  18
ATOM     18  C   UNL     1       2.295   3.486  21.583  0.00  0.00    +0.000 C 
BRANCH  18  19
ATOM     19  O   UNL     1       2.758   2.429  20.730  0.00  0.00    +0.000 OA
BRANCH  19  20
ATOM     20  C   UNL     1       4.117   2.361  20.589  0.00  0.00    +0.000 C 
ATOM     21  O   UNL     1       4.831   1.730  21.376  0.00  0.00    +0.000 OA
BRANCH  20  29
ATOM     22  C   UNL     1       5.700   5.261  14.128  0.00  0.00    +0.000 C 
ATOM     23  C   UNL     1       5.713   4.925  15.602  0.00  0.00    +0.000 A 
ATOM     24  C   UNL     1       6.725   5.646  16.440  0.00  0.00    +0.000 A 
ATOM     25  C   UNL     1       6.739   5.350  17.748  0.00  0.00    +0.000 A 
ATOM     26  C   UNL     1       7.690   5.988  18.712  0.00  0.00    +0.000 C 
ATOM     27  N   UNL     1       5.825   4.407  18.241  0.00  0.00    +0.000 N 
ATOM     28  N   UNL     1       5.664   3.963  19.508  0.00  0.00    +0.000 NA
ATOM     29  C   UNL     1       4.648   3.085  19.405  0.00  0.00    +0.000 A 
ATOM     30  N   UNL     1       4.170   2.948  18.115  0.00  0.00    +0.000 NA
ATOM     31  C   UNL     1       4.905   3.775  17.396  0.00  0.00    +0.000 A 
ATOM     32  N   UNL     1       4.860   4.048  16.056  0.00  0.00    +0.000 NA
ENDBRANCH  20  29
ENDBRANCH  19  20
ENDBRANCH  18  19
ENDBRANCH   1  18
TORSDOF 7
ENDMDL
MODEL 4
REMARK VINA RESULT:      -8.4      1.416      2.342
REMARK  Name = 
REMARK  12 active torsions:
REMARK  status: ('A' for Active; 'I' for Inactive)
REMARK    1  A    between atoms: C_1  and  C_2
REMARK    2  A    between atoms: C_4  and  C_5
REMARK    3  A    between atoms: C_8  and  C_9
REMARK    4  A    between atoms: C_9  and  O_11
REMARK    5  A    between atoms: O_11  and  C_12
REMARK    6  A    between atoms: C_12  and  C_13
REMARK    7  A    between atoms: N_15  and  C_16
REMARK    8  A    between atoms: C_19  and  C_20
REMARK    9  A    between atoms: C_21  and  S_22
REMARK   10  A    between atoms: S_22  and  N_25
REMARK   11  A    between atoms: N_25  and  C_26
REMARK   12  A    between atoms: N_25  and  C_27
REMARK                            x       y       z     vdW  Elec       q    Type
REMARK                         _______ _______ _______ _____ _____    ______ ____
ROOT
ATOM      1  C   UNL     1       1.736   4.169  20.571  0.00  0.00    +0.000 C 
ATOM      2  O   UNL     1       0.735   4.026  19.866  0.00  0.00    +0.000 OA
ATOM      3  N   UNL     1       2.506   5.335  20.648  0.00  0.00    +0.000 N 
ATOM      4  H   UNL     1       3.448   5.253  21.031  0.00  0.00    +0.000 HD
ENDROOT
BRANCH   3   5
ATOM      5  C   UNL     1       2.169   6.515  19.939  0.00  0.00    +0.000 A 
ATOM      6  C   UNL     1       2.593   6.696  18.626  0.00  0.00    +0.000 A 
ATOM      7  C   UNL     1       2.467   7.919  17.983  0.00  0.00    +0.000 A 
ATOM      8  C   UNL     1       1.892   9.022  18.626  0.00  0.00    +0.000 A 
ATOM      9  C   UNL     1       2.014  10.332  17.897  0.00  0.00    +0.000 C 
ATOM     10  C   UNL     1       1.290   8.801  19.885  0.00  0.00    +0.000 A 
ATOM     11  C   UNL     1       1.448   7.548  20.539  0.00  0.00    +0.000 A 
BRANCH  10  12
ATOM     12  S   UNL     1       0.476  10.093  20.841  0.00  0.00    +0.000 S 
ATOM     13  O   UNL     1       1.452  11.175  20.980  0.00  0.00    +0.000 OA
ATOM     14  O   UNL     1      -0.801  10.350  20.245  0.00  0.00    +0.000 OA
BRANCH  12  15
ATOM     15  N   UNL     1       0.233   9.462  22.409  0.00  0.00    +0.000 NA
ATOM     16  C   UNL     1       1.431   9.256  23.239  0.00  0.00    +0.000 C 
ATOM     17  C   UNL     1      -0.857  10.080  23.187  0.00  0.00    +0.000 C 
ENDBRANCH  12  15
ENDBRANCH  10  12
ENDBRANCH   3   5
BRANCH   1  18
ATOM     18  C   UNL     1       2.221   2.983  21.400  0.00  0.00    +0.000 C 
BRANCH  18  19
ATOM     19  O   UNL     1       3.539   2.577  21.002  0.00  0.00    +0.000 OA
BRANCH  19  20
ATOM     20  C   UNL     1       3.694   2.378  19.658  0.00  0.00    +0.000 C 
ATOM     21  O   UNL     1       3.179   1.421  19.069  0.00  0.00    +0.000 OA
BRANCH  20  29
ATOM     22  C   UNL     1       8.034   7.811  17.583  0.00  0.00    +0.000 C 
ATOM     23  C   UNL     1       7.087   6.632  17.566  0.00  0.00    +0.000 A 
ATOM     24  C   UNL     1       6.694   6.115  16.216  0.00  0.00    +0.000 A 
ATOM     25  C   UNL     1       5.853   5.070  16.198  0.00  0.00    +0.000 A 
ATOM     26  C   UNL     1       5.371   4.441  14.928  0.00  0.00    +0.000 C 
ATOM     27  N   UNL     1       5.407   4.535  17.415  0.00  0.00    +0.000 N 
ATOM     28  N   UNL     1       4.570   3.495  17.630  0.00  0.00    +0.000 NA
ATOM     29  C   UNL     1       4.505   3.418  18.972  0.00  0.00    +0.000 A 
ATOM     30  N   UNL     1       5.261   4.381  19.614  0.00  0.00    +0.000 NA
ATOM     31  C   UNL     1       5.822   5.071  18.640  0.00  0.00    +0.000 A 
ATOM     32  N   UNL     1       6.676   6.139  18.701  0.00  0.00    +0.000 NA
ENDBRANCH  20  29
ENDBRANCH  19  20
ENDBRANCH  18  19
ENDBRANCH   1  18
TORSDOF 7
ENDMDL
MODEL 5
REMARK VINA RESULT:      -8.3      2.770      8.642
REMARK  Name = 
REMARK  12 active torsions:
REMARK  status: ('A' for Active; 'I' for Inactive)
REMARK    1  A    between atoms: C_1  and  C_2
REMARK    2  A    between atoms: C_4  and  C_5
REMARK    3  A    between atoms: C_8  and  C_9
REMARK    4  A    between atoms: C_9  and  O_11
REMARK    5  A    between atoms: O_11  and  C_12
REMARK    6  A    between atoms: C_12  and  C_13
REMARK    7  A    between atoms: N_15  and  C_16
REMARK    8  A    between atoms: C_19  and  C_20
REMARK    9  A    between atoms: C_21  and  S_22
REMARK   10  A    between atoms: S_22  and  N_25
REMARK   11  A    between atoms: N_25  and  C_26
REMARK   12  A    between atoms: N_25  and  C_27
REMARK                            x       y       z     vdW  Elec       q    Type
REMARK                         _______ _______ _______ _____ _____    ______ ____
ROOT
ATOM      1  C   UNL     1       1.565   8.130  20.662  0.00  0.00    +0.000 C 
ATOM      2  O   UNL     1       1.701   8.420  19.471  0.00  0.00    +0.000 OA
ATOM      3  N   UNL     1       1.639   6.836  21.188  0.00  0.00    +0.000 N 
ATOM      4  H   UNL     1       1.239   6.680  22.114  0.00  0.00    +0.000 HD
ENDROOT
BRANCH   3   5
ATOM      5  C   UNL     1       1.935   5.706  20.386  0.00  0.00    +0.000 A 
ATOM      6  C   UNL     1       1.071   4.616  20.355  0.00  0.00    +0.000 A 
ATOM      7  C   UNL     1       1.433   3.417  19.756  0.00  0.00    +0.000 A 
ATOM      8  C   UNL     1       2.681   3.259  19.143  0.00  0.00    +0.000 A 
ATOM      9  C   UNL     1       3.025   1.855  18.729  0.00  0.00    +0.000 C 
ATOM     10  C   UNL     1       3.488   4.411  19.004  0.00  0.00    +0.000 A 
ATOM     11  C   UNL     1       3.112   5.625  19.642  0.00  0.00    +0.000 A 
BRANCH  10  12
ATOM     12  S   UNL     1       5.108   4.403  18.214  0.00  0.00    +0.000 S 
ATOM     13  O   UNL     1       6.070   4.053  19.259  0.00  0.00    +0.000 OA
ATOM     14  O   UNL     1       5.019   3.609  17.025  0.00  0.00    +0.000 OA
BRANCH  12  15
ATOM     15  N   UNL     1       5.445   6.017  17.773  0.00  0.00    +0.000 NA
ATOM     16  C   UNL     1       6.836   6.475  17.926  0.00  0.00    +0.000 C 
ATOM     17  C   UNL     1       4.874   6.463  16.488  0.00  0.00    +0.000 C 
ENDBRANCH  12  15
ENDBRANCH  10  12
ENDBRANCH   3   5
BRANCH   1  18
ATOM     18  C   UNL     1       1.247   9.246  21.653  0.00  0.00    +0.000 C 
BRANCH  18  19
ATOM     19  O   UNL     1       1.332  10.535  21.028  0.00  0.00    +0.000 OA
BRANCH  19  20
ATOM     20  C   UNL     1       0.205  11.302  21.146  0.00  0.00    +0.000 C 
ATOM     21  O   UNL     1       0.006  12.035  22.120  0.00  0.00    +0.000 OA
BRANCH  20  29
ATOM     22  C   UNL     1      -3.355  10.087  14.940  0.00  0.00    +0.000 C 
ATOM     23  C   UNL     1      -3.009  10.532  16.343  0.00  0.00    +0.000 A 
ATOM     24  C   UNL     1      -4.099  11.214  17.112  0.00  0.00    +0.000 A 
ATOM     25  C   UNL     1      -3.795  11.609  18.357  0.00  0.00    +0.000 A 
ATOM     26  C   UNL     1      -4.778  12.303  19.248  0.00  0.00    +0.000 C 
ATOM     27  N   UNL     1      -2.507  11.363  18.853  0.00  0.00    +0.000 N 
ATOM     28  N   UNL     1      -1.991  11.670  20.065  0.00  0.00    +0.000 NA
ATOM     29  C   UNL     1      -0.733  11.195  19.998  0.00  0.00    +0.000 A 
ATOM     30  N   UNL     1      -0.431  10.610  18.782  0.00  0.00    +0.000 NA
ATOM     31  C   UNL     1      -1.540  10.716  18.075  0.00  0.00    +0.000 A 
ATOM     32  N   UNL     1      -1.809  10.299  16.800  0.00  0.00    +0.000 NA
ENDBRANCH  20  29
ENDBRANCH  19  20
ENDBRANCH  18  19
ENDBRANCH   1  18
TORSDOF 7
ENDMDL
MODEL 6
REMARK VINA RESULT:      -8.0      1.244      1.708
REMARK  Name = 
REMARK  12 active torsions:
REMARK  status: ('A' for Active; 'I' for Inactive)
REMARK    1  A    between atoms: C_1  and  C_2
REMARK    2  A    between atoms: C_4  and  C_5
REMARK    3  A    between atoms: C_8  and  C_9
REMARK    4  A    between atoms: C_9  and  O_11
REMARK    5  A    between atoms: O_11  and  C_12
REMARK    6  A    between atoms: C_12  and  C_13
REMARK    7  A    between atoms: N_15  and  C_16
REMARK    8  A    between atoms: C_19  and  C_20
REMARK    9  A    between atoms: C_21  and  S_22
REMARK   10  A    between atoms: S_22  and  N_25
REMARK   11  A    between atoms: N_25  and  C_26
REMARK   12  A    between atoms: N_25  and  C_27
REMARK                            x       y       z     vdW  Elec       q    Type
REMARK                         _______ _______ _______ _____ _____    ______ ____
ROOT
ATOM      1  C   UNL     1       1.655   4.572  20.814  0.00  0.00    +0.000 C 
ATOM      2  O   UNL     1       0.571   4.459  20.236  0.00  0.00    +0.000 OA
ATOM      3  N   UNL     1       2.495   5.689  20.736  0.00  0.00    +0.000 N 
ATOM      4  H   UNL     1       3.469   5.566  21.013  0.00  0.00    +0.000 HD
ENDROOT
BRANCH   3   5
ATOM      5  C   UNL     1       2.147   6.852  20.005  0.00  0.00    +0.000 A 
ATOM      6  C   UNL     1       2.509   6.980  18.668  0.00  0.00    +0.000 A 
ATOM      7  C   UNL     1       2.376   8.184  17.990  0.00  0.00    +0.000 A 
ATOM      8  C   UNL     1       1.854   9.319  18.622  0.00  0.00    +0.000 A 
ATOM      9  C   UNL     1       1.965  10.602  17.844  0.00  0.00    +0.000 C 
ATOM     10  C   UNL     1       1.310   9.152  19.915  0.00  0.00    +0.000 A 
ATOM     11  C   UNL     1       1.476   7.918  20.603  0.00  0.00    +0.000 A 
BRANCH  10  12
ATOM     12  S   UNL     1       0.568  10.492  20.865  0.00  0.00    +0.000 S 
ATOM     13  O   UNL     1       1.508  11.611  20.795  0.00  0.00    +0.000 OA
ATOM     14  O   UNL     1      -0.783  10.659  20.419  0.00  0.00    +0.000 OA
BRANCH  12  15
ATOM     15  N   UNL     1       0.549   9.984  22.495  0.00  0.00    +0.000 NA
ATOM     16  C   UNL     1      -0.666   9.298  22.966  0.00  0.00    +0.000 C 
ATOM     17  C   UNL     1       1.767   9.300  22.969  0.00  0.00    +0.000 C 
ENDBRANCH  12  15
ENDBRANCH  10  12
ENDBRANCH   3   5
BRANCH   1  18
ATOM     18  C   UNL     1       2.164   3.400  21.648  0.00  0.00    +0.000 C 
BRANCH  18  19
ATOM     19  O   UNL     1       3.315   2.794  21.042  0.00  0.00    +0.000 OA
BRANCH  19  20
ATOM     20  C   UNL     1       3.149   2.438  19.731  0.00  0.00    +0.000 C 
ATOM     21  O   UNL     1       2.262   1.658  19.367  0.00  0.00    +0.000 OA
BRANCH  20  29
ATOM     22  C   UNL     1       7.014   5.057  14.175  0.00  0.00    +0.000 C 
ATOM     23  C   UNL     1       6.516   4.746  15.569  0.00  0.00    +0.000 A 
ATOM     24  C   UNL     1       7.267   5.381  16.700  0.00  0.00    +0.000 A 
ATOM     25  C   UNL     1       6.827   5.108  17.937  0.00  0.00    +0.000 A 
ATOM     26  C   UNL     1       7.472   5.668  19.167  0.00  0.00    +0.000 C 
ATOM     27  N   UNL     1       5.716   4.267  18.094  0.00  0.00    +0.000 N 
ATOM     28  N   UNL     1       5.110   3.863  19.233  0.00  0.00    +0.000 NA
ATOM     29  C   UNL     1       4.103   3.086  18.794  0.00  0.00    +0.000 A 
ATOM     30  N   UNL     1       4.058   2.973  17.417  0.00  0.00    +0.000 NA
ATOM     31  C   UNL     1       5.063   3.712  16.987  0.00  0.00    +0.000 A 
ATOM     32  N   UNL     1       5.482   3.964  15.708  0.00  0.00    +0.000 NA
ENDBRANCH  20  29
ENDBRANCH  19  20
ENDBRANCH  18  19
ENDBRANCH   1  18
TORSDOF 7
ENDMDL
MODEL 7
REMARK VINA RESULT:      -7.8      3.045      9.243
REMARK  Name = 
REMARK  12 active torsions:
REMARK  status: ('A' for Active; 'I' for Inactive)
REMARK    1  A    between atoms: C_1  and  C_2
REMARK    2  A    between atoms: C_4  and  C_5
REMARK    3  A    between atoms: C_8  and  C_9
REMARK    4  A    between atoms: C_9  and  O_11
REMARK    5  A    between atoms: O_11  and  C_12
REMARK    6  A    between atoms: C_12  and  C_13
REMARK    7  A    between atoms: N_15  and  C_16
REMARK    8  A    between atoms: C_19  and  C_20
REMARK    9  A    between atoms: C_21  and  S_22
REMARK   10  A    between atoms: S_22  and  N_25
REMARK   11  A    between atoms: N_25  and  C_26
REMARK   12  A    between atoms: N_25  and  C_27
REMARK                            x       y       z     vdW  Elec       q    Type
REMARK                         _______ _______ _______ _____ _____    ______ ____
ROOT
ATOM      1  C   UNL     1       1.503   8.413  19.946  0.00  0.00    +0.000 C 
ATOM      2  O   UNL     1       1.912   7.721  20.881  0.00  0.00    +0.000 OA
ATOM      3  N   UNL     1       1.911   8.285  18.614  0.00  0.00    +0.000 N 
ATOM      4  H   UNL     1       1.732   9.072  17.989  0.00  0.00    +0.000 HD
ENDROOT
BRANCH   3   5
ATOM      5  C   UNL     1       2.821   7.286  18.190  0.00  0.00    +0.000 A 
ATOM      6  C   UNL     1       3.890   7.609  17.361  0.00  0.00    +0.000 A 
ATOM      7  C   UNL     1       4.666   6.629  16.758  0.00  0.00    +0.000 A 
ATOM      8  C   UNL     1       4.415   5.269  16.973  0.00  0.00    +0.000 A 
ATOM      9  C   UNL     1       5.186   4.321  16.097  0.00  0.00    +0.000 C 
ATOM     10  C   UNL     1       3.457   4.932  17.956  0.00  0.00    +0.000 A 
ATOM     11  C   UNL     1       2.656   5.947  18.547  0.00  0.00    +0.000 A 
BRANCH  10  12
ATOM     12  S   UNL     1       3.027   3.236  18.389  0.00  0.00    +0.000 S 
ATOM     13  O   UNL     1       2.224   2.722  17.279  0.00  0.00    +0.000 OA
ATOM     14  O   UNL     1       4.228   2.559  18.780  0.00  0.00    +0.000 OA
BRANCH  12  15
ATOM     15  N   UNL     1       1.982   3.324  19.736  0.00  0.00    +0.000 NA
ATOM     16  C   UNL     1       0.608   2.831  19.549  0.00  0.00    +0.000 C 
ATOM     17  C   UNL     1       2.547   2.860  21.017  0.00  0.00    +0.000 C 
ENDBRANCH  12  15
ENDBRANCH  10  12
ENDBRANCH   3   5
BRANCH   1  18
ATOM     18  C   UNL     1       0.510   9.532  20.245  0.00  0.00    +0.000 C 
BRANCH  18  19
ATOM     19  O   UNL     1       0.863  10.738  19.551  0.00  0.00    +0.000 OA
BRANCH  19  20
ATOM     20  C   UNL     1       0.077  11.818  19.846  0.00  0.00    +0.000 C 
ATOM     21  O   UNL     1       0.480  12.755  20.544  0.00  0.00    +0.000 OA
BRANCH  20  29
ATOM     22  C   UNL     1      -6.952  12.151  18.072  0.00  0.00    +0.000 C 
ATOM     23  C   UNL     1      -5.457  11.927  18.016  0.00  0.00    +0.000 A 
ATOM     24  C   UNL     1      -4.908  11.425  16.716  0.00  0.00    +0.000 A 
ATOM     25  C   UNL     1      -3.583  11.226  16.663  0.00  0.00    +0.000 A 
ATOM     26  C   UNL     1      -2.887  10.728  15.435  0.00  0.00    +0.000 C 
ATOM     27  N   UNL     1      -2.809  11.496  17.801  0.00  0.00    +0.000 N 
ATOM     28  N   UNL     1      -1.474  11.370  17.970  0.00  0.00    +0.000 NA
ATOM     29  C   UNL     1      -1.279  11.775  19.239  0.00  0.00    +0.000 A 
ATOM     30  N   UNL     1      -2.446  12.141  19.883  0.00  0.00    +0.000 NA
ATOM     31  C   UNL     1      -3.394  11.967  18.982  0.00  0.00    +0.000 A 
ATOM     32  N   UNL     1      -4.743  12.181  19.078  0.00  0.00    +0.000 NA
ENDBRANCH  20  29
ENDBRANCH  19  20
ENDBRANCH  18  19
ENDBRANCH   1  18
TORSDOF 7
ENDMDL
MODEL 8
REMARK VINA RESULT:      -7.7      5.882      7.719
REMARK  Name = 
REMARK  12 active torsions:
REMARK  status: ('A' for Active; 'I' for Inactive)
REMARK    1  A    between atoms: C_1  and  C_2
REMARK    2  A    between atoms: C_4  and  C_5
REMARK    3  A    between atoms: C_8  and  C_9
REMARK    4  A    between atoms: C_9  and  O_11
REMARK    5  A    between atoms: O_11  and  C_12
REMARK    6  A    between atoms: C_12  and  C_13
REMARK    7  A    between atoms: N_15  and  C_16
REMARK    8  A    between atoms: C_19  and  C_20
REMARK    9  A    between atoms: C_21  and  S_22
REMARK   10  A    between atoms: S_22  and  N_25
REMARK   11  A    between atoms: N_25  and  C_26
REMARK   12  A    between atoms: N_25  and  C_27
REMARK                            x       y       z     vdW  Elec       q    Type
REMARK                         _______ _______ _______ _____ _____    ______ ____
ROOT
ATOM      1  C   UNL     1       8.346   8.689  18.191  0.00  0.00    +0.000 C 
ATOM      2  O   UNL     1       7.766   9.053  17.165  0.00  0.00    +0.000 OA
ATOM      3  N   UNL     1       9.203   9.488  18.956  0.00  0.00    +0.000 N 
ATOM      4  H   UNL     1       9.836   9.015  19.603  0.00  0.00    +0.000 HD
ENDROOT
BRANCH   3   5
ATOM      5  C   UNL     1       9.456  10.847  18.643  0.00  0.00    +0.000 A 
ATOM      6  C   UNL     1      10.432  11.189  17.713  0.00  0.00    +0.000 A 
ATOM      7  C   UNL     1      10.850  12.501  17.546  0.00  0.00    +0.000 A 
ATOM      8  C   UNL     1      10.293  13.543  18.298  0.00  0.00    +0.000 A 
ATOM      9  C   UNL     1      10.984  14.873  18.173  0.00  0.00    +0.000 C 
ATOM     10  C   UNL     1       9.175  13.236  19.106  0.00  0.00    +0.000 A 
ATOM     11  C   UNL     1       8.775  11.883  19.283  0.00  0.00    +0.000 A 
BRANCH  10  12
ATOM     12  S   UNL     1       8.312  14.453  20.116  0.00  0.00    +0.000 S 
ATOM     13  O   UNL     1       7.565  15.300  19.186  0.00  0.00    +0.000 OA
ATOM     14  O   UNL     1       7.626  13.756  21.163  0.00  0.00    +0.000 OA
BRANCH  12  15
ATOM     15  N   UNL     1       9.511  15.449  20.814  0.00  0.00    +0.000 NA
ATOM     16  C   UNL     1       9.129  16.836  21.124  0.00  0.00    +0.000 C 
ATOM     17  C   UNL     1      10.282  14.847  21.918  0.00  0.00    +0.000 C 
ENDBRANCH  12  15
ENDBRANCH  10  12
ENDBRANCH   3   5
BRANCH   1  18
ATOM     18  C   UNL     1       8.168   7.248  18.659  0.00  0.00    +0.000 C 
BRANCH  18  19
ATOM     19  O   UNL     1       7.417   6.482  17.706  0.00  0.00    +0.000 OA
BRANCH  19  20
ATOM     20  C   UNL     1       7.215   5.175  18.055  0.00  0.00    +0.000 C 
ATOM     21  O   UNL     1       8.075   4.305  17.875  0.00  0.00    +0.000 OA
BRANCH  20  29
ATOM     22  C   UNL     1       1.316   2.618  21.419  0.00  0.00    +0.000 C 
ATOM     23  C   UNL     1       2.287   3.523  20.694  0.00  0.00    +0.000 A 
ATOM     24  C   UNL     1       1.820   4.922  20.429  0.00  0.00    +0.000 A 
ATOM     25  C   UNL     1       2.680   5.727  19.787  0.00  0.00    +0.000 A 
ATOM     26  C   UNL     1       2.359   7.150  19.452  0.00  0.00    +0.000 C 
ATOM     27  N   UNL     1       3.934   5.223  19.414  0.00  0.00    +0.000 N 
ATOM     28  N   UNL     1       4.943   5.850  18.768  0.00  0.00    +0.000 NA
ATOM     29  C   UNL     1       5.898   4.904  18.686  0.00  0.00    +0.000 A 
ATOM     30  N   UNL     1       5.523   3.697  19.246  0.00  0.00    +0.000 NA
ATOM     31  C   UNL     1       4.301   3.903  19.699  0.00  0.00    +0.000 A 
ATOM     32  N   UNL     1       3.452   3.049  20.351  0.00  0.00    +0.000 NA
ENDBRANCH  20  29
ENDBRANCH  19  20
ENDBRANCH  18  19
ENDBRANCH   1  18
TORSDOF 7
ENDMDL
MODEL 9
REMARK VINA RESULT:      -7.6      5.593      7.443
REMARK  Name = 
REMARK  12 active torsions:
REMARK  status: ('A' for Active; 'I' for Inactive)
REMARK    1  A    between atoms: C_1  and  C_2
REMARK    2  A    between atoms: C_4  and  C_5
REMARK    3  A    between atoms: C_8  and  C_9
REMARK    4  A    between atoms: C_9  and  O_11
REMARK    5  A    between atoms: O_11  and  C_12
REMARK    6  A    between atoms: C_12  and  C_13
REMARK    7  A    between atoms: N_15  and  C_16
REMARK    8  A    between atoms: C_19  and  C_20
REMARK    9  A    between atoms: C_21  and  S_22
REMARK   10  A    between atoms: S_22  and  N_25
REMARK   11  A    between atoms: N_25  and  C_26
REMARK   12  A    between atoms: N_25  and  C_27
REMARK                            x       y       z     vdW  Elec       q    Type
REMARK                         _______ _______ _______ _____ _____    ______ ____
ROOT
ATOM      1  C   UNL     1       8.137   8.215  18.182  0.00  0.00    +0.000 C 
ATOM      2  O   UNL     1       7.668   8.707  17.154  0.00  0.00    +0.000 OA
ATOM      3  N   UNL     1       8.948   8.891  19.100  0.00  0.00    +0.000 N 
ATOM      4  H   UNL     1       9.501   8.326  19.746  0.00  0.00    +0.000 HD
ENDROOT
BRANCH   3   5
ATOM      5  C   UNL     1       9.276  10.262  18.958  0.00  0.00    +0.000 A 
ATOM      6  C   UNL     1      10.032  10.700  17.875  0.00  0.00    +0.000 A 
ATOM      7  C   UNL     1      10.549  11.986  17.821  0.00  0.00    +0.000 A 
ATOM      8  C   UNL     1      10.316  12.907  18.850  0.00  0.00    +0.000 A 
ATOM      9  C   UNL     1      11.107  14.183  18.768  0.00  0.00    +0.000 C 
ATOM     10  C   UNL     1       9.398  12.537  19.858  0.00  0.00    +0.000 A 
ATOM     11  C   UNL     1       8.896  11.207  19.911  0.00  0.00    +0.000 A 
BRANCH  10  12
ATOM     12  S   UNL     1       8.954  13.604  21.241  0.00  0.00    +0.000 S 
ATOM     13  O   UNL     1       7.993  12.850  22.047  0.00  0.00    +0.000 OA
ATOM     14  O   UNL     1      10.163  14.091  21.834  0.00  0.00    +0.000 OA
BRANCH  12  15
ATOM     15  N   UNL     1       8.095  14.925  20.583  0.00  0.00    +0.000 NA
ATOM     16  C   UNL     1       6.626  14.854  20.624  0.00  0.00    +0.000 C 
ATOM     17  C   UNL     1       8.577  16.263  20.976  0.00  0.00    +0.000 C 
ENDBRANCH  12  15
ENDBRANCH  10  12
ENDBRANCH   3   5
BRANCH   1  18
ATOM     18  C   UNL     1       7.866   6.742  18.476  0.00  0.00    +0.000 C 
BRANCH  18  19
ATOM     19  O   UNL     1       7.787   5.977  17.265  0.00  0.00    +0.000 OA
BRANCH  19  20
ATOM     20  C   UNL     1       6.532   5.886  16.728  0.00  0.00    +0.000 C 
ATOM     21  O   UNL     1       6.310   6.097  15.530  0.00  0.00    +0.000 OA
BRANCH  20  29
ATOM     22  C   UNL     1       2.066   2.762  21.519  0.00  0.00    +0.000 C 
ATOM     23  C   UNL     1       2.715   3.762  20.588  0.00  0.00    +0.000 A 
ATOM     24  C   UNL     1       2.086   5.121  20.530  0.00  0.00    +0.000 A 
ATOM     25  C   UNL     1       2.660   6.010  19.706  0.00  0.00    +0.000 A 
ATOM     26  C   UNL     1       2.148   7.407  19.540  0.00  0.00    +0.000 C 
ATOM     27  N   UNL     1       3.788   5.623  18.968  0.00  0.00    +0.000 N 
ATOM     28  N   UNL     1       4.517   6.348  18.089  0.00  0.00    +0.000 NA
ATOM     29  C   UNL     1       5.477   5.490  17.696  0.00  0.00    +0.000 A 
ATOM     30  N   UNL     1       5.373   4.243  18.285  0.00  0.00    +0.000 NA
ATOM     31  C   UNL     1       4.321   4.334  19.077  0.00  0.00    +0.000 A 
ATOM     32  N   UNL     1       3.764   3.397  19.905  0.00  0.00    +0.000 NA
ENDBRANCH  20  29
ENDBRANCH  19  20
ENDBRANCH  18  19
ENDBRANCH   1  18
TORSDOF 7
ENDMDL
