MODEL 1
REMARK VINA RESULT:      -7.0      0.000      0.000
REMARK  Name = 
REMARK  12 active torsions:
REMARK  status: ('A' for Active; 'I' for Inactive)
REMARK    1  A    between atoms: C_1  and  C_2
REMARK    2  A    between atoms: C_2  and  N_3
REMARK    3  A    between atoms: N_3  and  C_4
REMARK    4  A    between atoms: C_4  and  C_5
REMARK    5  A    between atoms: C_6  and  C_8
REMARK    6  A    between atoms: C_12  and  C_13
REMARK    7  A    between atoms: N_15  and  C_16
REMARK    8  A    between atoms: C_16  and  C_17
REMARK    9  A    between atoms: C_16  and  C_18
REMARK   10  A    between atoms: C_18  and  O_20
REMARK   11  A    between atoms: O_20  and  C_21
REMARK   12  A    between atoms: C_21  and  C_22
REMARK                            x       y       z     vdW  Elec       q    Type
REMARK                         _______ _______ _______ _____ _____    ______ ____
ROOT
ATOM      1  C   UNL     1       2.306   4.625  19.639  0.00  0.00    +0.000 C 
ATOM      2  O   UNL     1       1.253   4.417  19.044  0.00  0.00    +0.000 OA
ATOM      3  N   UNL     1       2.624   5.845  20.204  0.00  0.00    +0.000 N 
ATOM      4  H   UNL     1       3.592   5.965  20.482  0.00  0.00    +0.000 HD
ENDROOT
BRANCH   1   9
ATOM      5  C   UNL     1       4.375   3.290  18.974  0.00  0.00    +0.000 A 
ATOM      6  N   UNL     1       5.024   2.245  19.586  0.00  0.00    +0.000 N 
ATOM      7  C   UNL     1       4.358   1.937  20.736  0.00  0.00    +0.000 A 
ATOM      8  N   UNL     1       3.364   2.765  20.951  0.00  0.00    +0.000 NA
ATOM      9  C   UNL     1       3.333   3.599  19.840  0.00  0.00    +0.000 A 
ATOM     10  H   UNL     1       5.860   1.789  19.253  0.00  0.00    +0.000 HD
BRANCH   5  12
ATOM     11  N   UNL     1       5.740   5.014  17.877  0.00  0.00    +0.000 N 
ATOM     12  C   UNL     1       4.783   3.983  17.773  0.00  0.00    +0.000 C 
ATOM     13  O   UNL     1       4.267   3.705  16.692  0.00  0.00    +0.000 OA
BRANCH  11  15
ATOM     14  C   UNL     1       7.005   4.948  15.738  0.00  0.00    +0.000 C 
ATOM     15  C   UNL     1       6.056   5.730  16.637  0.00  0.00    +0.000 C 
ENDBRANCH  11  15
BRANCH  11  16
ATOM     16  C   UNL     1       6.373   5.402  19.142  0.00  0.00    +0.000 C 
ATOM     17  C   UNL     1       7.835   5.822  19.134  0.00  0.00    +0.000 C 
ENDBRANCH  11  16
ENDBRANCH   5  12
ENDBRANCH   1   9
BRANCH   3  18
ATOM     18  C   UNL     1       1.777   7.008  19.956  0.00  0.00    +0.000 C 
ATOM     19  C   UNL     1       1.597   7.815  21.236  0.00  0.00    +0.000 C 
BRANCH  18  20
ATOM     20  C   UNL     1       2.282   7.941  18.842  0.00  0.00    +0.000 C 
ATOM     21  O   UNL     1       3.116   7.598  18.013  0.00  0.00    +0.000 OA
BRANCH  20  22
ATOM     22  O   UNL     1       1.671   9.155  18.877  0.00  0.00    +0.000 OA
BRANCH  22  23
ATOM     23  C   UNL     1       0.793   9.455  17.788  0.00  0.00    +0.000 C 
BRANCH  23  24
ATOM     24  C   UNL     1      -0.349  10.290  18.311  0.00  0.00    +0.000 A 
ATOM     25  C   UNL     1      -1.601  10.254  17.684  0.00  0.00    +0.000 A 
ATOM     26  C   UNL     1      -2.654  11.034  18.166  0.00  0.00    +0.000 A 
ATOM     27  C   UNL     1      -2.461  11.864  19.270  0.00  0.00    +0.000 A 
ATOM     28  C   UNL     1      -1.214  11.918  19.891  0.00  0.00    +0.000 A 
ATOM     29  C   UNL     1      -0.161  11.137  19.412  0.00  0.00    +0.000 A 
ENDBRANCH  23  24
ENDBRANCH  22  23
ENDBRANCH  20  22
ENDBRANCH  18  20
ENDBRANCH   3  18
TORSDOF 9
ENDMDL
MODEL 2
REMARK VINA RESULT:      -6.9      2.251      4.180
REMARK  Name = 
REMARK  12 active torsions:
REMARK  status: ('A' for Active; 'I' for Inactive)
REMARK    1  A    between atoms: C_1  and  C_2
REMARK    2  A    between atoms: C_2  and  N_3
REMARK    3  A    between atoms: N_3  and  C_4
REMARK    4  A    between atoms: C_4  and  C_5
REMARK    5  A    between atoms: C_6  and  C_8
REMARK    6  A    between atoms: C_12  and  C_13
REMARK    7  A    between atoms: N_15  and  C_16
REMARK    8  A    between atoms: C_16  and  C_17
REMARK    9  A    between atoms: C_16  and  C_18
REMARK   10  A    between atoms: C_18  and  O_20
REMARK   11  A    between atoms: O_20  and  C_21
REMARK   12  A    between atoms: C_21  and  C_22
REMARK                            x       y       z     vdW  Elec       q    Type
REMARK                         _______ _______ _______ _____ _____    ______ ____
ROOT
ATOM      1  C   UNL     1       4.882   6.836  17.066  0.00  0.00    +0.000 C 
ATOM      2  O   UNL     1       5.619   7.795  17.277  0.00  0.00    +0.000 OA
ATOM      3  N   UNL     1       3.553   6.812  17.442  0.00  0.00    +0.000 N 
ATOM      4  H   UNL     1       3.100   5.905  17.409  0.00  0.00    +0.000 HD
ENDROOT
BRANCH   1   9
ATOM      5  C   UNL     1       5.541   4.376  16.943  0.00  0.00    +0.000 A 
ATOM      6  N   UNL     1       5.971   3.596  15.897  0.00  0.00    +0.000 N 
ATOM      7  C   UNL     1       6.034   4.372  14.777  0.00  0.00    +0.000 A 
ATOM      8  N   UNL     1       5.598   5.587  15.011  0.00  0.00    +0.000 NA
ATOM      9  C   UNL     1       5.318   5.622  16.371  0.00  0.00    +0.000 A 
ATOM     10  H   UNL     1       6.191   2.612  15.942  0.00  0.00    +0.000 HD
BRANCH   5  12
ATOM     11  N   UNL     1       3.991   3.395  18.579  0.00  0.00    +0.000 N 
ATOM     12  C   UNL     1       5.259   3.942  18.293  0.00  0.00    +0.000 C 
ATOM     13  O   UNL     1       6.099   4.092  19.179  0.00  0.00    +0.000 OA
BRANCH  11  15
ATOM     14  C   UNL     1       4.425   1.747  20.389  0.00  0.00    +0.000 C 
ATOM     15  C   UNL     1       3.740   3.044  19.981  0.00  0.00    +0.000 C 
ENDBRANCH  11  15
BRANCH  11  16
ATOM     16  C   UNL     1       2.945   3.211  17.567  0.00  0.00    +0.000 C 
ATOM     17  C   UNL     1       1.556   3.769  17.836  0.00  0.00    +0.000 C 
ENDBRANCH  11  16
ENDBRANCH   5  12
ENDBRANCH   1   9
BRANCH   3  18
ATOM     18  C   UNL     1       3.010   7.878  18.279  0.00  0.00    +0.000 C 
ATOM     19  C   UNL     1       2.069   8.761  17.470  0.00  0.00    +0.000 C 
BRANCH  18  20
ATOM     20  C   UNL     1       2.278   7.391  19.541  0.00  0.00    +0.000 C 
ATOM     21  O   UNL     1       2.480   6.293  20.046  0.00  0.00    +0.000 OA
BRANCH  20  22
ATOM     22  O   UNL     1       1.423   8.328  20.030  0.00  0.00    +0.000 OA
BRANCH  22  23
ATOM     23  C   UNL     1       1.263   8.360  21.452  0.00  0.00    +0.000 C 
BRANCH  23  24
ATOM     24  C   UNL     1       0.462   9.584  21.815  0.00  0.00    +0.000 A 
ATOM     25  C   UNL     1       0.579  10.760  21.062  0.00  0.00    +0.000 A 
ATOM     26  C   UNL     1      -0.159  11.894  21.405  0.00  0.00    +0.000 A 
ATOM     27  C   UNL     1      -1.011  11.866  22.509  0.00  0.00    +0.000 A 
ATOM     28  C   UNL     1      -1.123  10.706  23.273  0.00  0.00    +0.000 A 
ATOM     29  C   UNL     1      -0.388   9.570  22.930  0.00  0.00    +0.000 A 
ENDBRANCH  23  24
ENDBRANCH  22  23
ENDBRANCH  20  22
ENDBRANCH  18  20
ENDBRANCH   3  18
TORSDOF 9
ENDMDL
MODEL 3
REMARK VINA RESULT:      -6.8      0.494      1.013
REMARK  Name = 
REMARK  12 active torsions:
REMARK  status: ('A' for Active; 'I' for Inactive)
REMARK    1  A    between atoms: C_1  and  C_2
REMARK    2  A    between atoms: C_2  and  N_3
REMARK    3  A    between atoms: N_3  and  C_4
REMARK    4  A    between atoms: C_4  and  C_5
REMARK    5  A    between atoms: C_6  and  C_8
REMARK    6  A    between atoms: C_12  and  C_13
REMARK    7  A    between atoms: N_15  and  C_16
REMARK    8  A    between atoms: C_16  and  C_17
REMARK    9  A    between atoms: C_16  and  C_18
REMARK   10  A    between atoms: C_18  and  O_20
REMARK   11  A    between atoms: O_20  and  C_21
REMARK   12  A    between atoms: C_21  and  C_22
REMARK                            x       y       z     vdW  Elec       q    Type
REMARK                         _______ _______ _______ _____ _____    ______ ____
ROOT
ATOM      1  C   UNL     1       2.348   4.753  19.318  0.00  0.00    +0.000 C 
ATOM      2  O   UNL     1       1.351   4.551  18.630  0.00  0.00    +0.000 OA
ATOM      3  N   UNL     1       2.615   5.970  19.916  0.00  0.00    +0.000 N 
ATOM      4  H   UNL     1       3.555   6.086  20.281  0.00  0.00    +0.000 HD
ENDROOT
BRANCH   1   9
ATOM      5  C   UNL     1       4.417   3.358  18.795  0.00  0.00    +0.000 A 
ATOM      6  N   UNL     1       5.026   2.335  19.480  0.00  0.00    +0.000 N 
ATOM      7  C   UNL     1       4.315   2.092  20.618  0.00  0.00    +0.000 A 
ATOM      8  N   UNL     1       3.327   2.944  20.756  0.00  0.00    +0.000 NA
ATOM      9  C   UNL     1       3.350   3.723  19.607  0.00  0.00    +0.000 A 
ATOM     10  H   UNL     1       5.867   1.851  19.199  0.00  0.00    +0.000 HD
BRANCH   5  12
ATOM     11  N   UNL     1       5.819   5.033  17.670  0.00  0.00    +0.000 N 
ATOM     12  C   UNL     1       4.879   3.987  17.578  0.00  0.00    +0.000 C 
ATOM     13  O   UNL     1       4.422   3.640  16.490  0.00  0.00    +0.000 OA
BRANCH  11  15
ATOM     14  C   UNL     1       7.164   4.844  15.587  0.00  0.00    +0.000 C 
ATOM     15  C   UNL     1       6.192   5.681  16.408  0.00  0.00    +0.000 C 
ENDBRANCH  11  15
BRANCH  11  16
ATOM     16  C   UNL     1       6.384   5.502  18.941  0.00  0.00    +0.000 C 
ATOM     17  C   UNL     1       7.818   6.006  18.967  0.00  0.00    +0.000 C 
ENDBRANCH  11  16
ENDBRANCH   5  12
ENDBRANCH   1   9
BRANCH   3  18
ATOM     18  C   UNL     1       1.797   7.136  19.599  0.00  0.00    +0.000 C 
ATOM     19  C   UNL     1       1.680   8.048  20.814  0.00  0.00    +0.000 C 
BRANCH  18  20
ATOM     20  C   UNL     1       2.295   7.960  18.400  0.00  0.00    +0.000 C 
ATOM     21  O   UNL     1       3.445   7.898  17.980  0.00  0.00    +0.000 OA
BRANCH  20  22
ATOM     22  O   UNL     1       1.309   8.724  17.859  0.00  0.00    +0.000 OA
BRANCH  22  23
ATOM     23  C   UNL     1       1.318  10.112  18.208  0.00  0.00    +0.000 C 
BRANCH  23  24
ATOM     24  C   UNL     1      -0.109  10.581  18.337  0.00  0.00    +0.000 A 
ATOM     25  C   UNL     1      -0.428  11.670  19.159  0.00  0.00    +0.000 A 
ATOM     26  C   UNL     1      -1.751  12.097  19.283  0.00  0.00    +0.000 A 
ATOM     27  C   UNL     1      -2.767  11.434  18.595  0.00  0.00    +0.000 A 
ATOM     28  C   UNL     1      -2.461  10.340  17.787  0.00  0.00    +0.000 A 
ATOM     29  C   UNL     1      -1.139   9.913  17.660  0.00  0.00    +0.000 A 
ENDBRANCH  23  24
ENDBRANCH  22  23
ENDBRANCH  20  22
ENDBRANCH  18  20
ENDBRANCH   3  18
TORSDOF 9
ENDMDL
MODEL 4
REMARK VINA RESULT:      -6.7      0.756      1.226
REMARK  Name = 
REMARK  12 active torsions:
REMARK  status: ('A' for Active; 'I' for Inactive)
REMARK    1  A    between atoms: C_1  and  C_2
REMARK    2  A    between atoms: C_2  and  N_3
REMARK    3  A    between atoms: N_3  and  C_4
REMARK    4  A    between atoms: C_4  and  C_5
REMARK    5  A    between atoms: C_6  and  C_8
REMARK    6  A    between atoms: C_12  and  C_13
REMARK    7  A    between atoms: N_15  and  C_16
REMARK    8  A    between atoms: C_16  and  C_17
REMARK    9  A    between atoms: C_16  and  C_18
REMARK   10  A    between atoms: C_18  and  O_20
REMARK   11  A    between atoms: O_20  and  C_21
REMARK   12  A    between atoms: C_21  and  C_22
REMARK                            x       y       z     vdW  Elec       q    Type
REMARK                         _______ _______ _______ _____ _____    ______ ____
ROOT
ATOM      1  C   UNL     1       2.192   4.511  20.016  0.00  0.00    +0.000 C 
ATOM      2  O   UNL     1       0.998   4.253  19.897  0.00  0.00    +0.000 OA
ATOM      3  N   UNL     1       2.674   5.798  20.156  0.00  0.00    +0.000 N 
ATOM      4  H   UNL     1       3.675   5.911  20.036  0.00  0.00    +0.000 HD
ENDROOT
BRANCH   1   9
ATOM      5  C   UNL     1       4.004   3.051  18.974  0.00  0.00    +0.000 A 
ATOM      6  N   UNL     1       4.799   2.063  19.503  0.00  0.00    +0.000 N 
ATOM      7  C   UNL     1       4.474   1.906  20.818  0.00  0.00    +0.000 A 
ATOM      8  N   UNL     1       3.574   2.781  21.198  0.00  0.00    +0.000 NA
ATOM      9  C   UNL     1       3.238   3.485  20.048  0.00  0.00    +0.000 A 
ATOM     10  H   UNL     1       5.514   1.548  19.009  0.00  0.00    +0.000 HD
BRANCH   5  12
ATOM     11  N   UNL     1       5.135   4.448  17.298  0.00  0.00    +0.000 N 
ATOM     12  C   UNL     1       4.066   3.592  17.634  0.00  0.00    +0.000 C 
ATOM     13  O   UNL     1       3.175   3.343  16.824  0.00  0.00    +0.000 OA
BRANCH  11  15
ATOM     14  C   UNL     1       5.230   6.543  15.962  0.00  0.00    +0.000 C 
ATOM     15  C   UNL     1       5.101   5.026  15.950  0.00  0.00    +0.000 C 
ENDBRANCH  11  15
BRANCH  11  16
ATOM     16  C   UNL     1       6.214   4.796  18.229  0.00  0.00    +0.000 C 
ATOM     17  C   UNL     1       7.656   4.604  17.788  0.00  0.00    +0.000 C 
ENDBRANCH  11  16
ENDBRANCH   5  12
ENDBRANCH   1   9
BRANCH   3  18
ATOM     18  C   UNL     1       1.777   6.937  19.989  0.00  0.00    +0.000 C 
ATOM     19  C   UNL     1       1.631   7.695  21.302  0.00  0.00    +0.000 C 
BRANCH  18  20
ATOM     20  C   UNL     1       2.194   7.923  18.884  0.00  0.00    +0.000 C 
ATOM     21  O   UNL     1       2.951   7.618  17.970  0.00  0.00    +0.000 OA
BRANCH  20  22
ATOM     22  O   UNL     1       1.603   9.138  19.034  0.00  0.00    +0.000 OA
BRANCH  22  23
ATOM     23  C   UNL     1       0.774   9.577  17.953  0.00  0.00    +0.000 C 
BRANCH  23  24
ATOM     24  C   UNL     1      -0.327  10.441  18.516  0.00  0.00    +0.000 A 
ATOM     25  C   UNL     1      -0.162  11.090  19.746  0.00  0.00    +0.000 A 
ATOM     26  C   UNL     1      -1.186  11.883  20.268  0.00  0.00    +0.000 A 
ATOM     27  C   UNL     1      -2.385  12.024  19.570  0.00  0.00    +0.000 A 
ATOM     28  C   UNL     1      -2.564  11.370  18.353  0.00  0.00    +0.000 A 
ATOM     29  C   UNL     1      -1.541  10.579  17.829  0.00  0.00    +0.000 A 
ENDBRANCH  23  24
ENDBRANCH  22  23
ENDBRANCH  20  22
ENDBRANCH  18  20
ENDBRANCH   3  18
TORSDOF 9
ENDMDL
MODEL 5
REMARK VINA RESULT:      -6.7      3.152      7.457
REMARK  Name = 
REMARK  12 active torsions:
REMARK  status: ('A' for Active; 'I' for Inactive)
REMARK    1  A    between atoms: C_1  and  C_2
REMARK    2  A    between atoms: C_2  and  N_3
REMARK    3  A    between atoms: N_3  and  C_4
REMARK    4  A    between atoms: C_4  and  C_5
REMARK    5  A    between atoms: C_6  and  C_8
REMARK    6  A    between atoms: C_12  and  C_13
REMARK    7  A    between atoms: N_15  and  C_16
REMARK    8  A    between atoms: C_16  and  C_17
REMARK    9  A    between atoms: C_16  and  C_18
REMARK   10  A    between atoms: C_18  and  O_20
REMARK   11  A    between atoms: O_20  and  C_21
REMARK   12  A    between atoms: C_21  and  C_22
REMARK                            x       y       z     vdW  Elec       q    Type
REMARK                         _______ _______ _______ _____ _____    ______ ____
ROOT
ATOM      1  C   UNL     1       4.187   6.612  18.077  0.00  0.00    +0.000 C 
ATOM      2  O   UNL     1       3.929   7.056  16.962  0.00  0.00    +0.000 OA
ATOM      3  N   UNL     1       5.450   6.193  18.447  0.00  0.00    +0.000 N 
ATOM      4  H   UNL     1       5.505   5.656  19.306  0.00  0.00    +0.000 HD
ENDROOT
BRANCH   1   9
ATOM      5  C   UNL     1       2.855   5.345  19.844  0.00  0.00    +0.000 A 
ATOM      6  N   UNL     1       1.859   5.748  20.701  0.00  0.00    +0.000 N 
ATOM      7  C   UNL     1       1.605   7.069  20.479  0.00  0.00    +0.000 A 
ATOM      8  N   UNL     1       2.426   7.571  19.586  0.00  0.00    +0.000 NA
ATOM      9  C   UNL     1       3.193   6.499  19.149  0.00  0.00    +0.000 A 
ATOM     10  H   UNL     1       1.400   5.170  21.390  0.00  0.00    +0.000 HD
BRANCH   5  12
ATOM     11  N   UNL     1       2.839   3.005  19.094  0.00  0.00    +0.000 N 
ATOM     12  C   UNL     1       3.485   4.045  19.793  0.00  0.00    +0.000 C 
ATOM     13  O   UNL     1       4.542   3.846  20.389  0.00  0.00    +0.000 OA
BRANCH  11  15
ATOM     14  C   UNL     1       3.987   1.236  17.777  0.00  0.00    +0.000 C 
ATOM     15  C   UNL     1       3.489   1.691  19.142  0.00  0.00    +0.000 C 
ENDBRANCH  11  15
BRANCH  11  16
ATOM     16  C   UNL     1       1.567   3.179  18.382  0.00  0.00    +0.000 C 
ATOM     17  C   UNL     1       0.322   2.494  18.923  0.00  0.00    +0.000 C 
ENDBRANCH  11  16
ENDBRANCH   5  12
ENDBRANCH   1   9
BRANCH   3  18
ATOM     18  C   UNL     1       6.510   6.097  17.448  0.00  0.00    +0.000 C 
ATOM     19  C   UNL     1       7.448   7.292  17.552  0.00  0.00    +0.000 C 
BRANCH  18  20
ATOM     20  C   UNL     1       7.339   4.803  17.517  0.00  0.00    +0.000 C 
ATOM     21  O   UNL     1       8.124   4.562  18.427  0.00  0.00    +0.000 OA
BRANCH  20  22
ATOM     22  O   UNL     1       7.069   3.966  16.480  0.00  0.00    +0.000 OA
BRANCH  22  23
ATOM     23  C   UNL     1       5.940   4.306  15.669  0.00  0.00    +0.000 C 
BRANCH  23  24
ATOM     24  C   UNL     1       6.376   4.320  14.225  0.00  0.00    +0.000 A 
ATOM     25  C   UNL     1       5.775   3.465  13.293  0.00  0.00    +0.000 A 
ATOM     26  C   UNL     1       6.186   3.474  11.959  0.00  0.00    +0.000 A 
ATOM     27  C   UNL     1       7.208   4.330  11.549  0.00  0.00    +0.000 A 
ATOM     28  C   UNL     1       7.823   5.173  12.472  0.00  0.00    +0.000 A 
ATOM     29  C   UNL     1       7.412   5.167  13.806  0.00  0.00    +0.000 A 
ENDBRANCH  23  24
ENDBRANCH  22  23
ENDBRANCH  20  22
ENDBRANCH  18  20
ENDBRANCH   3  18
TORSDOF 9
ENDMDL
MODEL 6
REMARK VINA RESULT:      -6.6      2.090      4.110
REMARK  Name = 
REMARK  12 active torsions:
REMARK  status: ('A' for Active; 'I' for Inactive)
REMARK    1  A    between atoms: C_1  and  C_2
REMARK    2  A    between atoms: C_2  and  N_3
REMARK    3  A    between atoms: N_3  and  C_4
REMARK    4  A    between atoms: C_4  and  C_5
REMARK    5  A    between atoms: C_6  and  C_8
REMARK    6  A    between atoms: C_12  and  C_13
REMARK    7  A    between atoms: N_15  and  C_16
REMARK    8  A    between atoms: C_16  and  C_17
REMARK    9  A    between atoms: C_16  and  C_18
REMARK   10  A    between atoms: C_18  and  O_20
REMARK   11  A    between atoms: O_20  and  C_21
REMARK   12  A    between atoms: C_21  and  C_22
REMARK                            x       y       z     vdW  Elec       q    Type
REMARK                         _______ _______ _______ _____ _____    ______ ____
ROOT
ATOM      1  C   UNL     1       4.651   6.619  17.457  0.00  0.00    +0.000 C 
ATOM      2  O   UNL     1       5.499   7.274  18.056  0.00  0.00    +0.000 OA
ATOM      3  N   UNL     1       3.315   6.971  17.420  0.00  0.00    +0.000 N 
ATOM      4  H   UNL     1       2.679   6.258  17.080  0.00  0.00    +0.000 HD
ENDROOT
BRANCH   1   9
ATOM      5  C   UNL     1       5.119   4.125  17.204  0.00  0.00    +0.000 A 
ATOM      6  N   UNL     1       5.437   3.361  16.107  0.00  0.00    +0.000 N 
ATOM      7  C   UNL     1       5.501   4.177  15.016  0.00  0.00    +0.000 A 
ATOM      8  N   UNL     1       5.168   5.410  15.319  0.00  0.00    +0.000 NA
ATOM      9  C   UNL     1       4.960   5.407  16.693  0.00  0.00    +0.000 A 
ATOM     10  H   UNL     1       5.586   2.363  16.102  0.00  0.00    +0.000 HD
BRANCH   5  12
ATOM     11  N   UNL     1       3.626   3.072  18.848  0.00  0.00    +0.000 N 
ATOM     12  C   UNL     1       4.875   3.655  18.549  0.00  0.00    +0.000 C 
ATOM     13  O   UNL     1       5.728   3.807  19.422  0.00  0.00    +0.000 OA
BRANCH  11  15
ATOM     14  C   UNL     1       2.391   3.573  20.947  0.00  0.00    +0.000 C 
ATOM     15  C   UNL     1       3.411   2.684  20.245  0.00  0.00    +0.000 C 
ENDBRANCH  11  15
BRANCH  11  16
ATOM     16  C   UNL     1       2.565   2.884  17.852  0.00  0.00    +0.000 C 
ATOM     17  C   UNL     1       1.520   3.974  17.677  0.00  0.00    +0.000 C 
ENDBRANCH  11  16
ENDBRANCH   5  12
ENDBRANCH   1   9
BRANCH   3  18
ATOM     18  C   UNL     1       2.823   8.061  18.257  0.00  0.00    +0.000 C 
ATOM     19  C   UNL     1       1.903   8.972  17.455  0.00  0.00    +0.000 C 
BRANCH  18  20
ATOM     20  C   UNL     1       2.092   7.609  19.533  0.00  0.00    +0.000 C 
ATOM     21  O   UNL     1       2.329   6.546  20.095  0.00  0.00    +0.000 OA
BRANCH  20  22
ATOM     22  O   UNL     1       1.195   8.535  19.963  0.00  0.00    +0.000 OA
BRANCH  22  23
ATOM     23  C   UNL     1       0.913   8.540  21.366  0.00  0.00    +0.000 C 
BRANCH  23  24
ATOM     24  C   UNL     1       0.051   9.738  21.675  0.00  0.00    +0.000 A 
ATOM     25  C   UNL     1      -0.540   9.883  22.937  0.00  0.00    +0.000 A 
ATOM     26  C   UNL     1      -1.343  10.989  23.218  0.00  0.00    +0.000 A 
ATOM     27  C   UNL     1      -1.571  11.954  22.237  0.00  0.00    +0.000 A 
ATOM     28  C   UNL     1      -1.000  11.812  20.974  0.00  0.00    +0.000 A 
ATOM     29  C   UNL     1      -0.195  10.707  20.692  0.00  0.00    +0.000 A 
ENDBRANCH  23  24
ENDBRANCH  22  23
ENDBRANCH  20  22
ENDBRANCH  18  20
ENDBRANCH   3  18
TORSDOF 9
ENDMDL
MODEL 7
REMARK VINA RESULT:      -6.6      1.891      2.960
REMARK  Name = 
REMARK  12 active torsions:
REMARK  status: ('A' for Active; 'I' for Inactive)
REMARK    1  A    between atoms: C_1  and  C_2
REMARK    2  A    between atoms: C_2  and  N_3
REMARK    3  A    between atoms: N_3  and  C_4
REMARK    4  A    between atoms: C_4  and  C_5
REMARK    5  A    between atoms: C_6  and  C_8
REMARK    6  A    between atoms: C_12  and  C_13
REMARK    7  A    between atoms: N_15  and  C_16
REMARK    8  A    between atoms: C_16  and  C_17
REMARK    9  A    between atoms: C_16  and  C_18
REMARK   10  A    between atoms: C_18  and  O_20
REMARK   11  A    between atoms: O_20  and  C_21
REMARK   12  A    between atoms: C_21  and  C_22
REMARK                            x       y       z     vdW  Elec       q    Type
REMARK                         _______ _______ _______ _____ _____    ______ ____
ROOT
ATOM      1  C   UNL     1       2.954   6.720  18.123  0.00  0.00    +0.000 C 
ATOM      2  O   UNL     1       3.846   7.336  17.548  0.00  0.00    +0.000 OA
ATOM      3  N   UNL     1       1.940   7.343  18.825  0.00  0.00    +0.000 N 
ATOM      4  H   UNL     1       1.386   6.744  19.428  0.00  0.00    +0.000 HD
ENDROOT
BRANCH   1   9
ATOM      5  C   UNL     1       3.885   4.351  18.268  0.00  0.00    +0.000 A 
ATOM      6  N   UNL     1       3.285   3.122  18.134  0.00  0.00    +0.000 N 
ATOM      7  C   UNL     1       1.961   3.315  17.867  0.00  0.00    +0.000 A 
ATOM      8  N   UNL     1       1.647   4.589  17.895  0.00  0.00    +0.000 NA
ATOM      9  C   UNL     1       2.846   5.258  18.109  0.00  0.00    +0.000 A 
ATOM     10  H   UNL     1       3.739   2.226  18.230  0.00  0.00    +0.000 HD
BRANCH   5  12
ATOM     11  N   UNL     1       6.196   4.863  17.604  0.00  0.00    +0.000 N 
ATOM     12  C   UNL     1       5.261   4.611  18.629  0.00  0.00    +0.000 C 
ATOM     13  O   UNL     1       5.610   4.568  19.808  0.00  0.00    +0.000 OA
BRANCH  11  15
ATOM     14  C   UNL     1       7.890   6.479  18.440  0.00  0.00    +0.000 C 
ATOM     15  C   UNL     1       7.588   5.044  18.028  0.00  0.00    +0.000 C 
ENDBRANCH  11  15
BRANCH  11  16
ATOM     16  C   UNL     1       5.840   4.907  16.181  0.00  0.00    +0.000 C 
ATOM     17  C   UNL     1       6.937   4.725  15.143  0.00  0.00    +0.000 C 
ENDBRANCH  11  16
ENDBRANCH   5  12
ENDBRANCH   1   9
BRANCH   3  18
ATOM     18  C   UNL     1       1.993   8.782  19.063  0.00  0.00    +0.000 C 
ATOM     19  C   UNL     1       1.923   9.540  17.744  0.00  0.00    +0.000 C 
BRANCH  18  20
ATOM     20  C   UNL     1       0.901   9.315  20.006  0.00  0.00    +0.000 C 
ATOM     21  O   UNL     1       1.126   9.651  21.163  0.00  0.00    +0.000 OA
BRANCH  20  22
ATOM     22  O   UNL     1      -0.310   9.395  19.393  0.00  0.00    +0.000 OA
BRANCH  22  23
ATOM     23  C   UNL     1      -0.939  10.680  19.397  0.00  0.00    +0.000 C 
BRANCH  23  24
ATOM     24  C   UNL     1      -1.949  10.720  18.278  0.00  0.00    +0.000 A 
ATOM     25  C   UNL     1      -3.105  11.503  18.391  0.00  0.00    +0.000 A 
ATOM     26  C   UNL     1      -4.042  11.531  17.356  0.00  0.00    +0.000 A 
ATOM     27  C   UNL     1      -3.836  10.770  16.206  0.00  0.00    +0.000 A 
ATOM     28  C   UNL     1      -2.696   9.977  16.090  0.00  0.00    +0.000 A 
ATOM     29  C   UNL     1      -1.758   9.948  17.122  0.00  0.00    +0.000 A 
ENDBRANCH  23  24
ENDBRANCH  22  23
ENDBRANCH  20  22
ENDBRANCH  18  20
ENDBRANCH   3  18
TORSDOF 9
ENDMDL
MODEL 8
REMARK VINA RESULT:      -6.6      3.587      7.343
REMARK  Name = 
REMARK  12 active torsions:
REMARK  status: ('A' for Active; 'I' for Inactive)
REMARK    1  A    between atoms: C_1  and  C_2
REMARK    2  A    between atoms: C_2  and  N_3
REMARK    3  A    between atoms: N_3  and  C_4
REMARK    4  A    between atoms: C_4  and  C_5
REMARK    5  A    between atoms: C_6  and  C_8
REMARK    6  A    between atoms: C_12  and  C_13
REMARK    7  A    between atoms: N_15  and  C_16
REMARK    8  A    between atoms: C_16  and  C_17
REMARK    9  A    between atoms: C_16  and  C_18
REMARK   10  A    between atoms: C_18  and  O_20
REMARK   11  A    between atoms: O_20  and  C_21
REMARK   12  A    between atoms: C_21  and  C_22
REMARK                            x       y       z     vdW  Elec       q    Type
REMARK                         _______ _______ _______ _____ _____    ______ ____
ROOT
ATOM      1  C   UNL     1       5.039   5.001  19.002  0.00  0.00    +0.000 C 
ATOM      2  O   UNL     1       5.281   4.847  20.195  0.00  0.00    +0.000 OA
ATOM      3  N   UNL     1       5.959   5.509  18.106  0.00  0.00    +0.000 N 
ATOM      4  H   UNL     1       5.591   5.787  17.202  0.00  0.00    +0.000 HD
ENDROOT
BRANCH   1   9
ATOM      5  C   UNL     1       2.494   4.995  18.837  0.00  0.00    +0.000 A 
ATOM      6  N   UNL     1       1.636   4.383  17.956  0.00  0.00    +0.000 N 
ATOM      7  C   UNL     1       2.375   3.668  17.060  0.00  0.00    +0.000 A 
ATOM      8  N   UNL     1       3.661   3.839  17.255  0.00  0.00    +0.000 NA
ATOM      9  C   UNL     1       3.759   4.638  18.386  0.00  0.00    +0.000 A 
ATOM     10  H   UNL     1       0.630   4.458  17.958  0.00  0.00    +0.000 HD
BRANCH   5  12
ATOM     11  N   UNL     1       2.004   7.280  19.597  0.00  0.00    +0.000 N 
ATOM     12  C   UNL     1       2.142   5.910  19.900  0.00  0.00    +0.000 C 
ATOM     13  O   UNL     1       2.012   5.500  21.052  0.00  0.00    +0.000 OA
BRANCH  11  15
ATOM     14  C   UNL     1       0.229   8.408  20.924  0.00  0.00    +0.000 C 
ATOM     15  C   UNL     1       1.720   8.168  20.730  0.00  0.00    +0.000 C 
ENDBRANCH  11  15
BRANCH  11  16
ATOM     16  C   UNL     1       2.167   7.828  18.245  0.00  0.00    +0.000 C 
ATOM     17  C   UNL     1       2.176   9.338  18.061  0.00  0.00    +0.000 C 
ENDBRANCH  11  16
ENDBRANCH   5  12
ENDBRANCH   1   9
BRANCH   3  18
ATOM     18  C   UNL     1       7.222   6.060  18.589  0.00  0.00    +0.000 C 
ATOM     19  C   UNL     1       8.276   4.965  18.686  0.00  0.00    +0.000 C 
BRANCH  18  20
ATOM     20  C   UNL     1       7.779   7.219  17.744  0.00  0.00    +0.000 C 
ATOM     21  O   UNL     1       7.722   7.238  16.521  0.00  0.00    +0.000 OA
BRANCH  20  22
ATOM     22  O   UNL     1       8.301   8.209  18.516  0.00  0.00    +0.000 OA
BRANCH  22  23
ATOM     23  C   UNL     1       8.183   9.540  18.004  0.00  0.00    +0.000 C 
BRANCH  23  24
ATOM     24  C   UNL     1       9.251  10.393  18.641  0.00  0.00    +0.000 A 
ATOM     25  C   UNL     1       9.319  10.526  20.034  0.00  0.00    +0.000 A 
ATOM     26  C   UNL     1      10.304  11.323  20.620  0.00  0.00    +0.000 A 
ATOM     27  C   UNL     1      11.223  12.001  19.818  0.00  0.00    +0.000 A 
ATOM     28  C   UNL     1      11.154  11.887  18.431  0.00  0.00    +0.000 A 
ATOM     29  C   UNL     1      10.171  11.089  17.844  0.00  0.00    +0.000 A 
ENDBRANCH  23  24
ENDBRANCH  22  23
ENDBRANCH  20  22
ENDBRANCH  18  20
ENDBRANCH   3  18
TORSDOF 9
ENDMDL
MODEL 9
REMARK VINA RESULT:      -6.5      0.930      1.384
REMARK  Name = 
REMARK  12 active torsions:
REMARK  status: ('A' for Active; 'I' for Inactive)
REMARK    1  A    between atoms: C_1  and  C_2
REMARK    2  A    between atoms: C_2  and  N_3
REMARK    3  A    between atoms: N_3  and  C_4
REMARK    4  A    between atoms: C_4  and  C_5
REMARK    5  A    between atoms: C_6  and  C_8
REMARK    6  A    between atoms: C_12  and  C_13
REMARK    7  A    between atoms: N_15  and  C_16
REMARK    8  A    between atoms: C_16  and  C_17
REMARK    9  A    between atoms: C_16  and  C_18
REMARK   10  A    between atoms: C_18  and  O_20
REMARK   11  A    between atoms: O_20  and  C_21
REMARK   12  A    between atoms: C_21  and  C_22
REMARK                            x       y       z     vdW  Elec       q    Type
REMARK                         _______ _______ _______ _____ _____    ______ ____
ROOT
ATOM      1  C   UNL     1       2.337   4.534  19.870  0.00  0.00    +0.000 C 
ATOM      2  O   UNL     1       1.136   4.358  20.051  0.00  0.00    +0.000 OA
ATOM      3  N   UNL     1       2.883   5.775  19.603  0.00  0.00    +0.000 N 
ATOM      4  H   UNL     1       3.841   5.774  19.267  0.00  0.00    +0.000 HD
ENDROOT
BRANCH   1   9
ATOM      5  C   UNL     1       4.092   2.963  18.894  0.00  0.00    +0.000 A 
ATOM      6  N   UNL     1       4.827   1.949  19.460  0.00  0.00    +0.000 N 
ATOM      7  C   UNL     1       4.473   1.839  20.772  0.00  0.00    +0.000 A 
ATOM      8  N   UNL     1       3.610   2.766  21.116  0.00  0.00    +0.000 NA
ATOM      9  C   UNL     1       3.330   3.459  19.945  0.00  0.00    +0.000 A 
ATOM     10  H   UNL     1       5.524   1.389  18.991  0.00  0.00    +0.000 HD
BRANCH   5  12
ATOM     11  N   UNL     1       5.318   4.266  17.210  0.00  0.00    +0.000 N 
ATOM     12  C   UNL     1       4.204   3.470  17.545  0.00  0.00    +0.000 C 
ATOM     13  O   UNL     1       3.317   3.244  16.723  0.00  0.00    +0.000 OA
BRANCH  11  15
ATOM     14  C   UNL     1       6.409   4.173  14.978  0.00  0.00    +0.000 C 
ATOM     15  C   UNL     1       5.336   4.813  15.849  0.00  0.00    +0.000 C 
ENDBRANCH  11  15
BRANCH  11  16
ATOM     16  C   UNL     1       6.395   4.585  18.154  0.00  0.00    +0.000 C 
ATOM     17  C   UNL     1       6.844   6.031  18.297  0.00  0.00    +0.000 C 
ENDBRANCH  11  16
ENDBRANCH   5  12
ENDBRANCH   1   9
BRANCH   3  18
ATOM     18  C   UNL     1       2.012   6.917  19.343  0.00  0.00    +0.000 C 
ATOM     19  C   UNL     1       1.835   7.747  20.608  0.00  0.00    +0.000 C 
BRANCH  18  20
ATOM     20  C   UNL     1       2.484   7.835  18.203  0.00  0.00    +0.000 C 
ATOM     21  O   UNL     1       3.584   7.730  17.675  0.00  0.00    +0.000 OA
BRANCH  20  22
ATOM     22  O   UNL     1       1.530   8.736  17.844  0.00  0.00    +0.000 OA
BRANCH  22  23
ATOM     23  C   UNL     1       1.884  10.117  17.966  0.00  0.00    +0.000 C 
BRANCH  23  24
ATOM     24  C   UNL     1       0.797  10.823  18.736  0.00  0.00    +0.000 A 
ATOM     25  C   UNL     1       1.121  11.765  19.722  0.00  0.00    +0.000 A 
ATOM     26  C   UNL     1       0.112  12.410  20.439  0.00  0.00    +0.000 A 
ATOM     27  C   UNL     1      -1.226  12.113  20.185  0.00  0.00    +0.000 A 
ATOM     28  C   UNL     1      -1.558  11.166  19.218  0.00  0.00    +0.000 A 
ATOM     29  C   UNL     1      -0.551  10.521  18.498  0.00  0.00    +0.000 A 
ENDBRANCH  23  24
ENDBRANCH  22  23
ENDBRANCH  20  22
ENDBRANCH  18  20
ENDBRANCH   3  18
TORSDOF 9
ENDMDL
