MODEL 1
REMARK VINA RESULT:      -8.1      0.000      0.000
REMARK  Name = 
REMARK  10 active torsions:
REMARK  status: ('A' for Active; 'I' for Inactive)
REMARK    1  A    between atoms: C_1  and  C_2
REMARK    2  A    between atoms: C_6  and  C_7
REMARK    3  A    between atoms: C_7  and  N_8
REMARK    4  A    between atoms: C_9  and  C_11
REMARK    5  A    between atoms: C_13  and  O_14
REMARK    6  A    between atoms: O_14  and  C_15
REMARK    7  A    between atoms: C_15  and  C_16
REMARK    8  A    between atoms: C_22  and  O_23
REMARK    9  A    between atoms: O_23  and  C_24
REMARK   10  A    between atoms: C_24  and  C_25
REMARK                            x       y       z     vdW  Elec       q    Type
REMARK                         _______ _______ _______ _____ _____    ______ ____
ROOT
ATOM      1  C   UNL     1       2.596   6.322  18.707  0.00  0.00    +0.000 A 
ATOM      2  C   UNL     1       3.699   6.626  17.854  0.00  0.00    +0.000 A 
ATOM      3  C   UNL     1       4.348   5.632  17.107  0.00  0.00    +0.000 A 
ATOM      4  C   UNL     1       3.889   4.312  17.183  0.00  0.00    +0.000 A 
ATOM      5  C   UNL     1       2.813   3.989  17.996  0.00  0.00    +0.000 A 
ATOM      6  C   UNL     1       2.148   4.976  18.754  0.00  0.00    +0.000 A 
ENDROOT
BRANCH   1   8
ATOM      7  N   UNL     1       1.692   8.627  19.093  0.00  0.00    +0.000 N 
ATOM      8  C   UNL     1       2.039   7.403  19.587  0.00  0.00    +0.000 C 
ATOM      9  O   UNL     1       1.880   7.187  20.775  0.00  0.00    +0.000 OA
ATOM     10  H   UNL     1       1.781   8.805  18.083  0.00  0.00    +0.000 HD
BRANCH   7  11
ATOM     11  C   UNL     1       1.057   9.664  19.896  0.00  0.00    +0.000 C 
BRANCH  11  17
ATOM     12  C   UNL     1      -2.769   9.619  17.369  0.00  0.00    +0.000 C 
ATOM     13  C   UNL     1      -1.607  10.630  17.333  0.00  0.00    +0.000 C 
ATOM     14  C   UNL     1      -1.992  11.985  17.953  0.00  0.00    +0.000 C 
ATOM     15  C   UNL     1      -2.099  11.883  19.476  0.00  0.00    +0.000 C 
ATOM     16  C   UNL     1      -0.758  11.413  20.033  0.00  0.00    +0.000 C 
ATOM     17  C   UNL     1      -0.372  10.045  19.434  0.00  0.00    +0.000 C 
ATOM     18  N   UNL     1      -0.370  10.107  17.955  0.00  0.00    +0.000 NA
ATOM     19  H   UNL     1      -0.149   9.163  17.550  0.00  0.00    +0.000 HD
ENDBRANCH  11  17
ENDBRANCH   7  11
ENDBRANCH   1   8
BRANCH   3  20
ATOM     20  O   UNL     1       5.415   5.987  16.332  0.00  0.00    +0.000 OA
BRANCH  20  21
ATOM     21  C   UNL     1       5.579   5.640  14.999  0.00  0.00    +0.000 C 
BRANCH  21  22
ATOM     22  C   UNL     1       6.746   4.664  14.806  0.00  0.00    +0.000 C 
ATOM     23  F   UNL     1       6.278   3.413  14.442  0.00  0.00    +0.000 F 
ATOM     24  F   UNL     1       7.614   5.127  13.834  0.00  0.00    +0.000 F 
ATOM     25  F   UNL     1       7.440   4.543  16.000  0.00  0.00    +0.000 F 
ENDBRANCH  21  22
ENDBRANCH  20  21
ENDBRANCH   3  20
BRANCH   6  26
ATOM     26  O   UNL     1       1.106   4.496  19.487  0.00  0.00    +0.000 OA
BRANCH  26  27
ATOM     27  C   UNL     1       0.920   3.251  20.061  0.00  0.00    +0.000 C 
BRANCH  27  28
ATOM     28  C   UNL     1       1.799   3.086  21.308  0.00  0.00    +0.000 C 
ATOM     29  F   UNL     1       1.129   2.391  22.301  0.00  0.00    +0.000 F 
ATOM     30  F   UNL     1       2.940   2.376  20.973  0.00  0.00    +0.000 F 
ATOM     31  F   UNL     1       2.177   4.322  21.799  0.00  0.00    +0.000 F 
ENDBRANCH  27  28
ENDBRANCH  26  27
ENDBRANCH   6  26
TORSDOF 9
ENDMDL
MODEL 2
REMARK VINA RESULT:      -8.0      1.653      5.065
REMARK  Name = 
REMARK  10 active torsions:
REMARK  status: ('A' for Active; 'I' for Inactive)
REMARK    1  A    between atoms: C_1  and  C_2
REMARK    2  A    between atoms: C_6  and  C_7
REMARK    3  A    between atoms: C_7  and  N_8
REMARK    4  A    between atoms: C_9  and  C_11
REMARK    5  A    between atoms: C_13  and  O_14
REMARK    6  A    between atoms: O_14  and  C_15
REMARK    7  A    between atoms: C_15  and  C_16
REMARK    8  A    between atoms: C_22  and  O_23
REMARK    9  A    between atoms: O_23  and  C_24
REMARK   10  A    between atoms: C_24  and  C_25
REMARK                            x       y       z     vdW  Elec       q    Type
REMARK                         _______ _______ _______ _____ _____    ______ ____
ROOT
ATOM      1  C   UNL     1       3.110   6.171  17.897  0.00  0.00    +0.000 A 
ATOM      2  C   UNL     1       2.182   5.217  18.412  0.00  0.00    +0.000 A 
ATOM      3  C   UNL     1       2.436   3.839  18.355  0.00  0.00    +0.000 A 
ATOM      4  C   UNL     1       3.639   3.389  17.798  0.00  0.00    +0.000 A 
ATOM      5  C   UNL     1       4.562   4.294  17.297  0.00  0.00    +0.000 A 
ATOM      6  C   UNL     1       4.324   5.683  17.347  0.00  0.00    +0.000 A 
ENDROOT
BRANCH   1   8
ATOM      7  N   UNL     1       2.007   8.201  18.869  0.00  0.00    +0.000 N 
ATOM      8  C   UNL     1       2.716   7.619  17.858  0.00  0.00    +0.000 C 
ATOM      9  O   UNL     1       3.043   8.305  16.905  0.00  0.00    +0.000 OA
ATOM     10  H   UNL     1       1.764   7.641  19.698  0.00  0.00    +0.000 HD
BRANCH   7  11
ATOM     11  C   UNL     1       1.694   9.623  18.913  0.00  0.00    +0.000 C 
BRANCH  11  17
ATOM     12  C   UNL     1      -2.731   9.758  17.721  0.00  0.00    +0.000 C 
ATOM     13  C   UNL     1      -1.672  10.871  17.606  0.00  0.00    +0.000 C 
ATOM     14  C   UNL     1      -1.883  11.988  18.643  0.00  0.00    +0.000 C 
ATOM     15  C   UNL     1      -1.500  11.513  20.047  0.00  0.00    +0.000 C 
ATOM     16  C   UNL     1      -0.037  11.076  20.036  0.00  0.00    +0.000 C 
ATOM     17  C   UNL     1       0.181   9.942  19.014  0.00  0.00    +0.000 C 
ATOM     18  N   UNL     1      -0.287  10.355  17.671  0.00  0.00    +0.000 NA
ATOM     19  H   UNL     1      -0.176   9.566  16.987  0.00  0.00    +0.000 HD
ENDBRANCH  11  17
ENDBRANCH   7  11
ENDBRANCH   1   8
BRANCH   3  20
ATOM     20  O   UNL     1       1.494   2.979  18.842  0.00  0.00    +0.000 OA
BRANCH  20  21
ATOM     21  C   UNL     1       0.791   3.156  20.025  0.00  0.00    +0.000 C 
BRANCH  21  22
ATOM     22  C   UNL     1       1.700   3.020  21.251  0.00  0.00    +0.000 C 
ATOM     23  F   UNL     1       2.147   4.262  21.665  0.00  0.00    +0.000 F 
ATOM     24  F   UNL     1       1.027   2.408  22.292  0.00  0.00    +0.000 F 
ATOM     25  F   UNL     1       2.800   2.246  20.918  0.00  0.00    +0.000 F 
ENDBRANCH  21  22
ENDBRANCH  20  21
ENDBRANCH   3  20
BRANCH   6  26
ATOM     26  O   UNL     1       5.336   6.432  16.827  0.00  0.00    +0.000 OA
BRANCH  26  27
ATOM     27  C   UNL     1       6.287   7.209  17.464  0.00  0.00    +0.000 C 
BRANCH  27  28
ATOM     28  C   UNL     1       7.311   6.330  18.195  0.00  0.00    +0.000 C 
ATOM     29  F   UNL     1       7.742   5.292  17.386  0.00  0.00    +0.000 F 
ATOM     30  F   UNL     1       8.410   7.098  18.540  0.00  0.00    +0.000 F 
ATOM     31  F   UNL     1       6.760   5.804  19.348  0.00  0.00    +0.000 F 
ENDBRANCH  27  28
ENDBRANCH  26  27
ENDBRANCH   6  26
TORSDOF 9
ENDMDL
MODEL 3
REMARK VINA RESULT:      -8.0      2.197      5.422
REMARK  Name = 
REMARK  10 active torsions:
REMARK  status: ('A' for Active; 'I' for Inactive)
REMARK    1  A    between atoms: C_1  and  C_2
REMARK    2  A    between atoms: C_6  and  C_7
REMARK    3  A    between atoms: C_7  and  N_8
REMARK    4  A    between atoms: C_9  and  C_11
REMARK    5  A    between atoms: C_13  and  O_14
REMARK    6  A    between atoms: O_14  and  C_15
REMARK    7  A    between atoms: C_15  and  C_16
REMARK    8  A    between atoms: C_22  and  O_23
REMARK    9  A    between atoms: O_23  and  C_24
REMARK   10  A    between atoms: C_24  and  C_25
REMARK                            x       y       z     vdW  Elec       q    Type
REMARK                         _______ _______ _______ _____ _____    ______ ____
ROOT
ATOM      1  C   UNL     1       3.161   6.165  17.867  0.00  0.00    +0.000 A 
ATOM      2  C   UNL     1       2.284   5.142  18.336  0.00  0.00    +0.000 A 
ATOM      3  C   UNL     1       2.585   3.782  18.171  0.00  0.00    +0.000 A 
ATOM      4  C   UNL     1       3.786   3.420  17.548  0.00  0.00    +0.000 A 
ATOM      5  C   UNL     1       4.661   4.393  17.091  0.00  0.00    +0.000 A 
ATOM      6  C   UNL     1       4.375   5.765  17.250  0.00  0.00    +0.000 A 
ENDROOT
BRANCH   1   8
ATOM      7  N   UNL     1       2.015   8.075  19.016  0.00  0.00    +0.000 N 
ATOM      8  C   UNL     1       2.714   7.597  17.947  0.00  0.00    +0.000 C 
ATOM      9  O   UNL     1       2.989   8.362  17.040  0.00  0.00    +0.000 OA
ATOM     10  H   UNL     1       1.816   7.448  19.808  0.00  0.00    +0.000 HD
BRANCH   7  11
ATOM     11  C   UNL     1       1.652   9.477  19.174  0.00  0.00    +0.000 C 
BRANCH  11  17
ATOM     12  C   UNL     1      -1.569  11.785  21.480  0.00  0.00    +0.000 C 
ATOM     13  C   UNL     1      -0.172  11.348  21.961  0.00  0.00    +0.000 C 
ATOM     14  C   UNL     1      -0.238  10.185  22.967  0.00  0.00    +0.000 C 
ATOM     15  C   UNL     1      -0.611   8.875  22.269  0.00  0.00    +0.000 C 
ATOM     16  C   UNL     1       0.429   8.579  21.191  0.00  0.00    +0.000 C 
ATOM     17  C   UNL     1       0.489   9.729  20.165  0.00  0.00    +0.000 C 
ATOM     18  N   UNL     1       0.743  11.020  20.845  0.00  0.00    +0.000 NA
ATOM     19  H   UNL     1       0.741  11.807  20.150  0.00  0.00    +0.000 HD
ENDBRANCH  11  17
ENDBRANCH   7  11
ENDBRANCH   1   8
BRANCH   3  20
ATOM     20  O   UNL     1       1.689   2.854  18.618  0.00  0.00    +0.000 OA
BRANCH  20  21
ATOM     21  C   UNL     1       1.765   2.200  19.839  0.00  0.00    +0.000 C 
BRANCH  21  22
ATOM     22  C   UNL     1       1.413   3.132  21.004  0.00  0.00    +0.000 C 
ATOM     23  F   UNL     1       2.536   3.816  21.436  0.00  0.00    +0.000 F 
ATOM     24  F   UNL     1       0.442   4.042  20.626  0.00  0.00    +0.000 F 
ATOM     25  F   UNL     1       0.926   2.377  22.060  0.00  0.00    +0.000 F 
ENDBRANCH  21  22
ENDBRANCH  20  21
ENDBRANCH   3  20
BRANCH   6  26
ATOM     26  O   UNL     1       5.343   6.588  16.760  0.00  0.00    +0.000 OA
BRANCH  26  27
ATOM     27  C   UNL     1       6.287   7.348  17.425  0.00  0.00    +0.000 C 
BRANCH  27  28
ATOM     28  C   UNL     1       7.314   6.450  18.130  0.00  0.00    +0.000 C 
ATOM     29  F   UNL     1       6.764   5.852  19.252  0.00  0.00    +0.000 F 
ATOM     30  F   UNL     1       7.724   5.453  17.262  0.00  0.00    +0.000 F 
ATOM     31  F   UNL     1       8.420   7.187  18.510  0.00  0.00    +0.000 F 
ENDBRANCH  27  28
ENDBRANCH  26  27
ENDBRANCH   6  26
TORSDOF 9
ENDMDL
MODEL 4
REMARK VINA RESULT:      -7.9      1.518      5.182
REMARK  Name = 
REMARK  10 active torsions:
REMARK  status: ('A' for Active; 'I' for Inactive)
REMARK    1  A    between atoms: C_1  and  C_2
REMARK    2  A    between atoms: C_6  and  C_7
REMARK    3  A    between atoms: C_7  and  N_8
REMARK    4  A    between atoms: C_9  and  C_11
REMARK    5  A    between atoms: C_13  and  O_14
REMARK    6  A    between atoms: O_14  and  C_15
REMARK    7  A    between atoms: C_15  and  C_16
REMARK    8  A    between atoms: C_22  and  O_23
REMARK    9  A    between atoms: O_23  and  C_24
REMARK   10  A    between atoms: C_24  and  C_25
REMARK                            x       y       z     vdW  Elec       q    Type
REMARK                         _______ _______ _______ _____ _____    ______ ____
ROOT
ATOM      1  C   UNL     1       2.819   6.432  18.028  0.00  0.00    +0.000 A 
ATOM      2  C   UNL     1       1.972   5.402  18.536  0.00  0.00    +0.000 A 
ATOM      3  C   UNL     1       2.274   4.045  18.355  0.00  0.00    +0.000 A 
ATOM      4  C   UNL     1       3.446   3.691  17.677  0.00  0.00    +0.000 A 
ATOM      5  C   UNL     1       4.293   4.671  17.180  0.00  0.00    +0.000 A 
ATOM      6  C   UNL     1       4.005   6.041  17.354  0.00  0.00    +0.000 A 
ENDROOT
BRANCH   1   8
ATOM      7  N   UNL     1       1.801   8.358  19.268  0.00  0.00    +0.000 N 
ATOM      8  C   UNL     1       2.367   7.860  18.130  0.00  0.00    +0.000 C 
ATOM      9  O   UNL     1       2.514   8.606  17.178  0.00  0.00    +0.000 OA
ATOM     10  H   UNL     1       1.712   7.748  20.093  0.00  0.00    +0.000 HD
BRANCH   7  11
ATOM     11  C   UNL     1       1.443   9.759  19.437  0.00  0.00    +0.000 C 
BRANCH  11  17
ATOM     12  C   UNL     1      -2.737   9.593  17.559  0.00  0.00    +0.000 C 
ATOM     13  C   UNL     1      -1.661  10.686  17.412  0.00  0.00    +0.000 C 
ATOM     14  C   UNL     1      -2.023  11.968  18.184  0.00  0.00    +0.000 C 
ATOM     15  C   UNL     1      -1.871  11.763  19.693  0.00  0.00    +0.000 C 
ATOM     16  C   UNL     1      -0.430  11.358  19.991  0.00  0.00    +0.000 C 
ATOM     17  C   UNL     1      -0.064  10.062  19.240  0.00  0.00    +0.000 C 
ATOM     18  N   UNL     1      -0.309  10.217  17.788  0.00  0.00    +0.000 NA
ATOM     19  H   UNL     1      -0.100   9.320  17.284  0.00  0.00    +0.000 HD
ENDBRANCH  11  17
ENDBRANCH   7  11
ENDBRANCH   1   8
BRANCH   3  20
ATOM     20  O   UNL     1       1.406   3.109  18.842  0.00  0.00    +0.000 OA
BRANCH  20  21
ATOM     21  C   UNL     1       0.750   3.193  20.061  0.00  0.00    +0.000 C 
BRANCH  21  22
ATOM     22  C   UNL     1       1.717   3.027  21.239  0.00  0.00    +0.000 C 
ATOM     23  F   UNL     1       2.808   2.262  20.868  0.00  0.00    +0.000 F 
ATOM     24  F   UNL     1       2.156   4.260  21.687  0.00  0.00    +0.000 F 
ATOM     25  F   UNL     1       1.063   2.385  22.278  0.00  0.00    +0.000 F 
ENDBRANCH  21  22
ENDBRANCH  20  21
ENDBRANCH   3  20
BRANCH   6  26
ATOM     26  O   UNL     1       4.943   6.871  16.820  0.00  0.00    +0.000 OA
BRANCH  26  27
ATOM     27  C   UNL     1       5.906   7.645  17.443  0.00  0.00    +0.000 C 
BRANCH  27  28
ATOM     28  C   UNL     1       7.283   6.971  17.366  0.00  0.00    +0.000 C 
ATOM     29  F   UNL     1       8.286   7.909  17.185  0.00  0.00    +0.000 F 
ATOM     30  F   UNL     1       7.528   6.293  18.548  0.00  0.00    +0.000 F 
ATOM     31  F   UNL     1       7.321   6.065  16.322  0.00  0.00    +0.000 F 
ENDBRANCH  27  28
ENDBRANCH  26  27
ENDBRANCH   6  26
TORSDOF 9
ENDMDL
MODEL 5
REMARK VINA RESULT:      -7.8      1.811      5.246
REMARK  Name = 
REMARK  10 active torsions:
REMARK  status: ('A' for Active; 'I' for Inactive)
REMARK    1  A    between atoms: C_1  and  C_2
REMARK    2  A    between atoms: C_6  and  C_7
REMARK    3  A    between atoms: C_7  and  N_8
REMARK    4  A    between atoms: C_9  and  C_11
REMARK    5  A    between atoms: C_13  and  O_14
REMARK    6  A    between atoms: O_14  and  C_15
REMARK    7  A    between atoms: C_15  and  C_16
REMARK    8  A    between atoms: C_22  and  O_23
REMARK    9  A    between atoms: O_23  and  C_24
REMARK   10  A    between atoms: C_24  and  C_25
REMARK                            x       y       z     vdW  Elec       q    Type
REMARK                         _______ _______ _______ _____ _____    ______ ____
ROOT
ATOM      1  C   UNL     1       3.359   5.452  17.745  0.00  0.00    +0.000 A 
ATOM      2  C   UNL     1       2.297   4.799  18.440  0.00  0.00    +0.000 A 
ATOM      3  C   UNL     1       2.138   3.406  18.399  0.00  0.00    +0.000 A 
ATOM      4  C   UNL     1       3.055   2.635  17.676  0.00  0.00    +0.000 A 
ATOM      5  C   UNL     1       4.102   3.242  16.998  0.00  0.00    +0.000 A 
ATOM      6  C   UNL     1       4.278   4.641  17.029  0.00  0.00    +0.000 A 
ENDROOT
BRANCH   1   8
ATOM      7  N   UNL     1       2.250   7.699  17.792  0.00  0.00    +0.000 N 
ATOM      8  C   UNL     1       3.390   6.953  17.712  0.00  0.00    +0.000 C 
ATOM      9  O   UNL     1       4.460   7.529  17.620  0.00  0.00    +0.000 OA
ATOM     10  H   UNL     1       1.346   7.223  17.914  0.00  0.00    +0.000 HD
BRANCH   7  11
ATOM     11  C   UNL     1       2.250   9.154  17.863  0.00  0.00    +0.000 C 
BRANCH  11  17
ATOM     12  C   UNL     1      -1.435  11.866  18.162  0.00  0.00    +0.000 C 
ATOM     13  C   UNL     1      -0.077  12.010  18.875  0.00  0.00    +0.000 C 
ATOM     14  C   UNL     1      -0.166  11.670  20.373  0.00  0.00    +0.000 C 
ATOM     15  C   UNL     1      -0.326  10.162  20.586  0.00  0.00    +0.000 C 
ATOM     16  C   UNL     1       0.865   9.448  19.954  0.00  0.00    +0.000 C 
ATOM     17  C   UNL     1       0.951   9.765  18.447  0.00  0.00    +0.000 C 
ATOM     18  N   UNL     1       0.998  11.229  18.226  0.00  0.00    +0.000 NA
ATOM     19  H   UNL     1       1.014  11.443  17.198  0.00  0.00    +0.000 HD
ENDBRANCH  11  17
ENDBRANCH   7  11
ENDBRANCH   1   8
BRANCH   3  20
ATOM     20  O   UNL     1       1.084   2.847  19.064  0.00  0.00    +0.000 OA
BRANCH  20  21
ATOM     21  C   UNL     1       0.611   3.267  20.298  0.00  0.00    +0.000 C 
BRANCH  21  22
ATOM     22  C   UNL     1       1.595   2.935  21.426  0.00  0.00    +0.000 C 
ATOM     23  F   UNL     1       2.235   4.080  21.865  0.00  0.00    +0.000 F 
ATOM     24  F   UNL     1       0.937   2.344  22.490  0.00  0.00    +0.000 F 
ATOM     25  F   UNL     1       2.551   2.052  20.950  0.00  0.00    +0.000 F 
ENDBRANCH  21  22
ENDBRANCH  20  21
ENDBRANCH   3  20
BRANCH   6  26
ATOM     26  O   UNL     1       5.360   5.074  16.325  0.00  0.00    +0.000 OA
BRANCH  26  27
ATOM     27  C   UNL     1       6.667   4.621  16.333  0.00  0.00    +0.000 C 
BRANCH  27  28
ATOM     28  C   UNL     1       7.360   4.971  17.658  0.00  0.00    +0.000 C 
ATOM     29  F   UNL     1       6.503   4.787  18.730  0.00  0.00    +0.000 F 
ATOM     30  F   UNL     1       8.459   4.147  17.831  0.00  0.00    +0.000 F 
ATOM     31  F   UNL     1       7.790   6.284  17.645  0.00  0.00    +0.000 F 
ENDBRANCH  27  28
ENDBRANCH  26  27
ENDBRANCH   6  26
TORSDOF 9
ENDMDL
MODEL 6
REMARK VINA RESULT:      -7.8      0.783      1.505
REMARK  Name = 
REMARK  10 active torsions:
REMARK  status: ('A' for Active; 'I' for Inactive)
REMARK    1  A    between atoms: C_1  and  C_2
REMARK    2  A    between atoms: C_6  and  C_7
REMARK    3  A    between atoms: C_7  and  N_8
REMARK    4  A    between atoms: C_9  and  C_11
REMARK    5  A    between atoms: C_13  and  O_14
REMARK    6  A    between atoms: O_14  and  C_15
REMARK    7  A    between atoms: C_15  and  C_16
REMARK    8  A    between atoms: C_22  and  O_23
REMARK    9  A    between atoms: O_23  and  C_24
REMARK   10  A    between atoms: C_24  and  C_25
REMARK                            x       y       z     vdW  Elec       q    Type
REMARK                         _______ _______ _______ _____ _____    ______ ____
ROOT
ATOM      1  C   UNL     1       2.649   6.257  18.691  0.00  0.00    +0.000 A 
ATOM      2  C   UNL     1       3.736   6.594  17.831  0.00  0.00    +0.000 A 
ATOM      3  C   UNL     1       4.416   5.618  17.087  0.00  0.00    +0.000 A 
ATOM      4  C   UNL     1       4.004   4.283  17.175  0.00  0.00    +0.000 A 
ATOM      5  C   UNL     1       2.944   3.929  17.996  0.00  0.00    +0.000 A 
ATOM      6  C   UNL     1       2.249   4.897  18.750  0.00  0.00    +0.000 A 
ENDROOT
BRANCH   1   8
ATOM      7  N   UNL     1       1.750   8.564  19.084  0.00  0.00    +0.000 N 
ATOM      8  C   UNL     1       2.058   7.325  19.566  0.00  0.00    +0.000 C 
ATOM      9  O   UNL     1       1.836   7.083  20.740  0.00  0.00    +0.000 OA
ATOM     10  H   UNL     1       1.894   8.764  18.085  0.00  0.00    +0.000 HD
BRANCH   7  11
ATOM     11  C   UNL     1       1.086   9.589  19.877  0.00  0.00    +0.000 C 
BRANCH  11  17
ATOM     12  C   UNL     1      -0.356  13.708  18.472  0.00  0.00    +0.000 C 
ATOM     13  C   UNL     1      -1.079  12.698  19.383  0.00  0.00    +0.000 C 
ATOM     14  C   UNL     1      -2.255  12.006  18.670  0.00  0.00    +0.000 C 
ATOM     15  C   UNL     1      -1.753  10.995  17.636  0.00  0.00    +0.000 C 
ATOM     16  C   UNL     1      -0.885   9.959  18.343  0.00  0.00    +0.000 C 
ATOM     17  C   UNL     1       0.309  10.639  19.044  0.00  0.00    +0.000 C 
ATOM     18  N   UNL     1      -0.163  11.694  19.969  0.00  0.00    +0.000 NA
ATOM     19  H   UNL     1       0.653  12.185  20.412  0.00  0.00    +0.000 HD
ENDBRANCH  11  17
ENDBRANCH   7  11
ENDBRANCH   1   8
BRANCH   3  20
ATOM     20  O   UNL     1       5.466   6.004  16.304  0.00  0.00    +0.000 OA
BRANCH  20  21
ATOM     21  C   UNL     1       5.639   5.649  14.974  0.00  0.00    +0.000 C 
BRANCH  21  22
ATOM     22  C   UNL     1       6.808   4.675  14.794  0.00  0.00    +0.000 C 
ATOM     23  F   UNL     1       6.353   3.444  14.358  0.00  0.00    +0.000 F 
ATOM     24  F   UNL     1       7.722   5.173  13.883  0.00  0.00    +0.000 F 
ATOM     25  F   UNL     1       7.446   4.500  16.012  0.00  0.00    +0.000 F 
ENDBRANCH  21  22
ENDBRANCH  20  21
ENDBRANCH   3  20
BRANCH   6  26
ATOM     26  O   UNL     1       1.228   4.385  19.492  0.00  0.00    +0.000 OA
BRANCH  26  27
ATOM     27  C   UNL     1       1.078   3.131  20.055  0.00  0.00    +0.000 C 
BRANCH  27  28
ATOM     28  C   UNL     1       1.870   3.022  21.366  0.00  0.00    +0.000 C 
ATOM     29  F   UNL     1       2.223   4.275  21.839  0.00  0.00    +0.000 F 
ATOM     30  F   UNL     1       1.088   2.399  22.323  0.00  0.00    +0.000 F 
ATOM     31  F   UNL     1       3.016   2.273  21.177  0.00  0.00    +0.000 F 
ENDBRANCH  27  28
ENDBRANCH  26  27
ENDBRANCH   6  26
TORSDOF 9
ENDMDL
MODEL 7
REMARK VINA RESULT:      -7.8      2.577      3.608
REMARK  Name = 
REMARK  10 active torsions:
REMARK  status: ('A' for Active; 'I' for Inactive)
REMARK    1  A    between atoms: C_1  and  C_2
REMARK    2  A    between atoms: C_6  and  C_7
REMARK    3  A    between atoms: C_7  and  N_8
REMARK    4  A    between atoms: C_9  and  C_11
REMARK    5  A    between atoms: C_13  and  O_14
REMARK    6  A    between atoms: O_14  and  C_15
REMARK    7  A    between atoms: C_15  and  C_16
REMARK    8  A    between atoms: C_22  and  O_23
REMARK    9  A    between atoms: O_23  and  C_24
REMARK   10  A    between atoms: C_24  and  C_25
REMARK                            x       y       z     vdW  Elec       q    Type
REMARK                         _______ _______ _______ _____ _____    ______ ____
ROOT
ATOM      1  C   UNL     1       2.319   7.910  18.413  0.00  0.00    +0.000 A 
ATOM      2  C   UNL     1       3.282   7.400  17.492  0.00  0.00    +0.000 A 
ATOM      3  C   UNL     1       4.109   6.315  17.817  0.00  0.00    +0.000 A 
ATOM      4  C   UNL     1       3.972   5.704  19.069  0.00  0.00    +0.000 A 
ATOM      5  C   UNL     1       3.038   6.173  19.981  0.00  0.00    +0.000 A 
ATOM      6  C   UNL     1       2.197   7.262  19.670  0.00  0.00    +0.000 A 
ENDROOT
BRANCH   1   8
ATOM      7  N   UNL     1       0.237   9.304  18.335  0.00  0.00    +0.000 N 
ATOM      8  C   UNL     1       1.566   9.159  18.058  0.00  0.00    +0.000 C 
ATOM      9  O   UNL     1       2.153  10.080  17.516  0.00  0.00    +0.000 OA
ATOM     10  H   UNL     1      -0.257   8.550  18.832  0.00  0.00    +0.000 HD
BRANCH   7  11
ATOM     11  C   UNL     1      -0.501  10.537  18.097  0.00  0.00    +0.000 C 
BRANCH  11  17
ATOM     12  C   UNL     1      -3.604  10.097  14.750  0.00  0.00    +0.000 C 
ATOM     13  C   UNL     1      -3.290  11.336  15.611  0.00  0.00    +0.000 C 
ATOM     14  C   UNL     1      -4.395  11.625  16.643  0.00  0.00    +0.000 C 
ATOM     15  C   UNL     1      -4.368  10.599  17.779  0.00  0.00    +0.000 C 
ATOM     16  C   UNL     1      -2.998  10.645  18.450  0.00  0.00    +0.000 C 
ATOM     17  C   UNL     1      -1.884  10.335  17.429  0.00  0.00    +0.000 C 
ATOM     18  N   UNL     1      -1.969  11.256  16.273  0.00  0.00    +0.000 NA
ATOM     19  H   UNL     1      -1.236  11.016  15.559  0.00  0.00    +0.000 HD
ENDBRANCH  11  17
ENDBRANCH   7  11
ENDBRANCH   1   8
BRANCH   3  20
ATOM     20  O   UNL     1       5.029   5.894  16.900  0.00  0.00    +0.000 OA
BRANCH  20  21
ATOM     21  C   UNL     1       5.729   4.698  16.967  0.00  0.00    +0.000 C 
BRANCH  21  22
ATOM     22  C   UNL     1       7.229   4.904  16.728  0.00  0.00    +0.000 C 
ATOM     23  F   UNL     1       7.550   6.249  16.779  0.00  0.00    +0.000 F 
ATOM     24  F   UNL     1       7.972   4.222  17.674  0.00  0.00    +0.000 F 
ATOM     25  F   UNL     1       7.560   4.421  15.472  0.00  0.00    +0.000 F 
ENDBRANCH  21  22
ENDBRANCH  20  21
ENDBRANCH   3  20
BRANCH   6  26
ATOM     26  O   UNL     1       1.329   7.586  20.667  0.00  0.00    +0.000 OA
BRANCH  26  27
ATOM     27  C   UNL     1       1.409   8.575  21.631  0.00  0.00    +0.000 C 
BRANCH  27  28
ATOM     28  C   UNL     1       0.009   9.045  22.051  0.00  0.00    +0.000 C 
ATOM     29  F   UNL     1      -0.333  10.223  21.409  0.00  0.00    +0.000 F 
ATOM     30  F   UNL     1      -0.920   8.077  21.710  0.00  0.00    +0.000 F 
ATOM     31  F   UNL     1      -0.043   9.244  23.418  0.00  0.00    +0.000 F 
ENDBRANCH  27  28
ENDBRANCH  26  27
ENDBRANCH   6  26
TORSDOF 9
ENDMDL
MODEL 8
REMARK VINA RESULT:      -7.8      1.672      5.203
REMARK  Name = 
REMARK  10 active torsions:
REMARK  status: ('A' for Active; 'I' for Inactive)
REMARK    1  A    between atoms: C_1  and  C_2
REMARK    2  A    between atoms: C_6  and  C_7
REMARK    3  A    between atoms: C_7  and  N_8
REMARK    4  A    between atoms: C_9  and  C_11
REMARK    5  A    between atoms: C_13  and  O_14
REMARK    6  A    between atoms: O_14  and  C_15
REMARK    7  A    between atoms: C_15  and  C_16
REMARK    8  A    between atoms: C_22  and  O_23
REMARK    9  A    between atoms: O_23  and  C_24
REMARK   10  A    between atoms: C_24  and  C_25
REMARK                            x       y       z     vdW  Elec       q    Type
REMARK                         _______ _______ _______ _____ _____    ______ ____
ROOT
ATOM      1  C   UNL     1       2.918   6.457  17.931  0.00  0.00    +0.000 A 
ATOM      2  C   UNL     1       2.013   5.425  18.321  0.00  0.00    +0.000 A 
ATOM      3  C   UNL     1       2.317   4.069  18.129  0.00  0.00    +0.000 A 
ATOM      4  C   UNL     1       3.547   3.719  17.559  0.00  0.00    +0.000 A 
ATOM      5  C   UNL     1       4.449   4.701  17.179  0.00  0.00    +0.000 A 
ATOM      6  C   UNL     1       4.161   6.069  17.366  0.00  0.00    +0.000 A 
ENDROOT
BRANCH   1   8
ATOM      7  N   UNL     1       1.817   8.363  19.130  0.00  0.00    +0.000 N 
ATOM      8  C   UNL     1       2.473   7.888  18.032  0.00  0.00    +0.000 C 
ATOM      9  O   UNL     1       2.711   8.655  17.116  0.00  0.00    +0.000 OA
ATOM     10  H   UNL     1       1.650   7.733  19.927  0.00  0.00    +0.000 HD
BRANCH   7  11
ATOM     11  C   UNL     1       1.460   9.764  19.305  0.00  0.00    +0.000 C 
BRANCH  11  17
ATOM     12  C   UNL     1      -2.803   9.642  17.620  0.00  0.00    +0.000 C 
ATOM     13  C   UNL     1      -1.749  10.758  17.485  0.00  0.00    +0.000 C 
ATOM     14  C   UNL     1      -2.088  11.989  18.344  0.00  0.00    +0.000 C 
ATOM     15  C   UNL     1      -1.862  11.701  19.830  0.00  0.00    +0.000 C 
ATOM     16  C   UNL     1      -0.403  11.302  20.037  0.00  0.00    +0.000 C 
ATOM     17  C   UNL     1      -0.058  10.056  19.196  0.00  0.00    +0.000 C 
ATOM     18  N   UNL     1      -0.375  10.288  17.768  0.00  0.00    +0.000 NA
ATOM     19  H   UNL     1      -0.179   9.424  17.205  0.00  0.00    +0.000 HD
ENDBRANCH  11  17
ENDBRANCH   7  11
ENDBRANCH   1   8
BRANCH   3  20
ATOM     20  O   UNL     1       1.395   3.132  18.499  0.00  0.00    +0.000 OA
BRANCH  20  21
ATOM     21  C   UNL     1       1.485   2.330  19.628  0.00  0.00    +0.000 C 
BRANCH  21  22
ATOM     22  C   UNL     1       1.385   3.153  20.917  0.00  0.00    +0.000 C 
ATOM     23  F   UNL     1       0.492   4.198  20.759  0.00  0.00    +0.000 F 
ATOM     24  F   UNL     1       0.975   2.358  21.972  0.00  0.00    +0.000 F 
ATOM     25  F   UNL     1       2.630   3.681  21.218  0.00  0.00    +0.000 F 
ENDBRANCH  21  22
ENDBRANCH  20  21
ENDBRANCH   3  20
BRANCH   6  26
ATOM     26  O   UNL     1       5.156   6.901  16.953  0.00  0.00    +0.000 OA
BRANCH  26  27
ATOM     27  C   UNL     1       6.058   7.646  17.691  0.00  0.00    +0.000 C 
BRANCH  27  28
ATOM     28  C   UNL     1       7.490   7.127  17.491  0.00  0.00    +0.000 C 
ATOM     29  F   UNL     1       7.958   6.508  18.637  0.00  0.00    +0.000 F 
ATOM     30  F   UNL     1       7.502   6.204  16.460  0.00  0.00    +0.000 F 
ATOM     31  F   UNL     1       8.339   8.167  17.162  0.00  0.00    +0.000 F 
ENDBRANCH  27  28
ENDBRANCH  26  27
ENDBRANCH   6  26
TORSDOF 9
ENDMDL
MODEL 9
REMARK VINA RESULT:      -7.8      1.908      2.611
REMARK  Name = 
REMARK  10 active torsions:
REMARK  status: ('A' for Active; 'I' for Inactive)
REMARK    1  A    between atoms: C_1  and  C_2
REMARK    2  A    between atoms: C_6  and  C_7
REMARK    3  A    between atoms: C_7  and  N_8
REMARK    4  A    between atoms: C_9  and  C_11
REMARK    5  A    between atoms: C_13  and  O_14
REMARK    6  A    between atoms: O_14  and  C_15
REMARK    7  A    between atoms: C_15  and  C_16
REMARK    8  A    between atoms: C_22  and  O_23
REMARK    9  A    between atoms: O_23  and  C_24
REMARK   10  A    between atoms: C_24  and  C_25
REMARK                            x       y       z     vdW  Elec       q    Type
REMARK                         _______ _______ _______ _____ _____    ______ ____
ROOT
ATOM      1  C   UNL     1       3.468   6.805  18.328  0.00  0.00    +0.000 A 
ATOM      2  C   UNL     1       4.619   6.774  17.486  0.00  0.00    +0.000 A 
ATOM      3  C   UNL     1       5.624   5.809  17.648  0.00  0.00    +0.000 A 
ATOM      4  C   UNL     1       5.484   4.840  18.649  0.00  0.00    +0.000 A 
ATOM      5  C   UNL     1       4.372   4.841  19.476  0.00  0.00    +0.000 A 
ATOM      6  C   UNL     1       3.351   5.802  19.326  0.00  0.00    +0.000 A 
ENDROOT
BRANCH   1   8
ATOM      7  N   UNL     1       1.865   8.482  19.277  0.00  0.00    +0.000 N 
ATOM      8  C   UNL     1       2.501   7.946  18.195  0.00  0.00    +0.000 C 
ATOM      9  O   UNL     1       2.280   8.419  17.094  0.00  0.00    +0.000 OA
ATOM     10  H   UNL     1       2.078   8.119  20.216  0.00  0.00    +0.000 HD
BRANCH   7  11
ATOM     11  C   UNL     1       1.000   9.651  19.198  0.00  0.00    +0.000 C 
BRANCH  11  17
ATOM     12  C   UNL     1      -1.892  11.670  22.129  0.00  0.00    +0.000 C 
ATOM     13  C   UNL     1      -0.415  11.289  22.347  0.00  0.00    +0.000 C 
ATOM     14  C   UNL     1      -0.257  10.079  23.285  0.00  0.00    +0.000 C 
ATOM     15  C   UNL     1      -0.681   8.784  22.587  0.00  0.00    +0.000 C 
ATOM     16  C   UNL     1       0.176   8.596  21.338  0.00  0.00    +0.000 C 
ATOM     17  C   UNL     1       0.009   9.793  20.381  0.00  0.00    +0.000 C 
ATOM     18  N   UNL     1       0.313  11.063  21.079  0.00  0.00    +0.000 NA
ATOM     19  H   UNL     1       0.158  11.880  20.438  0.00  0.00    +0.000 HD
ENDBRANCH  11  17
ENDBRANCH   7  11
ENDBRANCH   1   8
BRANCH   3  20
ATOM     20  O   UNL     1       6.713   5.853  16.826  0.00  0.00    +0.000 OA
BRANCH  20  21
ATOM     21  C   UNL     1       7.144   4.809  16.020  0.00  0.00    +0.000 C 
BRANCH  21  22
ATOM     22  C   UNL     1       6.124   4.481  14.924  0.00  0.00    +0.000 C 
ATOM     23  F   UNL     1       5.501   5.633  14.478  0.00  0.00    +0.000 F 
ATOM     24  F   UNL     1       6.740   3.853  13.856  0.00  0.00    +0.000 F 
ATOM     25  F   UNL     1       5.158   3.632  15.440  0.00  0.00    +0.000 F 
ENDBRANCH  21  22
ENDBRANCH  20  21
ENDBRANCH   3  20
BRANCH   6  26
ATOM     26  O   UNL     1       2.324   5.654  20.207  0.00  0.00    +0.000 OA
BRANCH  26  27
ATOM     27  C   UNL     1       1.314   4.709  20.249  0.00  0.00    +0.000 C 
BRANCH  27  28
ATOM     28  C   UNL     1       1.743   3.486  21.072  0.00  0.00    +0.000 C 
ATOM     29  F   UNL     1       0.640   2.786  21.533  0.00  0.00    +0.000 F 
ATOM     30  F   UNL     1       2.496   2.640  20.277  0.00  0.00    +0.000 F 
ATOM     31  F   UNL     1       2.512   3.877  22.153  0.00  0.00    +0.000 F 
ENDBRANCH  27  28
ENDBRANCH  26  27
ENDBRANCH   6  26
TORSDOF 9
ENDMDL
