MODEL 1
REMARK VINA RESULT:      -7.7      0.000      0.000
REMARK  Name = 
REMARK  7 active torsions:
REMARK  status: ('A' for Active; 'I' for Inactive)
REMARK    1  A    between atoms: C_1  and  C_2
REMARK    2  A    between atoms: C_4  and  C_5
REMARK    3  A    between atoms: C_5  and  O_7
REMARK    4  A    between atoms: O_7  and  N_8
REMARK    5  A    between atoms: C_9  and  C_11
REMARK    6  A    between atoms: C_12  and  C_13
REMARK    7  A    between atoms: C_23  and  C_24
REMARK                            x       y       z     vdW  Elec       q    Type
REMARK                         _______ _______ _______ _____ _____    ______ ____
ROOT
ATOM      1  N   UNL     1       2.640   6.507  20.190  0.00  0.00    +0.000 N 
ATOM      2  C   UNL     1       2.525   5.473  19.287  0.00  0.00    +0.000 C 
ATOM      3  N   UNL     1       1.813   5.453  18.213  0.00  0.00    +0.000 NA
ATOM      4  H   UNL     1       3.520   6.572  20.702  0.00  0.00    +0.000 HD
ATOM      5  H   UNL     1       1.263   6.314  18.164  0.00  0.00    +0.000 HD
ENDROOT
BRANCH   2   6
ATOM      6  C   UNL     1       3.269   4.296  19.631  0.00  0.00    +0.000 A 
ATOM      7  C   UNL     1       4.479   3.756  19.071  0.00  0.00    +0.000 A 
ATOM      8  N   UNL     1       4.846   2.664  19.761  0.00  0.00    +0.000 NA
ATOM      9  O   UNL     1       3.895   2.463  20.736  0.00  0.00    +0.000 OA
ATOM     10  C   UNL     1       2.962   3.445  20.669  0.00  0.00    +0.000 A 
ATOM     11  C   UNL     1       1.867   3.393  21.658  0.00  0.00    +0.000 C 
BRANCH   7  12
ATOM     12  C   UNL     1       5.268   4.237  17.919  0.00  0.00    +0.000 A 
ATOM     13  C   UNL     1       4.913   3.927  16.588  0.00  0.00    +0.000 A 
ATOM     14 CL   UNL     1       3.384   3.250  16.131  0.00  0.00    +0.000 Cl
ATOM     15  C   UNL     1       5.770   4.222  15.517  0.00  0.00    +0.000 A 
ATOM     16  C   UNL     1       6.944   4.933  15.729  0.00  0.00    +0.000 A 
ATOM     17  C   UNL     1       7.262   5.346  17.016  0.00  0.00    +0.000 A 
ATOM     18  C   UNL     1       6.452   4.986  18.105  0.00  0.00    +0.000 A 
ATOM     19 CL   UNL     1       7.046   5.489  19.656  0.00  0.00    +0.000 Cl
ENDBRANCH   7  12
ENDBRANCH   2   6
BRANCH   1  20
ATOM     20  O   UNL     1       2.184   7.735  19.684  0.00  0.00    +0.000 OA
BRANCH  20  21
ATOM     21  C   UNL     1       1.401   8.452  20.568  0.00  0.00    +0.000 C 
ATOM     22  O   UNL     1       1.464   8.336  21.795  0.00  0.00    +0.000 OA
BRANCH  21  26
ATOM     23  C   UNL     1      -1.828  12.122  19.212  0.00  0.00    +0.000 C 
ATOM     24  C   UNL     1      -0.832  11.052  19.376  0.00  0.00    +0.000 A 
ATOM     25  C   UNL     1      -0.384  10.308  20.440  0.00  0.00    +0.000 A 
ATOM     26  C   UNL     1       0.582   9.437  19.877  0.00  0.00    +0.000 A 
ATOM     27  N   UNL     1       0.717   9.663  18.561  0.00  0.00    +0.000 NA
ATOM     28  O   UNL     1      -0.177  10.667  18.252  0.00  0.00    +0.000 OA
ENDBRANCH  21  26
ENDBRANCH  20  21
ENDBRANCH   1  20
TORSDOF 5
ENDMDL
MODEL 2
REMARK VINA RESULT:      -7.5      1.222      1.230
REMARK  Name = 
REMARK  7 active torsions:
REMARK  status: ('A' for Active; 'I' for Inactive)
REMARK    1  A    between atoms: C_1  and  C_2
REMARK    2  A    between atoms: C_4  and  C_5
REMARK    3  A    between atoms: C_5  and  O_7
REMARK    4  A    between atoms: O_7  and  N_8
REMARK    5  A    between atoms: C_9  and  C_11
REMARK    6  A    between atoms: C_12  and  C_13
REMARK    7  A    between atoms: C_23  and  C_24
REMARK                            x       y       z     vdW  Elec       q    Type
REMARK                         _______ _______ _______ _____ _____    ______ ____
ROOT
ATOM      1  N   UNL     1       2.625   6.448  20.370  0.00  0.00    +0.000 N 
ATOM      2  C   UNL     1       2.528   5.460  19.415  0.00  0.00    +0.000 C 
ATOM      3  N   UNL     1       1.824   5.486  18.336  0.00  0.00    +0.000 NA
ATOM      4  H   UNL     1       3.500   6.498  20.891  0.00  0.00    +0.000 HD
ATOM      5  H   UNL     1       1.264   6.341  18.326  0.00  0.00    +0.000 HD
ENDROOT
BRANCH   2   6
ATOM      6  C   UNL     1       3.285   4.276  19.705  0.00  0.00    +0.000 A 
ATOM      7  C   UNL     1       4.480   3.756  19.096  0.00  0.00    +0.000 A 
ATOM      8  N   UNL     1       4.869   2.646  19.745  0.00  0.00    +0.000 NA
ATOM      9  O   UNL     1       3.946   2.414  20.739  0.00  0.00    +0.000 OA
ATOM     10  C   UNL     1       3.009   3.395  20.726  0.00  0.00    +0.000 A 
ATOM     11  C   UNL     1       1.941   3.311  21.743  0.00  0.00    +0.000 C 
BRANCH   7  12
ATOM     12  C   UNL     1       5.236   4.272  17.938  0.00  0.00    +0.000 A 
ATOM     13  C   UNL     1       4.853   3.987  16.608  0.00  0.00    +0.000 A 
ATOM     14 CL   UNL     1       3.321   3.302  16.173  0.00  0.00    +0.000 Cl
ATOM     15  C   UNL     1       5.681   4.316  15.525  0.00  0.00    +0.000 A 
ATOM     16  C   UNL     1       6.851   5.036  15.725  0.00  0.00    +0.000 A 
ATOM     17  C   UNL     1       7.195   5.425  17.013  0.00  0.00    +0.000 A 
ATOM     18  C   UNL     1       6.415   5.031  18.112  0.00  0.00    +0.000 A 
ATOM     19 CL   UNL     1       7.040   5.507  19.660  0.00  0.00    +0.000 Cl
ENDBRANCH   7  12
ENDBRANCH   2   6
BRANCH   1  20
ATOM     20  O   UNL     1       2.156   7.694  19.923  0.00  0.00    +0.000 OA
BRANCH  20  21
ATOM     21  C   UNL     1       1.156   8.234  20.708  0.00  0.00    +0.000 C 
ATOM     22  O   UNL     1       0.461   7.576  21.487  0.00  0.00    +0.000 OA
BRANCH  21  26
ATOM     23  C   UNL     1       0.835  13.056  19.166  0.00  0.00    +0.000 C 
ATOM     24  C   UNL     1       0.938  11.749  19.832  0.00  0.00    +0.000 A 
ATOM     25  C   UNL     1       0.980  10.447  19.396  0.00  0.00    +0.000 A 
ATOM     26  C   UNL     1       1.104   9.683  20.584  0.00  0.00    +0.000 A 
ATOM     27  N   UNL     1       1.113  10.480  21.663  0.00  0.00    +0.000 NA
ATOM     28  O   UNL     1       1.021  11.771  21.186  0.00  0.00    +0.000 OA
ENDBRANCH  21  26
ENDBRANCH  20  21
ENDBRANCH   1  20
TORSDOF 5
ENDMDL
MODEL 3
REMARK VINA RESULT:      -7.5      0.375      1.843
REMARK  Name = 
REMARK  7 active torsions:
REMARK  status: ('A' for Active; 'I' for Inactive)
REMARK    1  A    between atoms: C_1  and  C_2
REMARK    2  A    between atoms: C_4  and  C_5
REMARK    3  A    between atoms: C_5  and  O_7
REMARK    4  A    between atoms: O_7  and  N_8
REMARK    5  A    between atoms: C_9  and  C_11
REMARK    6  A    between atoms: C_12  and  C_13
REMARK    7  A    between atoms: C_23  and  C_24
REMARK                            x       y       z     vdW  Elec       q    Type
REMARK                         _______ _______ _______ _____ _____    ______ ____
ROOT
ATOM      1  N   UNL     1       2.682   6.538  20.162  0.00  0.00    +0.000 N 
ATOM      2  C   UNL     1       2.551   5.479  19.291  0.00  0.00    +0.000 C 
ATOM      3  N   UNL     1       1.793   5.416  18.251  0.00  0.00    +0.000 NA
ATOM      4  H   UNL     1       3.581   6.637  20.632  0.00  0.00    +0.000 HD
ATOM      5  H   UNL     1       1.222   6.263  18.205  0.00  0.00    +0.000 HD
ENDROOT
BRANCH   2   6
ATOM      6  C   UNL     1       3.337   4.329  19.631  0.00  0.00    +0.000 A 
ATOM      7  C   UNL     1       4.602   3.874  19.117  0.00  0.00    +0.000 A 
ATOM      8  N   UNL     1       4.990   2.775  19.785  0.00  0.00    +0.000 NA
ATOM      9  O   UNL     1       4.001   2.487  20.698  0.00  0.00    +0.000 OA
ATOM     10  C   UNL     1       3.023   3.422  20.617  0.00  0.00    +0.000 A 
ATOM     11  C   UNL     1       1.881   3.274  21.543  0.00  0.00    +0.000 C 
BRANCH   7  12
ATOM     12  C   UNL     1       5.424   4.440  18.029  0.00  0.00    +0.000 A 
ATOM     13  C   UNL     1       6.553   5.248  18.288  0.00  0.00    +0.000 A 
ATOM     14 CL   UNL     1       7.291   5.401  19.850  0.00  0.00    +0.000 Cl
ATOM     15  C   UNL     1       7.209   5.937  17.257  0.00  0.00    +0.000 A 
ATOM     16  C   UNL     1       6.832   5.750  15.934  0.00  0.00    +0.000 A 
ATOM     17  C   UNL     1       5.794   4.876  15.643  0.00  0.00    +0.000 A 
ATOM     18  C   UNL     1       5.079   4.244  16.673  0.00  0.00    +0.000 A 
ATOM     19 CL   UNL     1       3.745   3.267  16.145  0.00  0.00    +0.000 Cl
ENDBRANCH   7  12
ENDBRANCH   2   6
BRANCH   1  20
ATOM     20  O   UNL     1       2.174   7.742  19.647  0.00  0.00    +0.000 OA
BRANCH  20  21
ATOM     21  C   UNL     1       1.379   8.442  20.533  0.00  0.00    +0.000 C 
ATOM     22  O   UNL     1       1.338   8.222  21.746  0.00  0.00    +0.000 OA
BRANCH  21  26
ATOM     23  C   UNL     1      -1.788  12.131  19.082  0.00  0.00    +0.000 C 
ATOM     24  C   UNL     1      -0.733  11.134  19.323  0.00  0.00    +0.000 A 
ATOM     25  C   UNL     1      -0.558  10.118  20.230  0.00  0.00    +0.000 A 
ATOM     26  C   UNL     1       0.687   9.541  19.874  0.00  0.00    +0.000 A 
ATOM     27  N   UNL     1       1.231  10.189  18.832  0.00  0.00    +0.000 NA
ATOM     28  O   UNL     1       0.333  11.176  18.485  0.00  0.00    +0.000 OA
ENDBRANCH  21  26
ENDBRANCH  20  21
ENDBRANCH   1  20
TORSDOF 5
ENDMDL
MODEL 4
REMARK VINA RESULT:      -7.5      3.370      6.816
REMARK  Name = 
REMARK  7 active torsions:
REMARK  status: ('A' for Active; 'I' for Inactive)
REMARK    1  A    between atoms: C_1  and  C_2
REMARK    2  A    between atoms: C_4  and  C_5
REMARK    3  A    between atoms: C_5  and  O_7
REMARK    4  A    between atoms: O_7  and  N_8
REMARK    5  A    between atoms: C_9  and  C_11
REMARK    6  A    between atoms: C_12  and  C_13
REMARK    7  A    between atoms: C_23  and  C_24
REMARK                            x       y       z     vdW  Elec       q    Type
REMARK                         _______ _______ _______ _____ _____    ______ ____
ROOT
ATOM      1  N   UNL     1       5.994   3.792  18.021  0.00  0.00    +0.000 N 
ATOM      2  C   UNL     1       5.216   4.520  18.893  0.00  0.00    +0.000 C 
ATOM      3  N   UNL     1       5.611   5.431  19.715  0.00  0.00    +0.000 NA
ATOM      4  H   UNL     1       5.543   3.466  17.166  0.00  0.00    +0.000 HD
ATOM      5  H   UNL     1       6.631   5.485  19.684  0.00  0.00    +0.000 HD
ENDROOT
BRANCH   2   6
ATOM      6  C   UNL     1       3.824   4.175  18.878  0.00  0.00    +0.000 A 
ATOM      7  C   UNL     1       2.653   5.007  18.793  0.00  0.00    +0.000 A 
ATOM      8  N   UNL     1       1.555   4.236  18.745  0.00  0.00    +0.000 NA
ATOM      9  O   UNL     1       1.976   2.928  18.827  0.00  0.00    +0.000 OA
ATOM     10  C   UNL     1       3.330   2.890  18.890  0.00  0.00    +0.000 A 
ATOM     11  C   UNL     1       3.957   1.555  18.968  0.00  0.00    +0.000 C 
BRANCH   7  12
ATOM     12  C   UNL     1       2.558   6.481  18.764  0.00  0.00    +0.000 A 
ATOM     13  C   UNL     1       1.836   7.202  19.741  0.00  0.00    +0.000 A 
ATOM     14 CL   UNL     1       1.271   6.511  21.227  0.00  0.00    +0.000 Cl
ATOM     15  C   UNL     1       1.590   8.576  19.598  0.00  0.00    +0.000 A 
ATOM     16  C   UNL     1       2.149   9.287  18.544  0.00  0.00    +0.000 A 
ATOM     17  C   UNL     1       2.953   8.620  17.630  0.00  0.00    +0.000 A 
ATOM     18  C   UNL     1       3.140   7.231  17.718  0.00  0.00    +0.000 A 
ATOM     19 CL   UNL     1       4.085   6.538  16.438  0.00  0.00    +0.000 Cl
ENDBRANCH   7  12
ENDBRANCH   2   6
BRANCH   1  20
ATOM     20  O   UNL     1       7.264   4.355  17.814  0.00  0.00    +0.000 OA
BRANCH  20  21
ATOM     21  C   UNL     1       7.270   5.428  16.945  0.00  0.00    +0.000 C 
ATOM     22  O   UNL     1       7.487   6.593  17.290  0.00  0.00    +0.000 OA
BRANCH  21  26
ATOM     23  C   UNL     1       5.832   3.306  12.567  0.00  0.00    +0.000 C 
ATOM     24  C   UNL     1       6.403   4.044  13.705  0.00  0.00    +0.000 A 
ATOM     25  C   UNL     1       6.178   4.050  15.059  0.00  0.00    +0.000 A 
ATOM     26  C   UNL     1       7.102   4.999  15.565  0.00  0.00    +0.000 A 
ATOM     27  N   UNL     1       7.819   5.541  14.569  0.00  0.00    +0.000 NA
ATOM     28  O   UNL     1       7.385   4.932  13.409  0.00  0.00    +0.000 OA
ENDBRANCH  21  26
ENDBRANCH  20  21
ENDBRANCH   1  20
TORSDOF 5
ENDMDL
MODEL 5
REMARK VINA RESULT:      -7.4      3.038      6.225
REMARK  Name = 
REMARK  7 active torsions:
REMARK  status: ('A' for Active; 'I' for Inactive)
REMARK    1  A    between atoms: C_1  and  C_2
REMARK    2  A    between atoms: C_4  and  C_5
REMARK    3  A    between atoms: C_5  and  O_7
REMARK    4  A    between atoms: O_7  and  N_8
REMARK    5  A    between atoms: C_9  and  C_11
REMARK    6  A    between atoms: C_12  and  C_13
REMARK    7  A    between atoms: C_23  and  C_24
REMARK                            x       y       z     vdW  Elec       q    Type
REMARK                         _______ _______ _______ _____ _____    ______ ____
ROOT
ATOM      1  N   UNL     1       5.420   5.247  19.659  0.00  0.00    +0.000 N 
ATOM      2  C   UNL     1       4.673   4.095  19.559  0.00  0.00    +0.000 C 
ATOM      3  N   UNL     1       5.020   2.988  18.997  0.00  0.00    +0.000 NA
ATOM      4  H   UNL     1       5.237   5.844  20.466  0.00  0.00    +0.000 HD
ATOM      5  H   UNL     1       5.931   3.114  18.550  0.00  0.00    +0.000 HD
ENDROOT
BRANCH   2   6
ATOM      6  C   UNL     1       3.359   4.187  20.126  0.00  0.00    +0.000 A 
ATOM      7  C   UNL     1       2.342   5.194  19.976  0.00  0.00    +0.000 A 
ATOM      8  N   UNL     1       1.240   4.824  20.648  0.00  0.00    +0.000 NA
ATOM      9  O   UNL     1       1.520   3.619  21.253  0.00  0.00    +0.000 OA
ATOM     10  C   UNL     1       2.778   3.231  20.929  0.00  0.00    +0.000 A 
ATOM     11  C   UNL     1       3.243   1.944  21.485  0.00  0.00    +0.000 C 
BRANCH   7  12
ATOM     12  C   UNL     1       2.397   6.470  19.235  0.00  0.00    +0.000 A 
ATOM     13  C   UNL     1       1.986   7.690  19.817  0.00  0.00    +0.000 A 
ATOM     14 CL   UNL     1       1.690   7.898  21.513  0.00  0.00    +0.000 Cl
ATOM     15  C   UNL     1       1.859   8.857  19.049  0.00  0.00    +0.000 A 
ATOM     16  C   UNL     1       2.245   8.869  17.715  0.00  0.00    +0.000 A 
ATOM     17  C   UNL     1       2.757   7.709  17.149  0.00  0.00    +0.000 A 
ATOM     18  C   UNL     1       2.812   6.516  17.886  0.00  0.00    +0.000 A 
ATOM     19 CL   UNL     1       3.376   5.134  16.999  0.00  0.00    +0.000 Cl
ENDBRANCH   7  12
ENDBRANCH   2   6
BRANCH   1  20
ATOM     20  O   UNL     1       6.786   5.043  19.402  0.00  0.00    +0.000 OA
BRANCH  20  21
ATOM     21  C   UNL     1       7.338   5.961  18.531  0.00  0.00    +0.000 C 
ATOM     22  O   UNL     1       8.142   6.835  18.869  0.00  0.00    +0.000 OA
BRANCH  21  26
ATOM     23  C   UNL     1       6.259   3.965  13.994  0.00  0.00    +0.000 C 
ATOM     24  C   UNL     1       6.486   4.746  15.220  0.00  0.00    +0.000 A 
ATOM     25  C   UNL     1       7.016   4.466  16.456  0.00  0.00    +0.000 A 
ATOM     26  C   UNL     1       6.943   5.696  17.156  0.00  0.00    +0.000 A 
ATOM     27  N   UNL     1       6.384   6.646  16.391  0.00  0.00    +0.000 NA
ATOM     28  O   UNL     1       6.110   6.049  15.178  0.00  0.00    +0.000 OA
ENDBRANCH  21  26
ENDBRANCH  20  21
ENDBRANCH   1  20
TORSDOF 5
ENDMDL
MODEL 6
REMARK VINA RESULT:      -7.4      3.113      6.069
REMARK  Name = 
REMARK  7 active torsions:
REMARK  status: ('A' for Active; 'I' for Inactive)
REMARK    1  A    between atoms: C_1  and  C_2
REMARK    2  A    between atoms: C_4  and  C_5
REMARK    3  A    between atoms: C_5  and  O_7
REMARK    4  A    between atoms: O_7  and  N_8
REMARK    5  A    between atoms: C_9  and  C_11
REMARK    6  A    between atoms: C_12  and  C_13
REMARK    7  A    between atoms: C_23  and  C_24
REMARK                            x       y       z     vdW  Elec       q    Type
REMARK                         _______ _______ _______ _____ _____    ______ ____
ROOT
ATOM      1  N   UNL     1       5.439   5.166  19.629  0.00  0.00    +0.000 N 
ATOM      2  C   UNL     1       4.708   4.001  19.554  0.00  0.00    +0.000 C 
ATOM      3  N   UNL     1       5.070   2.888  19.013  0.00  0.00    +0.000 NA
ATOM      4  H   UNL     1       5.250   5.775  20.424  0.00  0.00    +0.000 HD
ATOM      5  H   UNL     1       5.978   3.019  18.561  0.00  0.00    +0.000 HD
ENDROOT
BRANCH   2   6
ATOM      6  C   UNL     1       3.395   4.085  20.123  0.00  0.00    +0.000 A 
ATOM      7  C   UNL     1       2.354   5.061  19.937  0.00  0.00    +0.000 A 
ATOM      8  N   UNL     1       1.263   4.693  20.628  0.00  0.00    +0.000 NA
ATOM      9  O   UNL     1       1.574   3.521  21.281  0.00  0.00    +0.000 OA
ATOM     10  C   UNL     1       2.840   3.150  20.967  0.00  0.00    +0.000 A 
ATOM     11  C   UNL     1       3.337   1.898  21.573  0.00  0.00    +0.000 C 
BRANCH   7  12
ATOM     12  C   UNL     1       2.376   6.307  19.144  0.00  0.00    +0.000 A 
ATOM     13  C   UNL     1       2.909   6.351  17.837  0.00  0.00    +0.000 A 
ATOM     14 CL   UNL     1       3.289   4.941  16.902  0.00  0.00    +0.000 Cl
ATOM     15  C   UNL     1       3.102   7.570  17.170  0.00  0.00    +0.000 A 
ATOM     16  C   UNL     1       2.665   8.760  17.736  0.00  0.00    +0.000 A 
ATOM     17  C   UNL     1       2.037   8.730  18.974  0.00  0.00    +0.000 A 
ATOM     18  C   UNL     1       1.912   7.526  19.685  0.00  0.00    +0.000 A 
ATOM     19 CL   UNL     1       1.200   7.679  21.261  0.00  0.00    +0.000 Cl
ENDBRANCH   7  12
ENDBRANCH   2   6
BRANCH   1  20
ATOM     20  O   UNL     1       6.807   4.976  19.372  0.00  0.00    +0.000 OA
BRANCH  20  21
ATOM     21  C   UNL     1       7.353   5.911  18.514  0.00  0.00    +0.000 C 
ATOM     22  O   UNL     1       8.155   6.781  18.863  0.00  0.00    +0.000 OA
BRANCH  21  26
ATOM     23  C   UNL     1       6.266   3.986  13.948  0.00  0.00    +0.000 C 
ATOM     24  C   UNL     1       6.494   4.747  15.186  0.00  0.00    +0.000 A 
ATOM     25  C   UNL     1       7.029   4.449  16.415  0.00  0.00    +0.000 A 
ATOM     26  C   UNL     1       6.955   5.667  17.136  0.00  0.00    +0.000 A 
ATOM     27  N   UNL     1       6.389   6.628  16.388  0.00  0.00    +0.000 NA
ATOM     28  O   UNL     1       6.113   6.049  15.167  0.00  0.00    +0.000 OA
ENDBRANCH  21  26
ENDBRANCH  20  21
ENDBRANCH   1  20
TORSDOF 5
ENDMDL
MODEL 7
REMARK VINA RESULT:      -7.4      1.271      2.216
REMARK  Name = 
REMARK  7 active torsions:
REMARK  status: ('A' for Active; 'I' for Inactive)
REMARK    1  A    between atoms: C_1  and  C_2
REMARK    2  A    between atoms: C_4  and  C_5
REMARK    3  A    between atoms: C_5  and  O_7
REMARK    4  A    between atoms: O_7  and  N_8
REMARK    5  A    between atoms: C_9  and  C_11
REMARK    6  A    between atoms: C_12  and  C_13
REMARK    7  A    between atoms: C_23  and  C_24
REMARK                            x       y       z     vdW  Elec       q    Type
REMARK                         _______ _______ _______ _____ _____    ______ ____
ROOT
ATOM      1  N   UNL     1       2.542   6.531  20.370  0.00  0.00    +0.000 N 
ATOM      2  C   UNL     1       2.577   5.590  19.365  0.00  0.00    +0.000 C 
ATOM      3  N   UNL     1       1.989   5.651  18.220  0.00  0.00    +0.000 NA
ATOM      4  H   UNL     1       3.356   6.578  20.983  0.00  0.00    +0.000 HD
ATOM      5  H   UNL     1       1.408   6.492  18.190  0.00  0.00    +0.000 HD
ENDROOT
BRANCH   2   6
ATOM      6  C   UNL     1       3.334   4.413  19.679  0.00  0.00    +0.000 A 
ATOM      7  C   UNL     1       4.580   3.931  19.143  0.00  0.00    +0.000 A 
ATOM      8  N   UNL     1       4.944   2.812  19.790  0.00  0.00    +0.000 NA
ATOM      9  O   UNL     1       3.958   2.537  20.711  0.00  0.00    +0.000 OA
ATOM     10  C   UNL     1       3.005   3.501  20.655  0.00  0.00    +0.000 A 
ATOM     11  C   UNL     1       1.870   3.371  21.592  0.00  0.00    +0.000 C 
BRANCH   7  12
ATOM     12  C   UNL     1       5.405   4.490  18.054  0.00  0.00    +0.000 A 
ATOM     13  C   UNL     1       6.536   5.297  18.312  0.00  0.00    +0.000 A 
ATOM     14 CL   UNL     1       7.270   5.455  19.875  0.00  0.00    +0.000 Cl
ATOM     15  C   UNL     1       7.195   5.979  17.279  0.00  0.00    +0.000 A 
ATOM     16  C   UNL     1       6.820   5.788  15.956  0.00  0.00    +0.000 A 
ATOM     17  C   UNL     1       5.781   4.914  15.667  0.00  0.00    +0.000 A 
ATOM     18  C   UNL     1       5.062   4.288  16.698  0.00  0.00    +0.000 A 
ATOM     19 CL   UNL     1       3.727   3.312  16.172  0.00  0.00    +0.000 Cl
ENDBRANCH   7  12
ENDBRANCH   2   6
BRANCH   1  20
ATOM     20  O   UNL     1       2.086   7.786  19.935  0.00  0.00    +0.000 OA
BRANCH  20  21
ATOM     21  C   UNL     1       1.097   8.332  20.729  0.00  0.00    +0.000 C 
ATOM     22  O   UNL     1       0.395   7.677  21.504  0.00  0.00    +0.000 OA
BRANCH  21  26
ATOM     23  C   UNL     1       0.808  13.177  19.250  0.00  0.00    +0.000 C 
ATOM     24  C   UNL     1       0.912  11.860  19.898  0.00  0.00    +0.000 A 
ATOM     25  C   UNL     1       0.914  10.562  19.448  0.00  0.00    +0.000 A 
ATOM     26  C   UNL     1       1.067   9.784  20.622  0.00  0.00    +0.000 A 
ATOM     27  N   UNL     1       1.130  10.569  21.708  0.00  0.00    +0.000 NA
ATOM     28  O   UNL     1       1.044  11.866  21.248  0.00  0.00    +0.000 OA
ENDBRANCH  21  26
ENDBRANCH  20  21
ENDBRANCH   1  20
TORSDOF 5
ENDMDL
MODEL 8
REMARK VINA RESULT:      -7.3      3.421      6.734
REMARK  Name = 
REMARK  7 active torsions:
REMARK  status: ('A' for Active; 'I' for Inactive)
REMARK    1  A    between atoms: C_1  and  C_2
REMARK    2  A    between atoms: C_4  and  C_5
REMARK    3  A    between atoms: C_5  and  O_7
REMARK    4  A    between atoms: O_7  and  N_8
REMARK    5  A    between atoms: C_9  and  C_11
REMARK    6  A    between atoms: C_12  and  C_13
REMARK    7  A    between atoms: C_23  and  C_24
REMARK                            x       y       z     vdW  Elec       q    Type
REMARK                         _______ _______ _______ _____ _____    ______ ____
ROOT
ATOM      1  N   UNL     1       6.255   3.848  17.967  0.00  0.00    +0.000 N 
ATOM      2  C   UNL     1       5.717   4.491  19.059  0.00  0.00    +0.000 C 
ATOM      3  N   UNL     1       6.278   5.396  19.786  0.00  0.00    +0.000 NA
ATOM      4  H   UNL     1       5.599   3.524  17.256  0.00  0.00    +0.000 HD
ATOM      5  H   UNL     1       7.245   5.518  19.474  0.00  0.00    +0.000 HD
ENDROOT
BRANCH   2   6
ATOM      6  C   UNL     1       4.397   4.056  19.415  0.00  0.00    +0.000 A 
ATOM      7  C   UNL     1       3.129   4.728  19.312  0.00  0.00    +0.000 A 
ATOM      8  N   UNL     1       2.148   3.902  19.708  0.00  0.00    +0.000 NA
ATOM      9  O   UNL     1       2.743   2.722  20.094  0.00  0.00    +0.000 OA
ATOM     10  C   UNL     1       4.083   2.808  19.904  0.00  0.00    +0.000 A 
ATOM     11  C   UNL     1       4.884   1.617  20.255  0.00  0.00    +0.000 C 
BRANCH   7  12
ATOM     12  C   UNL     1       2.839   6.105  18.863  0.00  0.00    +0.000 A 
ATOM     13  C   UNL     1       3.296   6.599  17.621  0.00  0.00    +0.000 A 
ATOM     14 CL   UNL     1       3.946   5.595  16.365  0.00  0.00    +0.000 Cl
ATOM     15  C   UNL     1       3.183   7.957  17.290  0.00  0.00    +0.000 A 
ATOM     16  C   UNL     1       2.513   8.834  18.132  0.00  0.00    +0.000 A 
ATOM     17  C   UNL     1       1.957   8.351  19.309  0.00  0.00    +0.000 A 
ATOM     18  C   UNL     1       2.134   7.010  19.688  0.00  0.00    +0.000 A 
ATOM     19 CL   UNL     1       1.470   6.593  21.236  0.00  0.00    +0.000 Cl
ENDBRANCH   7  12
ENDBRANCH   2   6
BRANCH   1  20
ATOM     20  O   UNL     1       7.383   4.500  17.443  0.00  0.00    +0.000 OA
BRANCH  20  21
ATOM     21  C   UNL     1       7.087   5.502  16.541  0.00  0.00    +0.000 C 
ATOM     22  O   UNL     1       6.987   6.694  16.842  0.00  0.00    +0.000 OA
BRANCH  21  26
ATOM     23  C   UNL     1       6.000   3.094  12.209  0.00  0.00    +0.000 C 
ATOM     24  C   UNL     1       6.474   3.912  13.336  0.00  0.00    +0.000 A 
ATOM     25  C   UNL     1       6.160   3.986  14.671  0.00  0.00    +0.000 A 
ATOM     26  C   UNL     1       7.022   4.991  15.179  0.00  0.00    +0.000 A 
ATOM     27  N   UNL     1       7.787   5.500  14.201  0.00  0.00    +0.000 NA
ATOM     28  O   UNL     1       7.448   4.814  13.053  0.00  0.00    +0.000 OA
ENDBRANCH  21  26
ENDBRANCH  20  21
ENDBRANCH   1  20
TORSDOF 5
ENDMDL
MODEL 9
REMARK VINA RESULT:      -7.3      1.149      1.434
REMARK  Name = 
REMARK  7 active torsions:
REMARK  status: ('A' for Active; 'I' for Inactive)
REMARK    1  A    between atoms: C_1  and  C_2
REMARK    2  A    between atoms: C_4  and  C_5
REMARK    3  A    between atoms: C_5  and  O_7
REMARK    4  A    between atoms: O_7  and  N_8
REMARK    5  A    between atoms: C_9  and  C_11
REMARK    6  A    between atoms: C_12  and  C_13
REMARK    7  A    between atoms: C_23  and  C_24
REMARK                            x       y       z     vdW  Elec       q    Type
REMARK                         _______ _______ _______ _____ _____    ______ ____
ROOT
ATOM      1  N   UNL     1       2.677   6.118  20.083  0.00  0.00    +0.000 N 
ATOM      2  C   UNL     1       2.300   4.864  19.655  0.00  0.00    +0.000 C 
ATOM      3  N   UNL     1       1.173   4.527  19.127  0.00  0.00    +0.000 NA
ATOM      4  H   UNL     1       3.673   6.333  20.050  0.00  0.00    +0.000 HD
ATOM      5  H   UNL     1       0.546   5.335  19.142  0.00  0.00    +0.000 HD
ENDROOT
BRANCH   2   6
ATOM      6  C   UNL     1       3.284   3.842  19.867  0.00  0.00    +0.000 A 
ATOM      7  C   UNL     1       4.527   3.584  19.190  0.00  0.00    +0.000 A 
ATOM      8  N   UNL     1       5.154   2.552  19.778  0.00  0.00    +0.000 NA
ATOM      9  O   UNL     1       4.341   2.114  20.799  0.00  0.00    +0.000 OA
ATOM     10  C   UNL     1       3.233   2.893  20.863  0.00  0.00    +0.000 A 
ATOM     11  C   UNL     1       2.252   2.572  21.919  0.00  0.00    +0.000 C 
BRANCH   7  12
ATOM     12  C   UNL     1       5.112   4.273  18.022  0.00  0.00    +0.000 A 
ATOM     13  C   UNL     1       4.592   4.108  16.719  0.00  0.00    +0.000 A 
ATOM     14 CL   UNL     1       3.059   3.372  16.379  0.00  0.00    +0.000 Cl
ATOM     15  C   UNL     1       5.267   4.608  15.596  0.00  0.00    +0.000 A 
ATOM     16  C   UNL     1       6.412   5.380  15.747  0.00  0.00    +0.000 A 
ATOM     17  C   UNL     1       6.882   5.649  17.026  0.00  0.00    +0.000 A 
ATOM     18  C   UNL     1       6.260   5.086  18.152  0.00  0.00    +0.000 A 
ATOM     19 CL   UNL     1       7.035   5.433  19.666  0.00  0.00    +0.000 Cl
ENDBRANCH   7  12
ENDBRANCH   2   6
BRANCH   1  20
ATOM     20  O   UNL     1       1.857   7.142  19.581  0.00  0.00    +0.000 OA
BRANCH  20  21
ATOM     21  C   UNL     1       2.433   7.874  18.561  0.00  0.00    +0.000 C 
ATOM     22  O   UNL     1       3.223   7.406  17.737  0.00  0.00    +0.000 OA
BRANCH  21  26
ATOM     23  C   UNL     1      -0.088  12.225  19.237  0.00  0.00    +0.000 C 
ATOM     24  C   UNL     1       0.771  11.084  18.883  0.00  0.00    +0.000 A 
ATOM     25  C   UNL     1       0.841   9.771  19.279  0.00  0.00    +0.000 A 
ATOM     26  C   UNL     1       1.903   9.229  18.513  0.00  0.00    +0.000 A 
ATOM     27  N   UNL     1       2.447  10.168  17.723  0.00  0.00    +0.000 NA
ATOM     28  O   UNL     1       1.728  11.323  17.951  0.00  0.00    +0.000 OA
ENDBRANCH  21  26
ENDBRANCH  20  21
ENDBRANCH   1  20
TORSDOF 5
ENDMDL
