MODEL 1
REMARK VINA RESULT:      -7.9      0.000      0.000
REMARK  Name = 
REMARK  10 active torsions:
REMARK  status: ('A' for Active; 'I' for Inactive)
REMARK    1  A    between atoms: N_1  and  CA_2
REMARK    2  A    between atoms: CA_2  and  C_3
REMARK    3  A    between atoms: CA_2  and  C_28
REMARK    4  A    between atoms: N_5  and  CA_6
REMARK    5  A    between atoms: CA_10  and  C_11
REMARK    6  A    between atoms: C_11  and  OXT_13
REMARK    7  A    between atoms: C_14  and  C_15
REMARK    8  A    between atoms: C_15  and  C_16
REMARK    9  A    between atoms: C_20  and  C_21
REMARK   10  A    between atoms: C_21  and  O_23
REMARK                            x       y       z     vdW  Elec       q    Type
REMARK                         _______ _______ _______ _____ _____    ______ ____
ROOT
ATOM      1  CA  UNL     1       1.908   6.525  18.854  0.00  0.00    +0.000 C 
ATOM      2  C   UNL     1       2.709   5.315  19.401  0.00  0.00    +0.000 C 
ATOM      3  O   UNL     1       2.907   4.870  20.515  0.00  0.00    +0.000 OA
ATOM      4  N   UNL     1       3.229   5.084  18.161  0.00  0.00    +0.000 N 
ATOM      5  CA  UNL     1       4.340   4.363  17.755  0.00  0.00    +0.000 C 
ATOM      6  C   UNL     1       5.237   4.925  16.894  0.00  0.00    +0.000 C 
ATOM      7  C   UNL     1       5.136   6.369  16.406  0.00  0.00    +0.000 C 
ATOM      8  S   UNL     1       4.300   7.455  17.578  0.00  0.00    +0.000 S 
ATOM      9  C   UNL     1       2.836   6.377  17.620  0.00  0.00    +0.000 C 
ENDROOT
BRANCH   1  12
ATOM     10  C   UNL     1       1.283   7.990  20.785  0.00  0.00    +0.000 C 
ATOM     11  O   UNL     1       0.453   7.159  21.158  0.00  0.00    +0.000 OA
ATOM     12  N   UNL     1       2.004   7.790  19.627  0.00  0.00    +0.000 N 
ATOM     13  H   UNL     1       2.591   8.543  19.276  0.00  0.00    +0.000 HD
BRANCH  10  14
ATOM     14  CA  UNL     1       1.442   9.371  21.495  0.00  0.00    +0.000 C 
BRANCH  14  15
ATOM     15  C   UNL     1       0.211  10.278  21.510  0.00  0.00    +0.000 A 
ATOM     16  C   UNL     1      -0.279  10.812  20.304  0.00  0.00    +0.000 A 
ATOM     17  C   UNL     1      -1.292  11.772  20.296  0.00  0.00    +0.000 A 
ATOM     18  C   UNL     1      -1.856  12.192  21.494  0.00  0.00    +0.000 A 
ATOM     19  C   UNL     1      -1.468  11.591  22.688  0.00  0.00    +0.000 A 
ATOM     20  C   UNL     1      -0.473  10.610  22.691  0.00  0.00    +0.000 A 
ENDBRANCH  14  15
BRANCH  14  21
ATOM     21  N   UNL     1       1.895   9.080  22.879  0.00  0.00    +0.000 NA
ATOM     22  H1  UNL     1       1.119   9.271  23.516  0.00  0.00    +0.000 HD
ATOM     23  H2  UNL     1       2.630   9.744  23.123  0.00  0.00    +0.000 HD
ENDBRANCH  14  21
ENDBRANCH  10  14
ENDBRANCH   1  12
BRANCH   5  24
ATOM     24  C   UNL     1       4.416   2.950  18.314  0.00  0.00    +0.000 C 
ATOM     25  O   UNL     1       3.812   1.998  17.848  0.00  0.00    +0.000 OA
BRANCH  24  26
ATOM     26  OXT UNL     1       5.287   2.752  19.325  0.00  0.00    +0.000 OA
ATOM     27  HXT UNL     1       6.193   3.064  19.177  0.00  0.00    +0.000 HD
ENDBRANCH  24  26
ENDBRANCH   5  24
BRANCH   6  28
ATOM     28  C   UNL     1       6.512   4.272  16.369  0.00  0.00    +0.000 C 
BRANCH  28  29
ATOM     29  C   UNL     1       6.720   4.332  14.861  0.00  0.00    +0.000 A 
ATOM     30  C   UNL     1       7.650   5.183  14.241  0.00  0.00    +0.000 A 
ATOM     31  C   UNL     1       7.760   5.234  12.849  0.00  0.00    +0.000 A 
ATOM     32  C   UNL     1       6.962   4.419  12.051  0.00  0.00    +0.000 A 
ATOM     33  C   UNL     1       6.047   3.543  12.643  0.00  0.00    +0.000 A 
ATOM     34  C   UNL     1       5.910   3.522  14.041  0.00  0.00    +0.000 A 
BRANCH  33  35
ATOM     35  C   UNL     1       5.220   2.699  11.742  0.00  0.00    +0.000 C 
ATOM     36  O   UNL     1       5.571   1.595  11.365  0.00  0.00    +0.000 OA
BRANCH  35  37
ATOM     37  O   UNL     1       4.028   3.241  11.419  0.00  0.00    +0.000 OA
ATOM     38  H   UNL     1       4.059   3.962  10.764  0.00  0.00    +0.000 HD
ENDBRANCH  35  37
ENDBRANCH  33  35
ENDBRANCH  28  29
ENDBRANCH   6  28
TORSDOF 10
ENDMDL
MODEL 2
REMARK VINA RESULT:      -7.7      4.880     12.086
REMARK  Name = 
REMARK  10 active torsions:
REMARK  status: ('A' for Active; 'I' for Inactive)
REMARK    1  A    between atoms: N_1  and  CA_2
REMARK    2  A    between atoms: CA_2  and  C_3
REMARK    3  A    between atoms: CA_2  and  C_28
REMARK    4  A    between atoms: N_5  and  CA_6
REMARK    5  A    between atoms: CA_10  and  C_11
REMARK    6  A    between atoms: C_11  and  OXT_13
REMARK    7  A    between atoms: C_14  and  C_15
REMARK    8  A    between atoms: C_15  and  C_16
REMARK    9  A    between atoms: C_20  and  C_21
REMARK   10  A    between atoms: C_21  and  O_23
REMARK                            x       y       z     vdW  Elec       q    Type
REMARK                         _______ _______ _______ _____ _____    ______ ____
ROOT
ATOM      1  CA  UNL     1       0.303   9.957  19.093  0.00  0.00    +0.000 C 
ATOM      2  C   UNL     1       0.827  11.409  19.246  0.00  0.00    +0.000 C 
ATOM      3  O   UNL     1       1.850  11.974  18.915  0.00  0.00    +0.000 OA
ATOM      4  N   UNL     1      -0.234  11.719  20.047  0.00  0.00    +0.000 N 
ATOM      5  CA  UNL     1      -0.430  12.756  20.944  0.00  0.00    +0.000 C 
ATOM      6  C   UNL     1      -0.881  12.488  22.204  0.00  0.00    +0.000 C 
ATOM      7  C   UNL     1      -1.107  11.071  22.727  0.00  0.00    +0.000 C 
ATOM      8  S   UNL     1      -0.045   9.847  21.936  0.00  0.00    +0.000 S 
ATOM      9  C   UNL     1      -0.621  10.335  20.281  0.00  0.00    +0.000 C 
ENDROOT
BRANCH   1  12
ATOM     10  C   UNL     1       2.126   8.428  18.318  0.00  0.00    +0.000 C 
ATOM     11  O   UNL     1       2.010   8.857  17.168  0.00  0.00    +0.000 OA
ATOM     12  N   UNL     1       1.288   8.868  19.319  0.00  0.00    +0.000 N 
ATOM     13  H   UNL     1       1.323   8.411  20.227  0.00  0.00    +0.000 HD
BRANCH  10  14
ATOM     14  CA  UNL     1       3.098   7.257  18.664  0.00  0.00    +0.000 C 
BRANCH  14  15
ATOM     15  C   UNL     1       2.455   5.912  19.009  0.00  0.00    +0.000 A 
ATOM     16  C   UNL     1       2.183   4.985  17.986  0.00  0.00    +0.000 A 
ATOM     17  C   UNL     1       1.450   3.825  18.237  0.00  0.00    +0.000 A 
ATOM     18  C   UNL     1       1.001   3.555  19.525  0.00  0.00    +0.000 A 
ATOM     19  C   UNL     1       1.359   4.400  20.572  0.00  0.00    +0.000 A 
ATOM     20  C   UNL     1       2.118   5.547  20.322  0.00  0.00    +0.000 A 
ENDBRANCH  14  15
BRANCH  14  21
ATOM     21  N   UNL     1       4.013   7.116  17.504  0.00  0.00    +0.000 NA
ATOM     22  H1  UNL     1       3.513   7.410  16.663  0.00  0.00    +0.000 HD
ATOM     23  H2  UNL     1       4.221   6.125  17.377  0.00  0.00    +0.000 HD
ENDBRANCH  14  21
ENDBRANCH  10  14
ENDBRANCH   1  12
BRANCH   5  24
ATOM     24  C   UNL     1      -0.139  14.141  20.385  0.00  0.00    +0.000 C 
ATOM     25  O   UNL     1       0.895  14.756  20.588  0.00  0.00    +0.000 OA
BRANCH  24  26
ATOM     26  OXT UNL     1      -1.058  14.650  19.539  0.00  0.00    +0.000 OA
ATOM     27  HXT UNL     1      -0.872  14.548  18.592  0.00  0.00    +0.000 HD
ENDBRANCH  24  26
ENDBRANCH   5  24
BRANCH   6  28
ATOM     28  C   UNL     1      -1.130  13.511  23.308  0.00  0.00    +0.000 C 
BRANCH  28  29
ATOM     29  C   UNL     1      -2.536  14.097  23.370  0.00  0.00    +0.000 A 
ATOM     30  C   UNL     1      -2.824  15.449  23.117  0.00  0.00    +0.000 A 
ATOM     31  C   UNL     1      -4.126  15.941  23.241  0.00  0.00    +0.000 A 
ATOM     32  C   UNL     1      -5.168  15.088  23.597  0.00  0.00    +0.000 A 
ATOM     33  C   UNL     1      -4.913  13.734  23.829  0.00  0.00    +0.000 A 
ATOM     34  C   UNL     1      -3.597  13.248  23.741  0.00  0.00    +0.000 A 
BRANCH  33  35
ATOM     35  C   UNL     1      -6.064  12.872  24.207  0.00  0.00    +0.000 C 
ATOM     36  O   UNL     1      -7.223  13.214  24.056  0.00  0.00    +0.000 OA
BRANCH  35  37
ATOM     37  O   UNL     1      -5.710  11.661  24.686  0.00  0.00    +0.000 OA
ATOM     38  H   UNL     1      -6.102  11.419  25.544  0.00  0.00    +0.000 HD
ENDBRANCH  35  37
ENDBRANCH  33  35
ENDBRANCH  28  29
ENDBRANCH   6  28
TORSDOF 10
ENDMDL
MODEL 3
REMARK VINA RESULT:      -7.7      0.285      1.177
REMARK  Name = 
REMARK  10 active torsions:
REMARK  status: ('A' for Active; 'I' for Inactive)
REMARK    1  A    between atoms: N_1  and  CA_2
REMARK    2  A    between atoms: CA_2  and  C_3
REMARK    3  A    between atoms: CA_2  and  C_28
REMARK    4  A    between atoms: N_5  and  CA_6
REMARK    5  A    between atoms: CA_10  and  C_11
REMARK    6  A    between atoms: C_11  and  OXT_13
REMARK    7  A    between atoms: C_14  and  C_15
REMARK    8  A    between atoms: C_15  and  C_16
REMARK    9  A    between atoms: C_20  and  C_21
REMARK   10  A    between atoms: C_21  and  O_23
REMARK                            x       y       z     vdW  Elec       q    Type
REMARK                         _______ _______ _______ _____ _____    ______ ____
ROOT
ATOM      1  CA  UNL     1       1.846   6.565  19.098  0.00  0.00    +0.000 C 
ATOM      2  C   UNL     1       2.644   5.368  19.679  0.00  0.00    +0.000 C 
ATOM      3  O   UNL     1       2.869   4.975  20.806  0.00  0.00    +0.000 OA
ATOM      4  N   UNL     1       3.119   5.067  18.436  0.00  0.00    +0.000 N 
ATOM      5  CA  UNL     1       4.205   4.306  18.033  0.00  0.00    +0.000 C 
ATOM      6  C   UNL     1       5.083   4.809  17.118  0.00  0.00    +0.000 C 
ATOM      7  C   UNL     1       4.991   6.228  16.562  0.00  0.00    +0.000 C 
ATOM      8  S   UNL     1       4.212   7.386  17.704  0.00  0.00    +0.000 S 
ATOM      9  C   UNL     1       2.732   6.339  17.844  0.00  0.00    +0.000 C 
ENDROOT
BRANCH   1  12
ATOM     10  C   UNL     1       1.213   8.186  20.896  0.00  0.00    +0.000 C 
ATOM     11  O   UNL     1       0.299   7.441  21.258  0.00  0.00    +0.000 OA
ATOM     12  N   UNL     1       1.988   7.864  19.804  0.00  0.00    +0.000 N 
ATOM     13  H   UNL     1       2.652   8.550  19.452  0.00  0.00    +0.000 HD
BRANCH  10  14
ATOM     14  CA  UNL     1       1.430   9.592  21.537  0.00  0.00    +0.000 C 
BRANCH  14  15
ATOM     15  C   UNL     1       0.251  10.564  21.471  0.00  0.00    +0.000 A 
ATOM     16  C   UNL     1      -0.467  10.873  22.642  0.00  0.00    +0.000 A 
ATOM     17  C   UNL     1      -1.644  11.620  22.593  0.00  0.00    +0.000 A 
ATOM     18  C   UNL     1      -2.109  12.100  21.374  0.00  0.00    +0.000 A 
ATOM     19  C   UNL     1      -1.352  11.905  20.222  0.00  0.00    +0.000 A 
ATOM     20  C   UNL     1      -0.158  11.180  20.278  0.00  0.00    +0.000 A 
ENDBRANCH  14  15
BRANCH  14  21
ATOM     21  N   UNL     1       1.831   9.352  22.947  0.00  0.00    +0.000 NA
ATOM     22  H1  UNL     1       1.388   8.488  23.263  0.00  0.00    +0.000 HD
ATOM     23  H2  UNL     1       1.440  10.097  23.523  0.00  0.00    +0.000 HD
ENDBRANCH  14  21
ENDBRANCH  10  14
ENDBRANCH   1  12
BRANCH   5  24
ATOM     24  C   UNL     1       4.274   2.921  18.658  0.00  0.00    +0.000 C 
ATOM     25  O   UNL     1       4.901   2.661  19.672  0.00  0.00    +0.000 OA
BRANCH  24  26
ATOM     26  OXT UNL     1       3.508   1.968  18.089  0.00  0.00    +0.000 OA
ATOM     27  HXT UNL     1       2.582   1.933  18.379  0.00  0.00    +0.000 HD
ENDBRANCH  24  26
ENDBRANCH   5  24
BRANCH   6  28
ATOM     28  C   UNL     1       6.329   4.107  16.587  0.00  0.00    +0.000 C 
BRANCH  28  29
ATOM     29  C   UNL     1       6.583   4.239  15.090  0.00  0.00    +0.000 A 
ATOM     30  C   UNL     1       7.528   5.121  14.539  0.00  0.00    +0.000 A 
ATOM     31  C   UNL     1       7.681   5.238  13.155  0.00  0.00    +0.000 A 
ATOM     32  C   UNL     1       6.909   4.460  12.296  0.00  0.00    +0.000 A 
ATOM     33  C   UNL     1       5.980   3.555  12.817  0.00  0.00    +0.000 A 
ATOM     34  C   UNL     1       5.801   3.467  14.208  0.00  0.00    +0.000 A 
BRANCH  33  35
ATOM     35  C   UNL     1       5.184   2.753  11.852  0.00  0.00    +0.000 C 
ATOM     36  O   UNL     1       4.129   3.140  11.383  0.00  0.00    +0.000 OA
BRANCH  35  37
ATOM     37  O   UNL     1       5.757   1.582  11.506  0.00  0.00    +0.000 OA
ATOM     38  H   UNL     1       5.933   0.967  12.240  0.00  0.00    +0.000 HD
ENDBRANCH  35  37
ENDBRANCH  33  35
ENDBRANCH  28  29
ENDBRANCH   6  28
TORSDOF 10
ENDMDL
MODEL 4
REMARK VINA RESULT:      -7.6      0.818      1.133
REMARK  Name = 
REMARK  10 active torsions:
REMARK  status: ('A' for Active; 'I' for Inactive)
REMARK    1  A    between atoms: N_1  and  CA_2
REMARK    2  A    between atoms: CA_2  and  C_3
REMARK    3  A    between atoms: CA_2  and  C_28
REMARK    4  A    between atoms: N_5  and  CA_6
REMARK    5  A    between atoms: CA_10  and  C_11
REMARK    6  A    between atoms: C_11  and  OXT_13
REMARK    7  A    between atoms: C_14  and  C_15
REMARK    8  A    between atoms: C_15  and  C_16
REMARK    9  A    between atoms: C_20  and  C_21
REMARK   10  A    between atoms: C_21  and  O_23
REMARK                            x       y       z     vdW  Elec       q    Type
REMARK                         _______ _______ _______ _____ _____    ______ ____
ROOT
ATOM      1  CA  UNL     1       1.803   6.537  19.070  0.00  0.00    +0.000 C 
ATOM      2  C   UNL     1       2.638   5.381  19.679  0.00  0.00    +0.000 C 
ATOM      3  O   UNL     1       2.889   5.032  20.815  0.00  0.00    +0.000 OA
ATOM      4  N   UNL     1       3.104   5.049  18.440  0.00  0.00    +0.000 N 
ATOM      5  CA  UNL     1       4.202   4.301  18.045  0.00  0.00    +0.000 C 
ATOM      6  C   UNL     1       5.054   4.794  17.101  0.00  0.00    +0.000 C 
ATOM      7  C   UNL     1       4.919   6.191  16.499  0.00  0.00    +0.000 C 
ATOM      8  S   UNL     1       4.128   7.367  17.613  0.00  0.00    +0.000 S 
ATOM      9  C   UNL     1       2.676   6.290  17.811  0.00  0.00    +0.000 C 
ENDROOT
BRANCH   1  12
ATOM     10  C   UNL     1       1.187   8.187  20.848  0.00  0.00    +0.000 C 
ATOM     11  O   UNL     1       0.325   7.417  21.276  0.00  0.00    +0.000 OA
ATOM     12  N   UNL     1       1.923   7.863  19.729  0.00  0.00    +0.000 N 
ATOM     13  H   UNL     1       2.540   8.564  19.325  0.00  0.00    +0.000 HD
BRANCH  10  14
ATOM     14  CA  UNL     1       1.375   9.620  21.436  0.00  0.00    +0.000 C 
BRANCH  14  15
ATOM     15  C   UNL     1       0.571  10.741  20.775  0.00  0.00    +0.000 A 
ATOM     16  C   UNL     1       0.998  12.076  20.906  0.00  0.00    +0.000 A 
ATOM     17  C   UNL     1       0.205  13.136  20.462  0.00  0.00    +0.000 A 
ATOM     18  C   UNL     1      -1.016  12.877  19.850  0.00  0.00    +0.000 A 
ATOM     19  C   UNL     1      -1.402  11.562  19.607  0.00  0.00    +0.000 A 
ATOM     20  C   UNL     1      -0.592  10.502  20.027  0.00  0.00    +0.000 A 
ENDBRANCH  14  15
BRANCH  14  21
ATOM     21  N   UNL     1       1.049   9.525  22.882  0.00  0.00    +0.000 NA
ATOM     22  H1  UNL     1       1.908   9.674  23.414  0.00  0.00    +0.000 HD
ATOM     23  H2  UNL     1       0.753   8.570  23.083  0.00  0.00    +0.000 HD
ENDBRANCH  14  21
ENDBRANCH  10  14
ENDBRANCH   1  12
BRANCH   5  24
ATOM     24  C   UNL     1       4.314   2.941  18.716  0.00  0.00    +0.000 C 
ATOM     25  O   UNL     1       3.648   1.968  18.403  0.00  0.00    +0.000 OA
BRANCH  24  26
ATOM     26  OXT UNL     1       5.286   2.809  19.643  0.00  0.00    +0.000 OA
ATOM     27  HXT UNL     1       5.707   1.937  19.701  0.00  0.00    +0.000 HD
ENDBRANCH  24  26
ENDBRANCH   5  24
BRANCH   6  28
ATOM     28  C   UNL     1       6.310   4.105  16.575  0.00  0.00    +0.000 C 
BRANCH  28  29
ATOM     29  C   UNL     1       6.572   4.246  15.081  0.00  0.00    +0.000 A 
ATOM     30  C   UNL     1       7.506   5.147  14.540  0.00  0.00    +0.000 A 
ATOM     31  C   UNL     1       7.666   5.272  13.158  0.00  0.00    +0.000 A 
ATOM     32  C   UNL     1       6.916   4.481  12.290  0.00  0.00    +0.000 A 
ATOM     33  C   UNL     1       6.000   3.559  12.801  0.00  0.00    +0.000 A 
ATOM     34  C   UNL     1       5.812   3.463  14.191  0.00  0.00    +0.000 A 
BRANCH  33  35
ATOM     35  C   UNL     1       5.226   2.744  11.828  0.00  0.00    +0.000 C 
ATOM     36  O   UNL     1       4.199   3.139  11.306  0.00  0.00    +0.000 OA
BRANCH  35  37
ATOM     37  O   UNL     1       5.788   1.553  11.538  0.00  0.00    +0.000 OA
ATOM     38  H   UNL     1       5.419   1.093  10.763  0.00  0.00    +0.000 HD
ENDBRANCH  35  37
ENDBRANCH  33  35
ENDBRANCH  28  29
ENDBRANCH   6  28
TORSDOF 10
ENDMDL
MODEL 5
REMARK VINA RESULT:      -7.3      3.405     11.311
REMARK  Name = 
REMARK  10 active torsions:
REMARK  status: ('A' for Active; 'I' for Inactive)
REMARK    1  A    between atoms: N_1  and  CA_2
REMARK    2  A    between atoms: CA_2  and  C_3
REMARK    3  A    between atoms: CA_2  and  C_28
REMARK    4  A    between atoms: N_5  and  CA_6
REMARK    5  A    between atoms: CA_10  and  C_11
REMARK    6  A    between atoms: C_11  and  OXT_13
REMARK    7  A    between atoms: C_14  and  C_15
REMARK    8  A    between atoms: C_15  and  C_16
REMARK    9  A    between atoms: C_20  and  C_21
REMARK   10  A    between atoms: C_21  and  O_23
REMARK                            x       y       z     vdW  Elec       q    Type
REMARK                         _______ _______ _______ _____ _____    ______ ____
ROOT
ATOM      1  CA  UNL     1       1.678   8.254  17.983  0.00  0.00    +0.000 C 
ATOM      2  C   UNL     1       1.993   9.773  17.951  0.00  0.00    +0.000 C 
ATOM      3  O   UNL     1       2.932  10.430  17.548  0.00  0.00    +0.000 OA
ATOM      4  N   UNL     1       0.888  10.029  18.710  0.00  0.00    +0.000 N 
ATOM      5  CA  UNL     1       0.537  11.133  19.471  0.00  0.00    +0.000 C 
ATOM      6  C   UNL     1       0.109  10.963  20.756  0.00  0.00    +0.000 C 
ATOM      7  C   UNL     1       0.075   9.605  21.453  0.00  0.00    +0.000 C 
ATOM      8  S   UNL     1       1.308   8.453  20.818  0.00  0.00    +0.000 S 
ATOM      9  C   UNL     1       0.694   8.645  19.118  0.00  0.00    +0.000 C 
ENDROOT
BRANCH   1  12
ATOM     10  C   UNL     1       2.727   5.988  18.148  0.00  0.00    +0.000 C 
ATOM     11  O   UNL     1       1.678   5.465  17.766  0.00  0.00    +0.000 OA
ATOM     12  N   UNL     1       2.801   7.350  18.341  0.00  0.00    +0.000 N 
ATOM     13  H   UNL     1       3.636   7.742  18.771  0.00  0.00    +0.000 HD
BRANCH  10  14
ATOM     14  CA  UNL     1       3.957   5.136  18.589  0.00  0.00    +0.000 C 
BRANCH  14  15
ATOM     15  C   UNL     1       5.118   5.043  17.597  0.00  0.00    +0.000 A 
ATOM     16  C   UNL     1       4.865   5.140  16.216  0.00  0.00    +0.000 A 
ATOM     17  C   UNL     1       5.868   4.895  15.277  0.00  0.00    +0.000 A 
ATOM     18  C   UNL     1       7.152   4.578  15.705  0.00  0.00    +0.000 A 
ATOM     19  C   UNL     1       7.450   4.591  17.065  0.00  0.00    +0.000 A 
ATOM     20  C   UNL     1       6.450   4.865  18.001  0.00  0.00    +0.000 A 
ENDBRANCH  14  15
BRANCH  14  21
ATOM     21  N   UNL     1       4.419   5.704  19.881  0.00  0.00    +0.000 NA
ATOM     22  H1  UNL     1       5.280   6.226  19.712  0.00  0.00    +0.000 HD
ATOM     23  H2  UNL     1       4.672   4.933  20.499  0.00  0.00    +0.000 HD
ENDBRANCH  14  21
ENDBRANCH  10  14
ENDBRANCH   1  12
BRANCH   5  24
ATOM     24  C   UNL     1       0.640  12.463  18.740  0.00  0.00    +0.000 C 
ATOM     25  O   UNL     1      -0.296  13.010  18.181  0.00  0.00    +0.000 OA
BRANCH  24  26
ATOM     26  OXT UNL     1       1.829  13.097  18.817  0.00  0.00    +0.000 OA
ATOM     27  HXT UNL     1       1.829  14.037  18.575  0.00  0.00    +0.000 HD
ENDBRANCH  24  26
ENDBRANCH   5  24
BRANCH   6  28
ATOM     28  C   UNL     1      -0.295  12.071  21.723  0.00  0.00    +0.000 C 
BRANCH  28  29
ATOM     29  C   UNL     1      -1.786  12.375  21.804  0.00  0.00    +0.000 A 
ATOM     30  C   UNL     1      -2.569  12.719  20.688  0.00  0.00    +0.000 A 
ATOM     31  C   UNL     1      -3.921  13.040  20.831  0.00  0.00    +0.000 A 
ATOM     32  C   UNL     1      -4.524  12.998  22.086  0.00  0.00    +0.000 A 
ATOM     33  C   UNL     1      -3.775  12.634  23.208  0.00  0.00    +0.000 A 
ATOM     34  C   UNL     1      -2.406  12.350  23.069  0.00  0.00    +0.000 A 
BRANCH  33  35
ATOM     35  C   UNL     1      -4.471  12.609  24.522  0.00  0.00    +0.000 C 
ATOM     36  O   UNL     1      -5.425  11.888  24.750  0.00  0.00    +0.000 OA
BRANCH  35  37
ATOM     37  O   UNL     1      -3.921  13.418  25.450  0.00  0.00    +0.000 OA
ATOM     38  H   UNL     1      -2.964  13.572  25.360  0.00  0.00    +0.000 HD
ENDBRANCH  35  37
ENDBRANCH  33  35
ENDBRANCH  28  29
ENDBRANCH   6  28
TORSDOF 10
ENDMDL
MODEL 6
REMARK VINA RESULT:      -7.3      1.540      2.091
REMARK  Name = 
REMARK  10 active torsions:
REMARK  status: ('A' for Active; 'I' for Inactive)
REMARK    1  A    between atoms: N_1  and  CA_2
REMARK    2  A    between atoms: CA_2  and  C_3
REMARK    3  A    between atoms: CA_2  and  C_28
REMARK    4  A    between atoms: N_5  and  CA_6
REMARK    5  A    between atoms: CA_10  and  C_11
REMARK    6  A    between atoms: C_11  and  OXT_13
REMARK    7  A    between atoms: C_14  and  C_15
REMARK    8  A    between atoms: C_15  and  C_16
REMARK    9  A    between atoms: C_20  and  C_21
REMARK   10  A    between atoms: C_21  and  O_23
REMARK                            x       y       z     vdW  Elec       q    Type
REMARK                         _______ _______ _______ _____ _____    ______ ____
ROOT
ATOM      1  CA  UNL     1       1.719   6.388  19.478  0.00  0.00    +0.000 C 
ATOM      2  C   UNL     1       2.532   5.171  19.994  0.00  0.00    +0.000 C 
ATOM      3  O   UNL     1       2.827   4.764  21.100  0.00  0.00    +0.000 OA
ATOM      4  N   UNL     1       2.916   4.872  18.719  0.00  0.00    +0.000 N 
ATOM      5  CA  UNL     1       3.956   4.095  18.236  0.00  0.00    +0.000 C 
ATOM      6  C   UNL     1       4.779   4.590  17.267  0.00  0.00    +0.000 C 
ATOM      7  C   UNL     1       4.676   6.016  16.730  0.00  0.00    +0.000 C 
ATOM      8  S   UNL     1       4.000   7.177  17.932  0.00  0.00    +0.000 S 
ATOM      9  C   UNL     1       2.513   6.157  18.165  0.00  0.00    +0.000 C 
ENDROOT
BRANCH   1  12
ATOM     10  C   UNL     1       1.003   8.190  21.059  0.00  0.00    +0.000 C 
ATOM     11  O   UNL     1      -0.090   7.640  21.206  0.00  0.00    +0.000 OA
ATOM     12  N   UNL     1       1.934   7.678  20.183  0.00  0.00    +0.000 N 
ATOM     13  H   UNL     1       2.776   8.215  19.989  0.00  0.00    +0.000 HD
BRANCH  10  14
ATOM     14  CA  UNL     1       1.324   9.568  21.718  0.00  0.00    +0.000 C 
BRANCH  14  15
ATOM     15  C   UNL     1       0.166  10.562  21.826  0.00  0.00    +0.000 A 
ATOM     16  C   UNL     1      -0.595  10.621  23.009  0.00  0.00    +0.000 A 
ATOM     17  C   UNL     1      -1.756  11.391  23.084  0.00  0.00    +0.000 A 
ATOM     18  C   UNL     1      -2.160  12.142  21.986  0.00  0.00    +0.000 A 
ATOM     19  C   UNL     1      -1.360  12.188  20.849  0.00  0.00    +0.000 A 
ATOM     20  C   UNL     1      -0.182  11.438  20.786  0.00  0.00    +0.000 A 
ENDBRANCH  14  15
BRANCH  14  21
ATOM     21  N   UNL     1       1.885   9.271  23.060  0.00  0.00    +0.000 NA
ATOM     22  H1  UNL     1       1.110   9.060  23.691  0.00  0.00    +0.000 HD
ATOM     23  H2  UNL     1       2.321  10.119  23.421  0.00  0.00    +0.000 HD
ENDBRANCH  14  21
ENDBRANCH  10  14
ENDBRANCH   1  12
BRANCH   5  24
ATOM     24  C   UNL     1       4.042   2.704  18.845  0.00  0.00    +0.000 C 
ATOM     25  O   UNL     1       3.317   1.775  18.529  0.00  0.00    +0.000 OA
BRANCH  24  26
ATOM     26  OXT UNL     1       5.053   2.491  19.712  0.00  0.00    +0.000 OA
ATOM     27  HXT UNL     1       5.898   2.917  19.498  0.00  0.00    +0.000 HD
ENDBRANCH  24  26
ENDBRANCH   5  24
BRANCH   6  28
ATOM     28  C   UNL     1       5.972   3.870  16.646  0.00  0.00    +0.000 C 
BRANCH  28  29
ATOM     29  C   UNL     1       6.131   4.019  15.138  0.00  0.00    +0.000 A 
ATOM     30  C   UNL     1       5.345   3.323  14.203  0.00  0.00    +0.000 A 
ATOM     31  C   UNL     1       5.571   3.459  12.831  0.00  0.00    +0.000 A 
ATOM     32  C   UNL     1       6.569   4.312  12.366  0.00  0.00    +0.000 A 
ATOM     33  C   UNL     1       7.348   5.036  13.272  0.00  0.00    +0.000 A 
ATOM     34  C   UNL     1       7.145   4.868  14.653  0.00  0.00    +0.000 A 
BRANCH  33  35
ATOM     35  C   UNL     1       8.400   5.928  12.718  0.00  0.00    +0.000 C 
ATOM     36  O   UNL     1       9.485   6.079  13.249  0.00  0.00    +0.000 OA
BRANCH  35  37
ATOM     37  O   UNL     1       8.064   6.516  11.551  0.00  0.00    +0.000 OA
ATOM     38  H   UNL     1       8.609   7.280  11.294  0.00  0.00    +0.000 HD
ENDBRANCH  35  37
ENDBRANCH  33  35
ENDBRANCH  28  29
ENDBRANCH   6  28
TORSDOF 10
ENDMDL
MODEL 7
REMARK VINA RESULT:      -7.2      4.828     11.722
REMARK  Name = 
REMARK  10 active torsions:
REMARK  status: ('A' for Active; 'I' for Inactive)
REMARK    1  A    between atoms: N_1  and  CA_2
REMARK    2  A    between atoms: CA_2  and  C_3
REMARK    3  A    between atoms: CA_2  and  C_28
REMARK    4  A    between atoms: N_5  and  CA_6
REMARK    5  A    between atoms: CA_10  and  C_11
REMARK    6  A    between atoms: C_11  and  OXT_13
REMARK    7  A    between atoms: C_14  and  C_15
REMARK    8  A    between atoms: C_15  and  C_16
REMARK    9  A    between atoms: C_20  and  C_21
REMARK   10  A    between atoms: C_21  and  O_23
REMARK                            x       y       z     vdW  Elec       q    Type
REMARK                         _______ _______ _______ _____ _____    ______ ____
ROOT
ATOM      1  CA  UNL     1       0.467   9.841  18.935  0.00  0.00    +0.000 C 
ATOM      2  C   UNL     1       1.055  11.274  19.026  0.00  0.00    +0.000 C 
ATOM      3  O   UNL     1       2.105  11.776  18.680  0.00  0.00    +0.000 OA
ATOM      4  N   UNL     1       0.002  11.668  19.800  0.00  0.00    +0.000 N 
ATOM      5  CA  UNL     1      -0.155  12.755  20.646  0.00  0.00    +0.000 C 
ATOM      6  C   UNL     1      -0.629  12.566  21.911  0.00  0.00    +0.000 C 
ATOM      7  C   UNL     1      -0.923  11.188  22.498  0.00  0.00    +0.000 C 
ATOM      8  S   UNL     1       0.089   9.881  21.776  0.00  0.00    +0.000 S 
ATOM      9  C   UNL     1      -0.449  10.316  20.095  0.00  0.00    +0.000 C 
ENDROOT
BRANCH   1  12
ATOM     10  C   UNL     1       2.298   8.265  18.283  0.00  0.00    +0.000 C 
ATOM     11  O   UNL     1       2.283   8.708  17.133  0.00  0.00    +0.000 OA
ATOM     12  N   UNL     1       1.400   8.721  19.223  0.00  0.00    +0.000 N 
ATOM     13  H   UNL     1       1.352   8.254  20.126  0.00  0.00    +0.000 HD
BRANCH  10  14
ATOM     14  CA  UNL     1       3.206   7.062  18.688  0.00  0.00    +0.000 C 
BRANCH  14  15
ATOM     15  C   UNL     1       2.496   5.749  19.020  0.00  0.00    +0.000 A 
ATOM     16  C   UNL     1       2.139   4.867  17.983  0.00  0.00    +0.000 A 
ATOM     17  C   UNL     1       1.346   3.745  18.229  0.00  0.00    +0.000 A 
ATOM     18  C   UNL     1       0.922   3.468  19.523  0.00  0.00    +0.000 A 
ATOM     19  C   UNL     1       1.360   4.262  20.579  0.00  0.00    +0.000 A 
ATOM     20  C   UNL     1       2.178   5.368  20.333  0.00  0.00    +0.000 A 
ENDBRANCH  14  15
BRANCH  14  21
ATOM     21  N   UNL     1       4.168   6.869  17.574  0.00  0.00    +0.000 NA
ATOM     22  H1  UNL     1       3.910   7.502  16.814  0.00  0.00    +0.000 HD
ATOM     23  H2  UNL     1       4.049   5.925  17.207  0.00  0.00    +0.000 HD
ENDBRANCH  14  21
ENDBRANCH  10  14
ENDBRANCH   1  12
BRANCH   5  24
ATOM     24  C   UNL     1       0.204  14.096  20.025  0.00  0.00    +0.000 C 
ATOM     25  O   UNL     1      -0.609  14.857  19.526  0.00  0.00    +0.000 OA
BRANCH  24  26
ATOM     26  OXT UNL     1       1.492  14.482  20.135  0.00  0.00    +0.000 OA
ATOM     27  HXT UNL     1       2.103  13.830  20.511  0.00  0.00    +0.000 HD
ENDBRANCH  24  26
ENDBRANCH   5  24
BRANCH   6  28
ATOM     28  C   UNL     1      -0.841  13.651  22.963  0.00  0.00    +0.000 C 
BRANCH  28  29
ATOM     29  C   UNL     1      -2.289  14.025  23.254  0.00  0.00    +0.000 A 
ATOM     30  C   UNL     1      -2.665  14.984  24.210  0.00  0.00    +0.000 A 
ATOM     31  C   UNL     1      -4.012  15.248  24.472  0.00  0.00    +0.000 A 
ATOM     32  C   UNL     1      -5.008  14.576  23.767  0.00  0.00    +0.000 A 
ATOM     33  C   UNL     1      -4.662  13.636  22.793  0.00  0.00    +0.000 A 
ATOM     34  C   UNL     1      -3.308  13.344  22.558  0.00  0.00    +0.000 A 
BRANCH  33  35
ATOM     35  C   UNL     1      -5.768  12.950  22.075  0.00  0.00    +0.000 C 
ATOM     36  O   UNL     1      -6.585  12.244  22.640  0.00  0.00    +0.000 OA
BRANCH  35  37
ATOM     37  O   UNL     1      -5.815  13.216  20.753  0.00  0.00    +0.000 OA
ATOM     38  H   UNL     1      -5.224  12.678  20.196  0.00  0.00    +0.000 HD
ENDBRANCH  35  37
ENDBRANCH  33  35
ENDBRANCH  28  29
ENDBRANCH   6  28
TORSDOF 10
ENDMDL
MODEL 8
REMARK VINA RESULT:      -7.2      3.735     11.251
REMARK  Name = 
REMARK  10 active torsions:
REMARK  status: ('A' for Active; 'I' for Inactive)
REMARK    1  A    between atoms: N_1  and  CA_2
REMARK    2  A    between atoms: CA_2  and  C_3
REMARK    3  A    between atoms: CA_2  and  C_28
REMARK    4  A    between atoms: N_5  and  CA_6
REMARK    5  A    between atoms: CA_10  and  C_11
REMARK    6  A    between atoms: C_11  and  OXT_13
REMARK    7  A    between atoms: C_14  and  C_15
REMARK    8  A    between atoms: C_15  and  C_16
REMARK    9  A    between atoms: C_20  and  C_21
REMARK   10  A    between atoms: C_21  and  O_23
REMARK                            x       y       z     vdW  Elec       q    Type
REMARK                         _______ _______ _______ _____ _____    ______ ____
ROOT
ATOM      1  CA  UNL     1       1.602   8.375  18.098  0.00  0.00    +0.000 C 
ATOM      2  C   UNL     1       1.895   9.896  18.020  0.00  0.00    +0.000 C 
ATOM      3  O   UNL     1       2.840  10.552  17.629  0.00  0.00    +0.000 OA
ATOM      4  N   UNL     1       0.757  10.163  18.724  0.00  0.00    +0.000 N 
ATOM      5  CA  UNL     1       0.361  11.289  19.428  0.00  0.00    +0.000 C 
ATOM      6  C   UNL     1      -0.115  11.161  20.701  0.00  0.00    +0.000 C 
ATOM      7  C   UNL     1      -0.157   9.830  21.448  0.00  0.00    +0.000 C 
ATOM      8  S   UNL     1       1.116   8.674  20.907  0.00  0.00    +0.000 S 
ATOM      9  C   UNL     1       0.568   8.792  19.177  0.00  0.00    +0.000 C 
ENDROOT
BRANCH   1  12
ATOM     10  C   UNL     1       2.750   6.156  18.243  0.00  0.00    +0.000 C 
ATOM     11  O   UNL     1       1.786   5.612  17.700  0.00  0.00    +0.000 OA
ATOM     12  N   UNL     1       2.723   7.503  18.533  0.00  0.00    +0.000 N 
ATOM     13  H   UNL     1       3.475   7.902  19.090  0.00  0.00    +0.000 HD
BRANCH  10  14
ATOM     14  CA  UNL     1       3.963   5.334  18.779  0.00  0.00    +0.000 C 
BRANCH  14  15
ATOM     15  C   UNL     1       5.356   5.856  18.419  0.00  0.00    +0.000 A 
ATOM     16  C   UNL     1       6.469   5.463  19.185  0.00  0.00    +0.000 A 
ATOM     17  C   UNL     1       7.722   6.045  18.992  0.00  0.00    +0.000 A 
ATOM     18  C   UNL     1       7.892   7.010  18.006  0.00  0.00    +0.000 A 
ATOM     19  C   UNL     1       6.833   7.328  17.161  0.00  0.00    +0.000 A 
ATOM     20  C   UNL     1       5.586   6.722  17.338  0.00  0.00    +0.000 A 
ENDBRANCH  14  15
BRANCH  14  21
ATOM     21  N   UNL     1       3.800   5.257  20.253  0.00  0.00    +0.000 NA
ATOM     22  H1  UNL     1       4.510   5.851  20.685  0.00  0.00    +0.000 HD
ATOM     23  H2  UNL     1       4.009   4.305  20.550  0.00  0.00    +0.000 HD
ENDBRANCH  14  21
ENDBRANCH  10  14
ENDBRANCH   1  12
BRANCH   5  24
ATOM     24  C   UNL     1       0.474  12.592  18.653  0.00  0.00    +0.000 C 
ATOM     25  O   UNL     1       1.417  13.361  18.743  0.00  0.00    +0.000 OA
BRANCH  24  26
ATOM     26  OXT UNL     1      -0.496  12.836  17.747  0.00  0.00    +0.000 OA
ATOM     27  HXT UNL     1      -1.254  13.354  18.061  0.00  0.00    +0.000 HD
ENDBRANCH  24  26
ENDBRANCH   5  24
BRANCH   6  28
ATOM     28  C   UNL     1      -0.573  12.298  21.608  0.00  0.00    +0.000 C 
BRANCH  28  29
ATOM     29  C   UNL     1      -2.074  12.556  21.649  0.00  0.00    +0.000 A 
ATOM     30  C   UNL     1      -2.838  12.869  20.511  0.00  0.00    +0.000 A 
ATOM     31  C   UNL     1      -4.202  13.148  20.616  0.00  0.00    +0.000 A 
ATOM     32  C   UNL     1      -4.836  13.097  21.855  0.00  0.00    +0.000 A 
ATOM     33  C   UNL     1      -4.106  12.763  22.999  0.00  0.00    +0.000 A 
ATOM     34  C   UNL     1      -2.726  12.521  22.897  0.00  0.00    +0.000 A 
BRANCH  33  35
ATOM     35  C   UNL     1      -4.835  12.726  24.294  0.00  0.00    +0.000 C 
ATOM     36  O   UNL     1      -4.361  12.237  25.304  0.00  0.00    +0.000 OA
BRANCH  35  37
ATOM     37  O   UNL     1      -6.044  13.323  24.263  0.00  0.00    +0.000 OA
ATOM     38  H   UNL     1      -6.072  14.190  23.820  0.00  0.00    +0.000 HD
ENDBRANCH  35  37
ENDBRANCH  33  35
ENDBRANCH  28  29
ENDBRANCH   6  28
TORSDOF 10
ENDMDL
MODEL 9
REMARK VINA RESULT:      -7.2      1.328      1.706
REMARK  Name = 
REMARK  10 active torsions:
REMARK  status: ('A' for Active; 'I' for Inactive)
REMARK    1  A    between atoms: N_1  and  CA_2
REMARK    2  A    between atoms: CA_2  and  C_3
REMARK    3  A    between atoms: CA_2  and  C_28
REMARK    4  A    between atoms: N_5  and  CA_6
REMARK    5  A    between atoms: CA_10  and  C_11
REMARK    6  A    between atoms: C_11  and  OXT_13
REMARK    7  A    between atoms: C_14  and  C_15
REMARK    8  A    between atoms: C_15  and  C_16
REMARK    9  A    between atoms: C_20  and  C_21
REMARK   10  A    between atoms: C_21  and  O_23
REMARK                            x       y       z     vdW  Elec       q    Type
REMARK                         _______ _______ _______ _____ _____    ______ ____
ROOT
ATOM      1  CA  UNL     1       1.901   6.667  18.837  0.00  0.00    +0.000 C 
ATOM      2  C   UNL     1       2.649   5.420  19.375  0.00  0.00    +0.000 C 
ATOM      3  O   UNL     1       2.805   4.944  20.482  0.00  0.00    +0.000 OA
ATOM      4  N   UNL     1       3.191   5.199  18.142  0.00  0.00    +0.000 N 
ATOM      5  CA  UNL     1       4.289   4.451  17.746  0.00  0.00    +0.000 C 
ATOM      6  C   UNL     1       5.224   5.004  16.920  0.00  0.00    +0.000 C 
ATOM      7  C   UNL     1       5.181   6.460  16.463  0.00  0.00    +0.000 C 
ATOM      8  S   UNL     1       4.352   7.546  17.639  0.00  0.00    +0.000 S 
ATOM      9  C   UNL     1       2.854   6.516  17.621  0.00  0.00    +0.000 C 
ENDROOT
BRANCH   1  12
ATOM     10  C   UNL     1       1.363   9.070  19.284  0.00  0.00    +0.000 C 
ATOM     11  O   UNL     1       0.740   9.137  18.223  0.00  0.00    +0.000 OA
ATOM     12  N   UNL     1       2.018   7.911  19.640  0.00  0.00    +0.000 N 
ATOM     13  H   UNL     1       2.624   7.919  20.457  0.00  0.00    +0.000 HD
BRANCH  10  14
ATOM     14  CA  UNL     1       1.586  10.322  20.188  0.00  0.00    +0.000 C 
BRANCH  14  15
ATOM     15  C   UNL     1       0.964  11.634  19.706  0.00  0.00    +0.000 A 
ATOM     16  C   UNL     1      -0.415  11.859  19.881  0.00  0.00    +0.000 A 
ATOM     17  C   UNL     1      -1.046  12.964  19.308  0.00  0.00    +0.000 A 
ATOM     18  C   UNL     1      -0.302  13.882  18.576  0.00  0.00    +0.000 A 
ATOM     19  C   UNL     1       1.080  13.740  18.490  0.00  0.00    +0.000 A 
ATOM     20  C   UNL     1       1.713  12.647  19.089  0.00  0.00    +0.000 A 
ENDBRANCH  14  15
BRANCH  14  21
ATOM     21  N   UNL     1       1.072   9.964  21.535  0.00  0.00    +0.000 NA
ATOM     22  H1  UNL     1       1.791  10.193  22.223  0.00  0.00    +0.000 HD
ATOM     23  H2  UNL     1       0.954   8.952  21.575  0.00  0.00    +0.000 HD
ENDBRANCH  14  21
ENDBRANCH  10  14
ENDBRANCH   1  12
BRANCH   5  24
ATOM     24  C   UNL     1       4.306   3.025  18.274  0.00  0.00    +0.000 C 
ATOM     25  O   UNL     1       3.753   2.087  17.724  0.00  0.00    +0.000 OA
BRANCH  24  26
ATOM     26  OXT UNL     1       5.066   2.800  19.366  0.00  0.00    +0.000 OA
ATOM     27  HXT UNL     1       4.803   3.266  20.175  0.00  0.00    +0.000 HD
ENDBRANCH  24  26
ENDBRANCH   5  24
BRANCH   6  28
ATOM     28  C   UNL     1       6.489   4.321  16.411  0.00  0.00    +0.000 C 
BRANCH  28  29
ATOM     29  C   UNL     1       6.719   4.379  14.905  0.00  0.00    +0.000 A 
ATOM     30  C   UNL     1       7.660   5.227  14.297  0.00  0.00    +0.000 A 
ATOM     31  C   UNL     1       7.790   5.277  12.907  0.00  0.00    +0.000 A 
ATOM     32  C   UNL     1       7.001   4.462  12.099  0.00  0.00    +0.000 A 
ATOM     33  C   UNL     1       6.076   3.589  12.679  0.00  0.00    +0.000 A 
ATOM     34  C   UNL     1       5.919   3.569  14.075  0.00  0.00    +0.000 A 
BRANCH  33  35
ATOM     35  C   UNL     1       5.260   2.746  11.767  0.00  0.00    +0.000 C 
ATOM     36  O   UNL     1       5.611   1.638  11.401  0.00  0.00    +0.000 OA
BRANCH  35  37
ATOM     37  O   UNL     1       4.078   3.294  11.421  0.00  0.00    +0.000 OA
ATOM     38  H   UNL     1       4.027   4.263  11.496  0.00  0.00    +0.000 HD
ENDBRANCH  35  37
ENDBRANCH  33  35
ENDBRANCH  28  29
ENDBRANCH   6  28
TORSDOF 10
ENDMDL
