MODEL 1
REMARK VINA RESULT:      -7.8      0.000      0.000
REMARK  Name = 
REMARK  2 active torsions:
REMARK  status: ('A' for Active; 'I' for Inactive)
REMARK    1  A    between atoms: N_17  and  C_18
REMARK    2  A    between atoms: C_18  and  C_19
REMARK                            x       y       z     vdW  Elec       q    Type
REMARK                         _______ _______ _______ _____ _____    ______ ____
ROOT
ATOM      1  O   UNL     1       2.369   2.505  16.955  0.00  0.00    +0.000 OA
ATOM      2  C   UNL     1       3.105   3.112  17.738  0.00  0.00    +0.000 A 
ATOM      3  C   UNL     1       2.619   3.307  19.122  0.00  0.00    +0.000 A 
ATOM      4  C   UNL     1       2.112   2.207  19.816  0.00  0.00    +0.000 A 
ATOM      5  C   UNL     1       1.755   2.345  21.158  0.00  0.00    +0.000 A 
ATOM      6  C   UNL     1       1.899   3.582  21.788  0.00  0.00    +0.000 A 
ATOM      7  C   UNL     1       2.325   4.703  21.061  0.00  0.00    +0.000 A 
ATOM      8  C   UNL     1       2.652   4.588  19.699  0.00  0.00    +0.000 A 
ATOM      9  C   UNL     1       3.130   5.742  18.926  0.00  0.00    +0.000 A 
ATOM     10  C   UNL     1       2.283   6.706  18.379  0.00  0.00    +0.000 A 
ATOM     11  C   UNL     1       2.801   7.732  17.576  0.00  0.00    +0.000 A 
ATOM     12  C   UNL     1       4.185   7.859  17.394  0.00  0.00    +0.000 A 
ATOM     13  C   UNL     1       5.040   6.881  17.883  0.00  0.00    +0.000 A 
ATOM     14  C   UNL     1       4.479   5.783  18.530  0.00  0.00    +0.000 A 
ATOM     15  C   UNL     1       5.082   4.451  18.288  0.00  0.00    +0.000 A 
ATOM     16  O   UNL     1       6.058   4.060  18.924  0.00  0.00    +0.000 OA
ATOM     17  N   UNL     1       4.344   3.686  17.369  0.00  0.00    +0.000 N 
ENDROOT
BRANCH  17  18
ATOM     18  C   UNL     1       4.410   4.075  15.957  0.00  0.00    +0.000 C 
BRANCH  18  19
ATOM     19  C   UNL     1       5.789   3.993  15.307  0.00  0.00    +0.000 C 
ATOM     20  C   UNL     1       6.417   5.343  15.028  0.00  0.00    +0.000 C 
ATOM     21  C   UNL     1       7.385   4.999  13.927  0.00  0.00    +0.000 C 
ATOM     22  C   UNL     1       6.608   3.971  13.133  0.00  0.00    +0.000 C 
ATOM     23  O   UNL     1       5.783   3.259  14.072  0.00  0.00    +0.000 OA
ENDBRANCH  18  19
ENDBRANCH  17  18
TORSDOF 2
ENDMDL
MODEL 2
REMARK VINA RESULT:      -7.4      2.502      6.120
REMARK  Name = 
REMARK  2 active torsions:
REMARK  status: ('A' for Active; 'I' for Inactive)
REMARK    1  A    between atoms: N_17  and  C_18
REMARK    2  A    between atoms: C_18  and  C_19
REMARK                            x       y       z     vdW  Elec       q    Type
REMARK                         _______ _______ _______ _____ _____    ______ ____
ROOT
ATOM      1  O   UNL     1       2.878   7.295  17.013  0.00  0.00    +0.000 OA
ATOM      2  C   UNL     1       3.597   6.450  17.555  0.00  0.00    +0.000 A 
ATOM      3  C   UNL     1       4.479   5.643  16.685  0.00  0.00    +0.000 A 
ATOM      4  C   UNL     1       5.269   6.297  15.739  0.00  0.00    +0.000 A 
ATOM      5  C   UNL     1       6.191   5.565  14.987  0.00  0.00    +0.000 A 
ATOM      6  C   UNL     1       6.303   4.188  15.182  0.00  0.00    +0.000 A 
ATOM      7  C   UNL     1       5.444   3.525  16.071  0.00  0.00    +0.000 A 
ATOM      8  C   UNL     1       4.486   4.242  16.806  0.00  0.00    +0.000 A 
ATOM      9  C   UNL     1       3.597   3.572  17.765  0.00  0.00    +0.000 A 
ATOM     10  C   UNL     1       2.434   2.898  17.394  0.00  0.00    +0.000 A 
ATOM     11  C   UNL     1       1.585   2.358  18.371  0.00  0.00    +0.000 A 
ATOM     12  C   UNL     1       1.944   2.403  19.725  0.00  0.00    +0.000 A 
ATOM     13  C   UNL     1       3.067   3.117  20.120  0.00  0.00    +0.000 A 
ATOM     14  C   UNL     1       3.796   3.787  19.140  0.00  0.00    +0.000 A 
ATOM     15  C   UNL     1       4.344   5.122  19.474  0.00  0.00    +0.000 A 
ATOM     16  O   UNL     1       5.416   5.251  20.062  0.00  0.00    +0.000 OA
ATOM     17  N   UNL     1       3.571   6.168  18.941  0.00  0.00    +0.000 N 
ENDROOT
BRANCH  17  18
ATOM     18  C   UNL     1       2.274   6.441  19.569  0.00  0.00    +0.000 C 
BRANCH  18  19
ATOM     19  C   UNL     1       2.105   7.833  20.170  0.00  0.00    +0.000 C 
ATOM     20  C   UNL     1       1.148   7.883  21.344  0.00  0.00    +0.000 C 
ATOM     21  C   UNL     1       0.734   9.331  21.331  0.00  0.00    +0.000 C 
ATOM     22  C   UNL     1       0.660   9.623  19.847  0.00  0.00    +0.000 C 
ATOM     23  O   UNL     1       1.659   8.807  19.213  0.00  0.00    +0.000 OA
ENDBRANCH  18  19
ENDBRANCH  17  18
TORSDOF 2
ENDMDL
MODEL 3
REMARK VINA RESULT:      -6.9      1.578      3.729
REMARK  Name = 
REMARK  2 active torsions:
REMARK  status: ('A' for Active; 'I' for Inactive)
REMARK    1  A    between atoms: N_17  and  C_18
REMARK    2  A    between atoms: C_18  and  C_19
REMARK                            x       y       z     vdW  Elec       q    Type
REMARK                         _______ _______ _______ _____ _____    ______ ____
ROOT
ATOM      1  O   UNL     1       5.014   6.588  17.806  0.00  0.00    +0.000 OA
ATOM      2  C   UNL     1       4.016   5.870  17.910  0.00  0.00    +0.000 A 
ATOM      3  C   UNL     1       3.093   6.141  19.033  0.00  0.00    +0.000 A 
ATOM      4  C   UNL     1       2.671   7.454  19.253  0.00  0.00    +0.000 A 
ATOM      5  C   UNL     1       1.713   7.714  20.235  0.00  0.00    +0.000 A 
ATOM      6  C   UNL     1       1.196   6.662  20.992  0.00  0.00    +0.000 A 
ATOM      7  C   UNL     1       1.690   5.359  20.826  0.00  0.00    +0.000 A 
ATOM      8  C   UNL     1       2.681   5.088  19.869  0.00  0.00    +0.000 A 
ATOM      9  C   UNL     1       3.190   3.726  19.657  0.00  0.00    +0.000 A 
ATOM     10  C   UNL     1       4.166   3.136  20.460  0.00  0.00    +0.000 A 
ATOM     11  C   UNL     1       4.669   1.866  20.146  0.00  0.00    +0.000 A 
ATOM     12  C   UNL     1       4.130   1.133  19.080  0.00  0.00    +0.000 A 
ATOM     13  C   UNL     1       3.199   1.723  18.236  0.00  0.00    +0.000 A 
ATOM     14  C   UNL     1       2.846   3.049  18.474  0.00  0.00    +0.000 A 
ATOM     15  C   UNL     1       2.641   3.934  17.303  0.00  0.00    +0.000 A 
ATOM     16  O   UNL     1       1.568   3.976  16.705  0.00  0.00    +0.000 OA
ATOM     17  N   UNL     1       3.746   4.770  17.063  0.00  0.00    +0.000 N 
ENDROOT
BRANCH  17  18
ATOM     18  C   UNL     1       4.952   4.153  16.503  0.00  0.00    +0.000 C 
BRANCH  18  19
ATOM     19  C   UNL     1       5.359   4.629  15.111  0.00  0.00    +0.000 C 
ATOM     20  C   UNL     1       5.594   3.505  14.123  0.00  0.00    +0.000 C 
ATOM     21  C   UNL     1       6.501   4.172  13.122  0.00  0.00    +0.000 C 
ATOM     22  C   UNL     1       7.363   5.044  14.011  0.00  0.00    +0.000 C 
ATOM     23  O   UNL     1       6.541   5.445  15.121  0.00  0.00    +0.000 OA
ENDBRANCH  18  19
ENDBRANCH  17  18
TORSDOF 2
ENDMDL
MODEL 4
REMARK VINA RESULT:      -6.7      1.652      4.142
REMARK  Name = 
REMARK  2 active torsions:
REMARK  status: ('A' for Active; 'I' for Inactive)
REMARK    1  A    between atoms: N_17  and  C_18
REMARK    2  A    between atoms: C_18  and  C_19
REMARK                            x       y       z     vdW  Elec       q    Type
REMARK                         _______ _______ _______ _____ _____    ______ ____
ROOT
ATOM      1  O   UNL     1       4.762   6.361  18.188  0.00  0.00    +0.000 OA
ATOM      2  C   UNL     1       3.580   6.011  18.241  0.00  0.00    +0.000 A 
ATOM      3  C   UNL     1       2.633   6.902  18.945  0.00  0.00    +0.000 A 
ATOM      4  C   UNL     1       2.637   8.264  18.635  0.00  0.00    +0.000 A 
ATOM      5  C   UNL     1       1.676   9.102  19.204  0.00  0.00    +0.000 A 
ATOM      6  C   UNL     1       0.731   8.572  20.083  0.00  0.00    +0.000 A 
ATOM      7  C   UNL     1       0.788   7.222  20.459  0.00  0.00    +0.000 A 
ATOM      8  C   UNL     1       1.773   6.374  19.924  0.00  0.00    +0.000 A 
ATOM      9  C   UNL     1       1.833   4.950  20.279  0.00  0.00    +0.000 A 
ATOM     10  C   UNL     1       2.422   4.473  21.450  0.00  0.00    +0.000 A 
ATOM     11  C   UNL     1       2.523   3.095  21.682  0.00  0.00    +0.000 A 
ATOM     12  C   UNL     1       1.947   2.181  20.788  0.00  0.00    +0.000 A 
ATOM     13  C   UNL     1       1.407   2.631  19.592  0.00  0.00    +0.000 A 
ATOM     14  C   UNL     1       1.475   3.993  19.313  0.00  0.00    +0.000 A 
ATOM     15  C   UNL     1       1.759   4.403  17.917  0.00  0.00    +0.000 A 
ATOM     16  O   UNL     1       0.867   4.490  17.076  0.00  0.00    +0.000 OA
ATOM     17  N   UNL     1       3.100   4.782  17.731  0.00  0.00    +0.000 N 
ENDROOT
BRANCH  17  18
ATOM     18  C   UNL     1       4.109   3.718  17.723  0.00  0.00    +0.000 C 
BRANCH  18  19
ATOM     19  C   UNL     1       5.036   3.690  16.510  0.00  0.00    +0.000 C 
ATOM     20  C   UNL     1       6.456   4.125  16.813  0.00  0.00    +0.000 C 
ATOM     21  C   UNL     1       6.932   4.559  15.452  0.00  0.00    +0.000 C 
ATOM     22  C   UNL     1       5.690   5.206  14.876  0.00  0.00    +0.000 C 
ATOM     23  O   UNL     1       4.563   4.501  15.423  0.00  0.00    +0.000 OA
ENDBRANCH  18  19
ENDBRANCH  17  18
TORSDOF 2
ENDMDL
MODEL 5
REMARK VINA RESULT:      -6.6      1.634      5.623
REMARK  Name = 
REMARK  2 active torsions:
REMARK  status: ('A' for Active; 'I' for Inactive)
REMARK    1  A    between atoms: N_17  and  C_18
REMARK    2  A    between atoms: C_18  and  C_19
REMARK                            x       y       z     vdW  Elec       q    Type
REMARK                         _______ _______ _______ _____ _____    ______ ____
ROOT
ATOM      1  O   UNL     1       6.236   5.069  19.744  0.00  0.00    +0.000 OA
ATOM      2  C   UNL     1       5.386   4.902  18.865  0.00  0.00    +0.000 A 
ATOM      3  C   UNL     1       5.818   5.051  17.459  0.00  0.00    +0.000 A 
ATOM      4  C   UNL     1       6.971   4.385  17.037  0.00  0.00    +0.000 A 
ATOM      5  C   UNL     1       7.332   4.420  15.689  0.00  0.00    +0.000 A 
ATOM      6  C   UNL     1       6.544   5.128  14.781  0.00  0.00    +0.000 A 
ATOM      7  C   UNL     1       5.438   5.868  15.226  0.00  0.00    +0.000 A 
ATOM      8  C   UNL     1       5.084   5.873  16.586  0.00  0.00    +0.000 A 
ATOM      9  C   UNL     1       3.912   6.615  17.069  0.00  0.00    +0.000 A 
ATOM     10  C   UNL     1       3.923   7.985  17.330  0.00  0.00    +0.000 A 
ATOM     11  C   UNL     1       2.794   8.612  17.875  0.00  0.00    +0.000 A 
ATOM     12  C   UNL     1       1.609   7.890  18.074  0.00  0.00    +0.000 A 
ATOM     13  C   UNL     1       1.594   6.517  17.874  0.00  0.00    +0.000 A 
ATOM     14  C   UNL     1       2.782   5.896  17.495  0.00  0.00    +0.000 A 
ATOM     15  C   UNL     1       3.089   4.569  18.079  0.00  0.00    +0.000 A 
ATOM     16  O   UNL     1       2.639   3.532  17.597  0.00  0.00    +0.000 OA
ATOM     17  N   UNL     1       4.020   4.648  19.129  0.00  0.00    +0.000 N 
ENDROOT
BRANCH  17  18
ATOM     18  C   UNL     1       3.557   5.206  20.404  0.00  0.00    +0.000 C 
BRANCH  18  19
ATOM     19  C   UNL     1       2.493   4.395  21.139  0.00  0.00    +0.000 C 
ATOM     20  C   UNL     1       2.817   2.919  21.253  0.00  0.00    +0.000 C 
ATOM     21  C   UNL     1       1.445   2.327  21.443  0.00  0.00    +0.000 C 
ATOM     22  C   UNL     1       0.600   3.193  20.534  0.00  0.00    +0.000 C 
ATOM     23  O   UNL     1       1.193   4.503  20.540  0.00  0.00    +0.000 OA
ENDBRANCH  18  19
ENDBRANCH  17  18
TORSDOF 2
ENDMDL
MODEL 6
REMARK VINA RESULT:      -6.5      6.963      9.960
REMARK  Name = 
REMARK  2 active torsions:
REMARK  status: ('A' for Active; 'I' for Inactive)
REMARK    1  A    between atoms: N_17  and  C_18
REMARK    2  A    between atoms: C_18  and  C_19
REMARK                            x       y       z     vdW  Elec       q    Type
REMARK                         _______ _______ _______ _____ _____    ______ ____
ROOT
ATOM      1  O   UNL     1       0.882   9.952  22.305  0.00  0.00    +0.000 OA
ATOM      2  C   UNL     1       0.424  10.066  21.164  0.00  0.00    +0.000 A 
ATOM      3  C   UNL     1       1.182   9.443  20.057  0.00  0.00    +0.000 A 
ATOM      4  C   UNL     1       1.602   8.119  20.193  0.00  0.00    +0.000 A 
ATOM      5  C   UNL     1       2.218   7.478  19.117  0.00  0.00    +0.000 A 
ATOM      6  C   UNL     1       2.418   8.172  17.922  0.00  0.00    +0.000 A 
ATOM      7  C   UNL     1       2.074   9.528  17.823  0.00  0.00    +0.000 A 
ATOM      8  C   UNL     1       1.488  10.197  18.910  0.00  0.00    +0.000 A 
ATOM      9  C   UNL     1       1.091  11.609  18.818  0.00  0.00    +0.000 A 
ATOM     10  C   UNL     1       1.983  12.670  18.975  0.00  0.00    +0.000 A 
ATOM     11  C   UNL     1       1.519  13.992  18.964  0.00  0.00    +0.000 A 
ATOM     12  C   UNL     1       0.171  14.269  18.697  0.00  0.00    +0.000 A 
ATOM     13  C   UNL     1      -0.741  13.228  18.593  0.00  0.00    +0.000 A 
ATOM     14  C   UNL     1      -0.278  11.928  18.780  0.00  0.00    +0.000 A 
ATOM     15  C   UNL     1      -1.144  10.981  19.519  0.00  0.00    +0.000 A 
ATOM     16  O   UNL     1      -2.042  10.355  18.959  0.00  0.00    +0.000 OA
ATOM     17  N   UNL     1      -0.738  10.811  20.854  0.00  0.00    +0.000 N 
ENDROOT
BRANCH  17  18
ATOM     18  C   UNL     1      -0.991  11.914  21.785  0.00  0.00    +0.000 C 
BRANCH  18  19
ATOM     19  C   UNL     1      -2.458  12.263  22.022  0.00  0.00    +0.000 C 
ATOM     20  C   UNL     1      -2.759  13.745  21.929  0.00  0.00    +0.000 C 
ATOM     21  C   UNL     1      -4.021  13.845  22.745  0.00  0.00    +0.000 C 
ATOM     22  C   UNL     1      -3.756  12.851  23.857  0.00  0.00    +0.000 C 
ATOM     23  O   UNL     1      -2.944  11.806  23.294  0.00  0.00    +0.000 OA
ENDBRANCH  18  19
ENDBRANCH  17  18
TORSDOF 2
ENDMDL
MODEL 7
REMARK VINA RESULT:      -6.4      9.441     11.646
REMARK  Name = 
REMARK  2 active torsions:
REMARK  status: ('A' for Active; 'I' for Inactive)
REMARK    1  A    between atoms: N_17  and  C_18
REMARK    2  A    between atoms: C_18  and  C_19
REMARK                            x       y       z     vdW  Elec       q    Type
REMARK                         _______ _______ _______ _____ _____    ______ ____
ROOT
ATOM      1  O   UNL     1      -1.976  12.592  19.329  0.00  0.00    +0.000 OA
ATOM      2  C   UNL     1      -1.317  12.690  20.368  0.00  0.00    +0.000 A 
ATOM      3  C   UNL     1      -0.945  11.439  21.063  0.00  0.00    +0.000 A 
ATOM      4  C   UNL     1      -0.376  10.403  20.321  0.00  0.00    +0.000 A 
ATOM      5  C   UNL     1       0.085   9.260  20.977  0.00  0.00    +0.000 A 
ATOM      6  C   UNL     1      -0.037   9.162  22.363  0.00  0.00    +0.000 A 
ATOM      7  C   UNL     1      -0.689  10.168  23.091  0.00  0.00    +0.000 A 
ATOM      8  C   UNL     1      -1.193  11.307  22.441  0.00  0.00    +0.000 A 
ATOM      9  C   UNL     1      -1.852  12.387  23.188  0.00  0.00    +0.000 A 
ATOM     10  C   UNL     1      -3.187  12.341  23.590  0.00  0.00    +0.000 A 
ATOM     11  C   UNL     1      -3.775  13.445  24.221  0.00  0.00    +0.000 A 
ATOM     12  C   UNL     1      -3.005  14.572  24.543  0.00  0.00    +0.000 A 
ATOM     13  C   UNL     1      -1.692  14.660  24.102  0.00  0.00    +0.000 A 
ATOM     14  C   UNL     1      -1.187  13.618  23.329  0.00  0.00    +0.000 A 
ATOM     15  C   UNL     1      -0.295  13.961  22.197  0.00  0.00    +0.000 A 
ATOM     16  O   UNL     1       0.909  14.145  22.357  0.00  0.00    +0.000 OA
ATOM     17  N   UNL     1      -0.961  13.925  20.960  0.00  0.00    +0.000 N 
ENDROOT
BRANCH  17  18
ATOM     18  C   UNL     1      -1.904  15.008  20.666  0.00  0.00    +0.000 C 
BRANCH  18  19
ATOM     19  C   UNL     1      -1.291  16.300  20.132  0.00  0.00    +0.000 C 
ATOM     20  C   UNL     1      -2.312  17.313  19.654  0.00  0.00    +0.000 C 
ATOM     21  C   UNL     1      -1.490  18.137  18.699  0.00  0.00    +0.000 C 
ATOM     22  C   UNL     1      -0.609  17.087  18.055  0.00  0.00    +0.000 C 
ATOM     23  O   UNL     1      -0.370  16.078  19.052  0.00  0.00    +0.000 OA
ENDBRANCH  18  19
ENDBRANCH  17  18
TORSDOF 2
ENDMDL
MODEL 8
REMARK VINA RESULT:      -6.4      1.884      5.910
REMARK  Name = 
REMARK  2 active torsions:
REMARK  status: ('A' for Active; 'I' for Inactive)
REMARK    1  A    between atoms: N_17  and  C_18
REMARK    2  A    between atoms: C_18  and  C_19
REMARK                            x       y       z     vdW  Elec       q    Type
REMARK                         _______ _______ _______ _____ _____    ______ ____
ROOT
ATOM      1  O   UNL     1       3.942   2.924  16.612  0.00  0.00    +0.000 OA
ATOM      2  C   UNL     1       4.464   4.010  16.350  0.00  0.00    +0.000 A 
ATOM      3  C   UNL     1       5.377   4.068  15.188  0.00  0.00    +0.000 A 
ATOM      4  C   UNL     1       4.955   3.520  13.975  0.00  0.00    +0.000 A 
ATOM      5  C   UNL     1       5.754   3.664  12.840  0.00  0.00    +0.000 A 
ATOM      6  C   UNL     1       6.969   4.344  12.931  0.00  0.00    +0.000 A 
ATOM      7  C   UNL     1       7.427   4.814  14.171  0.00  0.00    +0.000 A 
ATOM      8  C   UNL     1       6.652   4.643  15.330  0.00  0.00    +0.000 A 
ATOM      9  C   UNL     1       7.098   5.155  16.633  0.00  0.00    +0.000 A 
ATOM     10  C   UNL     1       8.008   4.485  17.452  0.00  0.00    +0.000 A 
ATOM     11  C   UNL     1       8.321   4.988  18.722  0.00  0.00    +0.000 A 
ATOM     12  C   UNL     1       7.799   6.218  19.147  0.00  0.00    +0.000 A 
ATOM     13  C   UNL     1       6.851   6.871  18.372  0.00  0.00    +0.000 A 
ATOM     14  C   UNL     1       6.433   6.260  17.193  0.00  0.00    +0.000 A 
ATOM     15  C   UNL     1       4.999   6.352  16.832  0.00  0.00    +0.000 A 
ATOM     16  O   UNL     1       4.544   7.329  16.239  0.00  0.00    +0.000 OA
ATOM     17  N   UNL     1       4.292   5.176  17.133  0.00  0.00    +0.000 N 
ENDROOT
BRANCH  17  18
ATOM     18  C   UNL     1       4.015   4.895  18.545  0.00  0.00    +0.000 C 
BRANCH  18  19
ATOM     19  C   UNL     1       2.541   4.876  18.944  0.00  0.00    +0.000 C 
ATOM     20  C   UNL     1       2.308   4.980  20.437  0.00  0.00    +0.000 C 
ATOM     21  C   UNL     1       0.941   4.363  20.569  0.00  0.00    +0.000 C 
ATOM     22  C   UNL     1       0.999   3.247  19.548  0.00  0.00    +0.000 C 
ATOM     23  O   UNL     1       1.851   3.703  18.483  0.00  0.00    +0.000 OA
ENDBRANCH  18  19
ENDBRANCH  17  18
TORSDOF 2
ENDMDL
MODEL 9
REMARK VINA RESULT:      -6.4      9.226     11.413
REMARK  Name = 
REMARK  2 active torsions:
REMARK  status: ('A' for Active; 'I' for Inactive)
REMARK    1  A    between atoms: N_17  and  C_18
REMARK    2  A    between atoms: C_18  and  C_19
REMARK                            x       y       z     vdW  Elec       q    Type
REMARK                         _______ _______ _______ _____ _____    ______ ____
ROOT
ATOM      1  O   UNL     1      -1.884  12.423  19.273  0.00  0.00    +0.000 OA
ATOM      2  C   UNL     1      -1.227  12.548  20.310  0.00  0.00    +0.000 A 
ATOM      3  C   UNL     1      -0.855  11.315  21.037  0.00  0.00    +0.000 A 
ATOM      4  C   UNL     1      -0.283  10.261  20.322  0.00  0.00    +0.000 A 
ATOM      5  C   UNL     1       0.179   9.136  21.006  0.00  0.00    +0.000 A 
ATOM      6  C   UNL     1       0.054   9.071  22.394  0.00  0.00    +0.000 A 
ATOM      7  C   UNL     1      -0.601  10.094  23.096  0.00  0.00    +0.000 A 
ATOM      8  C   UNL     1      -1.105  11.216  22.417  0.00  0.00    +0.000 A 
ATOM      9  C   UNL     1      -1.767  12.313  23.135  0.00  0.00    +0.000 A 
ATOM     10  C   UNL     1      -3.103  12.274  23.536  0.00  0.00    +0.000 A 
ATOM     11  C   UNL     1      -3.695  13.393  24.138  0.00  0.00    +0.000 A 
ATOM     12  C   UNL     1      -2.927  14.528  24.434  0.00  0.00    +0.000 A 
ATOM     13  C   UNL     1      -1.613  14.608  23.994  0.00  0.00    +0.000 A 
ATOM     14  C   UNL     1      -1.105  13.548  23.248  0.00  0.00    +0.000 A 
ATOM     15  C   UNL     1      -0.212  13.865  22.109  0.00  0.00    +0.000 A 
ATOM     16  O   UNL     1       0.992  14.055  22.268  0.00  0.00    +0.000 OA
ATOM     17  N   UNL     1      -0.874  13.797  20.872  0.00  0.00    +0.000 N 
ENDROOT
BRANCH  17  18
ATOM     18  C   UNL     1      -1.819  14.871  20.549  0.00  0.00    +0.000 C 
BRANCH  18  19
ATOM     19  C   UNL     1      -1.215  16.122  19.916  0.00  0.00    +0.000 C 
ATOM     20  C   UNL     1      -0.213  15.831  18.818  0.00  0.00    +0.000 C 
ATOM     21  C   UNL     1       0.601  17.098  18.813  0.00  0.00    +0.000 C 
ATOM     22  C   UNL     1       0.664  17.436  20.288  0.00  0.00    +0.000 C 
ATOM     23  O   UNL     1      -0.567  16.976  20.872  0.00  0.00    +0.000 OA
ENDBRANCH  18  19
ENDBRANCH  17  18
TORSDOF 2
ENDMDL
