MODEL 1
REMARK VINA RESULT:      -8.0      0.000      0.000
REMARK  Name = 
REMARK  9 active torsions:
REMARK  status: ('A' for Active; 'I' for Inactive)
REMARK    1  A    between atoms: C_1  and  N_2
REMARK    2  A    between atoms: N_2  and  C_28
REMARK    3  A    between atoms: C_3  and  C_5
REMARK    4  A    between atoms: C_5  and  S_6
REMARK    5  A    between atoms: S_6  and  C_7
REMARK    6  A    between atoms: N_15  and  C_16
REMARK    7  A    between atoms: C_16  and  C_17
REMARK    8  A    between atoms: N_19  and  C_20
REMARK    9  A    between atoms: N_19  and  C_21
REMARK                            x       y       z     vdW  Elec       q    Type
REMARK                         _______ _______ _______ _____ _____    ______ ____
ROOT
ATOM      1  C   UNL     1       2.555   6.376  18.148  0.00  0.00    +0.000 A 
ATOM      2  N   UNL     1       1.522   5.584  18.277  0.00  0.00    +0.000 NA
ATOM      3  C   UNL     1       2.041   4.310  18.242  0.00  0.00    +0.000 A 
ATOM      4  C   UNL     1       1.382   3.076  18.373  0.00  0.00    +0.000 A 
ATOM      5  C   UNL     1       2.121   1.893  18.254  0.00  0.00    +0.000 A 
ATOM      6  C   UNL     1       3.489   1.933  17.995  0.00  0.00    +0.000 A 
ATOM      7  C   UNL     1       4.170   3.156  17.872  0.00  0.00    +0.000 A 
ATOM      8  C   UNL     1       3.416   4.333  18.024  0.00  0.00    +0.000 A 
ATOM      9  N   UNL     1       3.737   5.676  18.023  0.00  0.00    +0.000 N 
ENDROOT
BRANCH   1  10
ATOM     10  S   UNL     1       2.495   8.110  18.148  0.00  0.00    +0.000 S 
BRANCH  10  11
ATOM     11  C   UNL     1       1.618   8.480  19.714  0.00  0.00    +0.000 C 
BRANCH  11  14
ATOM     12  C   UNL     1       0.252   9.696  22.059  0.00  0.00    +0.000 C 
ATOM     13  N   UNL     1       0.334  10.409  20.781  0.00  0.00    +0.000 N 
ATOM     14  C   UNL     1       1.015   9.898  19.651  0.00  0.00    +0.000 C 
ATOM     15  O   UNL     1       1.203  10.571  18.629  0.00  0.00    +0.000 OA
BRANCH  13  16
ATOM     16  C   UNL     1      -0.299  11.721  20.748  0.00  0.00    +0.000 A 
ATOM     17  C   UNL     1       0.381  12.887  21.139  0.00  0.00    +0.000 A 
ATOM     18  C   UNL     1      -0.235  14.144  21.119  0.00  0.00    +0.000 A 
ATOM     19  C   UNL     1      -1.553  14.274  20.699  0.00  0.00    +0.000 A 
ATOM     20  C   UNL     1      -2.247  13.144  20.286  0.00  0.00    +0.000 A 
ATOM     21  C   UNL     1      -1.624  11.888  20.301  0.00  0.00    +0.000 A 
ENDBRANCH  13  16
ENDBRANCH  11  14
ENDBRANCH  10  11
ENDBRANCH   1  10
BRANCH   9  22
ATOM     22  C   UNL     1       5.063   6.249  17.812  0.00  0.00    +0.000 C 
BRANCH  22  23
ATOM     23  C   UNL     1       5.494   6.258  16.348  0.00  0.00    +0.000 C 
ATOM     24  O   UNL     1       4.928   6.998  15.544  0.00  0.00    +0.000 OA
ATOM     25  N   UNL     1       6.528   5.359  15.997  0.00  0.00    +0.000 N 
ATOM     26  C   UNL     1       7.312   4.606  16.979  0.00  0.00    +0.000 C 
BRANCH  25  27
ATOM     27  C   UNL     1       6.609   4.915  14.635  0.00  0.00    +0.000 A 
ATOM     28  C   UNL     1       5.772   3.902  14.148  0.00  0.00    +0.000 A 
ATOM     29  C   UNL     1       5.983   3.353  12.879  0.00  0.00    +0.000 A 
ATOM     30  C   UNL     1       7.037   3.813  12.100  0.00  0.00    +0.000 A 
ATOM     31  F   UNL     1       7.287   3.240  10.915  0.00  0.00    +0.000 F 
ATOM     32  C   UNL     1       7.850   4.848  12.542  0.00  0.00    +0.000 A 
ATOM     33  C   UNL     1       7.620   5.417  13.798  0.00  0.00    +0.000 A 
ENDBRANCH  25  27
ENDBRANCH  22  23
ENDBRANCH   9  22
TORSDOF 7
ENDMDL
MODEL 2
REMARK VINA RESULT:      -8.0      1.059      1.378
REMARK  Name = 
REMARK  9 active torsions:
REMARK  status: ('A' for Active; 'I' for Inactive)
REMARK    1  A    between atoms: C_1  and  N_2
REMARK    2  A    between atoms: N_2  and  C_28
REMARK    3  A    between atoms: C_3  and  C_5
REMARK    4  A    between atoms: C_5  and  S_6
REMARK    5  A    between atoms: S_6  and  C_7
REMARK    6  A    between atoms: N_15  and  C_16
REMARK    7  A    between atoms: C_16  and  C_17
REMARK    8  A    between atoms: N_19  and  C_20
REMARK    9  A    between atoms: N_19  and  C_21
REMARK                            x       y       z     vdW  Elec       q    Type
REMARK                         _______ _______ _______ _____ _____    ______ ____
ROOT
ATOM      1  C   UNL     1       2.673   6.582  18.113  0.00  0.00    +0.000 A 
ATOM      2  N   UNL     1       1.593   5.858  18.256  0.00  0.00    +0.000 NA
ATOM      3  C   UNL     1       2.031   4.554  18.234  0.00  0.00    +0.000 A 
ATOM      4  C   UNL     1       1.295   3.365  18.384  0.00  0.00    +0.000 A 
ATOM      5  C   UNL     1       1.958   2.136  18.276  0.00  0.00    +0.000 A 
ATOM      6  C   UNL     1       3.324   2.087  18.009  0.00  0.00    +0.000 A 
ATOM      7  C   UNL     1       4.080   3.263  17.868  0.00  0.00    +0.000 A 
ATOM      8  C   UNL     1       3.403   4.487  18.010  0.00  0.00    +0.000 A 
ATOM      9  N   UNL     1       3.808   5.807  17.990  0.00  0.00    +0.000 N 
ENDROOT
BRANCH   1  10
ATOM     10  S   UNL     1       2.723   8.316  18.091  0.00  0.00    +0.000 S 
BRANCH  10  11
ATOM     11  C   UNL     1       0.965   8.763  17.834  0.00  0.00    +0.000 C 
BRANCH  11  14
ATOM     12  C   UNL     1      -1.628  10.177  17.487  0.00  0.00    +0.000 C 
ATOM     13  N   UNL     1      -0.599  10.700  18.391  0.00  0.00    +0.000 N 
ATOM     14  C   UNL     1       0.629  10.040  18.630  0.00  0.00    +0.000 C 
ATOM     15  O   UNL     1       1.424  10.413  19.503  0.00  0.00    +0.000 OA
BRANCH  13  16
ATOM     16  C   UNL     1      -0.934  11.940  19.080  0.00  0.00    +0.000 A 
ATOM     17  C   UNL     1      -1.734  11.959  20.234  0.00  0.00    +0.000 A 
ATOM     18  C   UNL     1      -2.064  13.154  20.885  0.00  0.00    +0.000 A 
ATOM     19  C   UNL     1      -1.595  14.369  20.402  0.00  0.00    +0.000 A 
ATOM     20  C   UNL     1      -0.784  14.384  19.275  0.00  0.00    +0.000 A 
ATOM     21  C   UNL     1      -0.451  13.184  18.631  0.00  0.00    +0.000 A 
ENDBRANCH  13  16
ENDBRANCH  11  14
ENDBRANCH  10  11
ENDBRANCH   1  10
BRANCH   9  22
ATOM     22  C   UNL     1       5.166   6.292  17.765  0.00  0.00    +0.000 C 
BRANCH  22  23
ATOM     23  C   UNL     1       5.580   6.279  16.296  0.00  0.00    +0.000 C 
ATOM     24  O   UNL     1       5.050   7.053  15.500  0.00  0.00    +0.000 OA
ATOM     25  N   UNL     1       6.554   5.320  15.932  0.00  0.00    +0.000 N 
ATOM     26  C   UNL     1       7.302   4.520  16.904  0.00  0.00    +0.000 C 
BRANCH  25  27
ATOM     27  C   UNL     1       6.593   4.874  14.568  0.00  0.00    +0.000 A 
ATOM     28  C   UNL     1       5.710   3.893  14.098  0.00  0.00    +0.000 A 
ATOM     29  C   UNL     1       5.876   3.339  12.825  0.00  0.00    +0.000 A 
ATOM     30  C   UNL     1       6.931   3.761  12.026  0.00  0.00    +0.000 A 
ATOM     31  F   UNL     1       7.137   3.180  10.836  0.00  0.00    +0.000 F 
ATOM     32  C   UNL     1       7.789   4.764  12.452  0.00  0.00    +0.000 A 
ATOM     33  C   UNL     1       7.605   5.340  13.713  0.00  0.00    +0.000 A 
ENDBRANCH  25  27
ENDBRANCH  22  23
ENDBRANCH   9  22
TORSDOF 7
ENDMDL
MODEL 3
REMARK VINA RESULT:      -8.0      0.998      1.511
REMARK  Name = 
REMARK  9 active torsions:
REMARK  status: ('A' for Active; 'I' for Inactive)
REMARK    1  A    between atoms: C_1  and  N_2
REMARK    2  A    between atoms: N_2  and  C_28
REMARK    3  A    between atoms: C_3  and  C_5
REMARK    4  A    between atoms: C_5  and  S_6
REMARK    5  A    between atoms: S_6  and  C_7
REMARK    6  A    between atoms: N_15  and  C_16
REMARK    7  A    between atoms: C_16  and  C_17
REMARK    8  A    between atoms: N_19  and  C_20
REMARK    9  A    between atoms: N_19  and  C_21
REMARK                            x       y       z     vdW  Elec       q    Type
REMARK                         _______ _______ _______ _____ _____    ______ ____
ROOT
ATOM      1  C   UNL     1       2.708   6.661  18.044  0.00  0.00    +0.000 A 
ATOM      2  N   UNL     1       1.612   5.952  18.128  0.00  0.00    +0.000 NA
ATOM      3  C   UNL     1       2.033   4.643  18.163  0.00  0.00    +0.000 A 
ATOM      4  C   UNL     1       1.275   3.466  18.287  0.00  0.00    +0.000 A 
ATOM      5  C   UNL     1       1.928   2.227  18.250  0.00  0.00    +0.000 A 
ATOM      6  C   UNL     1       3.308   2.158  18.078  0.00  0.00    +0.000 A 
ATOM      7  C   UNL     1       4.087   3.322  17.964  0.00  0.00    +0.000 A 
ATOM      8  C   UNL     1       3.417   4.556  18.034  0.00  0.00    +0.000 A 
ATOM      9  N   UNL     1       3.838   5.871  18.015  0.00  0.00    +0.000 N 
ENDROOT
BRANCH   1  10
ATOM     10  S   UNL     1       2.780   8.393  17.990  0.00  0.00    +0.000 S 
BRANCH  10  11
ATOM     11  C   UNL     1       1.014   8.870  18.091  0.00  0.00    +0.000 C 
BRANCH  11  14
ATOM     12  C   UNL     1      -1.091  10.963  18.279  0.00  0.00    +0.000 C 
ATOM     13  N   UNL     1      -0.225  10.659  19.423  0.00  0.00    +0.000 N 
ATOM     14  C   UNL     1       0.756   9.640  19.402  0.00  0.00    +0.000 C 
ATOM     15  O   UNL     1       1.377   9.296  20.417  0.00  0.00    +0.000 OA
BRANCH  13  16
ATOM     16  C   UNL     1      -0.464  11.450  20.623  0.00  0.00    +0.000 A 
ATOM     17  C   UNL     1       0.001  12.769  20.752  0.00  0.00    +0.000 A 
ATOM     18  C   UNL     1      -0.218  13.521  21.913  0.00  0.00    +0.000 A 
ATOM     19  C   UNL     1      -0.918  12.975  22.981  0.00  0.00    +0.000 A 
ATOM     20  C   UNL     1      -1.410  11.680  22.878  0.00  0.00    +0.000 A 
ATOM     21  C   UNL     1      -1.194  10.934  21.711  0.00  0.00    +0.000 A 
ENDBRANCH  13  16
ENDBRANCH  11  14
ENDBRANCH  10  11
ENDBRANCH   1  10
BRANCH   9  22
ATOM     22  C   UNL     1       5.215   6.336  17.874  0.00  0.00    +0.000 C 
BRANCH  22  23
ATOM     23  C   UNL     1       5.731   6.276  16.439  0.00  0.00    +0.000 C 
ATOM     24  O   UNL     1       5.221   6.983  15.570  0.00  0.00    +0.000 OA
ATOM     25  N   UNL     1       6.776   5.354  16.190  0.00  0.00    +0.000 N 
ATOM     26  C   UNL     1       7.492   4.642  17.251  0.00  0.00    +0.000 C 
BRANCH  25  27
ATOM     27  C   UNL     1       6.933   4.848  14.857  0.00  0.00    +0.000 A 
ATOM     28  C   UNL     1       7.838   5.430  13.960  0.00  0.00    +0.000 A 
ATOM     29  C   UNL     1       7.851   5.047  12.614  0.00  0.00    +0.000 A 
ATOM     30  C   UNL     1       6.952   4.088  12.166  0.00  0.00    +0.000 A 
ATOM     31  F   UNL     1       6.911   3.773  10.864  0.00  0.00    +0.000 F 
ATOM     32  C   UNL     1       6.079   3.465  13.047  0.00  0.00    +0.000 A 
ATOM     33  C   UNL     1       6.086   3.825  14.397  0.00  0.00    +0.000 A 
ENDBRANCH  25  27
ENDBRANCH  22  23
ENDBRANCH   9  22
TORSDOF 7
ENDMDL
MODEL 4
REMARK VINA RESULT:      -7.9      0.700      1.245
REMARK  Name = 
REMARK  9 active torsions:
REMARK  status: ('A' for Active; 'I' for Inactive)
REMARK    1  A    between atoms: C_1  and  N_2
REMARK    2  A    between atoms: N_2  and  C_28
REMARK    3  A    between atoms: C_3  and  C_5
REMARK    4  A    between atoms: C_5  and  S_6
REMARK    5  A    between atoms: S_6  and  C_7
REMARK    6  A    between atoms: N_15  and  C_16
REMARK    7  A    between atoms: C_16  and  C_17
REMARK    8  A    between atoms: N_19  and  C_20
REMARK    9  A    between atoms: N_19  and  C_21
REMARK                            x       y       z     vdW  Elec       q    Type
REMARK                         _______ _______ _______ _____ _____    ______ ____
ROOT
ATOM      1  C   UNL     1       2.502   6.344  18.147  0.00  0.00    +0.000 A 
ATOM      2  N   UNL     1       1.490   5.517  18.209  0.00  0.00    +0.000 NA
ATOM      3  C   UNL     1       2.048   4.262  18.136  0.00  0.00    +0.000 A 
ATOM      4  C   UNL     1       1.423   3.004  18.195  0.00  0.00    +0.000 A 
ATOM      5  C   UNL     1       2.202   1.849  18.049  0.00  0.00    +0.000 A 
ATOM      6  C   UNL     1       3.575   1.941  17.834  0.00  0.00    +0.000 A 
ATOM      7  C   UNL     1       4.222   3.187  17.785  0.00  0.00    +0.000 A 
ATOM      8  C   UNL     1       3.428   4.334  17.964  0.00  0.00    +0.000 A 
ATOM      9  N   UNL     1       3.708   5.685  18.029  0.00  0.00    +0.000 N 
ENDROOT
BRANCH   1  10
ATOM     10  S   UNL     1       2.390   8.074  18.219  0.00  0.00    +0.000 S 
BRANCH  10  11
ATOM     11  C   UNL     1       1.754   8.363  19.913  0.00  0.00    +0.000 C 
BRANCH  11  14
ATOM     12  C   UNL     1      -0.231   8.913  22.058  0.00  0.00    +0.000 C 
ATOM     13  N   UNL     1      -0.016   9.867  20.967  0.00  0.00    +0.000 N 
ATOM     14  C   UNL     1       0.950   9.678  19.951  0.00  0.00    +0.000 C 
ATOM     15  O   UNL     1       1.223  10.557  19.122  0.00  0.00    +0.000 OA
BRANCH  13  16
ATOM     16  C   UNL     1      -0.838  11.070  21.009  0.00  0.00    +0.000 A 
ATOM     17  C   UNL     1      -1.453  11.593  19.860  0.00  0.00    +0.000 A 
ATOM     18  C   UNL     1      -2.231  12.757  19.901  0.00  0.00    +0.000 A 
ATOM     19  C   UNL     1      -2.422  13.431  21.101  0.00  0.00    +0.000 A 
ATOM     20  C   UNL     1      -1.845  12.928  22.260  0.00  0.00    +0.000 A 
ATOM     21  C   UNL     1      -1.073  11.759  22.214  0.00  0.00    +0.000 A 
ENDBRANCH  13  16
ENDBRANCH  11  14
ENDBRANCH  10  11
ENDBRANCH   1  10
BRANCH   9  22
ATOM     22  C   UNL     1       5.021   6.304  17.884  0.00  0.00    +0.000 C 
BRANCH  22  23
ATOM     23  C   UNL     1       5.560   6.259  16.457  0.00  0.00    +0.000 C 
ATOM     24  O   UNL     1       5.010   6.912  15.570  0.00  0.00    +0.000 OA
ATOM     25  N   UNL     1       6.672   5.412  16.236  0.00  0.00    +0.000 N 
ATOM     26  C   UNL     1       7.425   4.772  17.317  0.00  0.00    +0.000 C 
BRANCH  25  27
ATOM     27  C   UNL     1       6.883   4.898  14.914  0.00  0.00    +0.000 A 
ATOM     28  C   UNL     1       7.800   5.495  14.038  0.00  0.00    +0.000 A 
ATOM     29  C   UNL     1       7.864   5.100  12.698  0.00  0.00    +0.000 A 
ATOM     30  C   UNL     1       7.005   4.113  12.233  0.00  0.00    +0.000 A 
ATOM     31  F   UNL     1       7.013   3.784  10.934  0.00  0.00    +0.000 F 
ATOM     32  C   UNL     1       6.122   3.475  13.093  0.00  0.00    +0.000 A 
ATOM     33  C   UNL     1       6.079   3.848  14.439  0.00  0.00    +0.000 A 
ENDBRANCH  25  27
ENDBRANCH  22  23
ENDBRANCH   9  22
TORSDOF 7
ENDMDL
MODEL 5
REMARK VINA RESULT:      -7.8      0.684      1.101
REMARK  Name = 
REMARK  9 active torsions:
REMARK  status: ('A' for Active; 'I' for Inactive)
REMARK    1  A    between atoms: C_1  and  N_2
REMARK    2  A    between atoms: N_2  and  C_28
REMARK    3  A    between atoms: C_3  and  C_5
REMARK    4  A    between atoms: C_5  and  S_6
REMARK    5  A    between atoms: S_6  and  C_7
REMARK    6  A    between atoms: N_15  and  C_16
REMARK    7  A    between atoms: C_16  and  C_17
REMARK    8  A    between atoms: N_19  and  C_20
REMARK    9  A    between atoms: N_19  and  C_21
REMARK                            x       y       z     vdW  Elec       q    Type
REMARK                         _______ _______ _______ _____ _____    ______ ____
ROOT
ATOM      1  C   UNL     1       2.639   6.536  18.023  0.00  0.00    +0.000 A 
ATOM      2  N   UNL     1       1.566   5.803  18.177  0.00  0.00    +0.000 NA
ATOM      3  C   UNL     1       2.024   4.508  18.255  0.00  0.00    +0.000 A 
ATOM      4  C   UNL     1       1.303   3.319  18.457  0.00  0.00    +0.000 A 
ATOM      5  C   UNL     1       1.988   2.098  18.451  0.00  0.00    +0.000 A 
ATOM      6  C   UNL     1       3.363   2.056  18.234  0.00  0.00    +0.000 A 
ATOM      7  C   UNL     1       4.105   3.234  18.041  0.00  0.00    +0.000 A 
ATOM      8  C   UNL     1       3.405   4.452  18.081  0.00  0.00    +0.000 A 
ATOM      9  N   UNL     1       3.789   5.775  17.989  0.00  0.00    +0.000 N 
ENDROOT
BRANCH   1  10
ATOM     10  S   UNL     1       2.662   8.265  17.890  0.00  0.00    +0.000 S 
BRANCH  10  11
ATOM     11  C   UNL     1       1.301   8.770  19.008  0.00  0.00    +0.000 C 
BRANCH  11  14
ATOM     12  C   UNL     1      -0.150  10.151  21.206  0.00  0.00    +0.000 C 
ATOM     13  N   UNL     1       0.493  10.913  20.131  0.00  0.00    +0.000 N 
ATOM     14  C   UNL     1       1.238  10.309  19.092  0.00  0.00    +0.000 C 
ATOM     15  O   UNL     1       1.897  10.968  18.276  0.00  0.00    +0.000 OA
BRANCH  13  16
ATOM     16  C   UNL     1       0.360  12.362  20.217  0.00  0.00    +0.000 A 
ATOM     17  C   UNL     1      -0.701  13.050  19.606  0.00  0.00    +0.000 A 
ATOM     18  C   UNL     1      -0.818  14.444  19.679  0.00  0.00    +0.000 A 
ATOM     19  C   UNL     1       0.124  15.192  20.374  0.00  0.00    +0.000 A 
ATOM     20  C   UNL     1       1.175  14.540  21.007  0.00  0.00    +0.000 A 
ATOM     21  C   UNL     1       1.283  13.144  20.938  0.00  0.00    +0.000 A 
ENDBRANCH  13  16
ENDBRANCH  11  14
ENDBRANCH  10  11
ENDBRANCH   1  10
BRANCH   9  22
ATOM     22  C   UNL     1       5.146   6.269  17.778  0.00  0.00    +0.000 C 
BRANCH  22  23
ATOM     23  C   UNL     1       5.574   6.261  16.313  0.00  0.00    +0.000 C 
ATOM     24  O   UNL     1       5.036   7.022  15.510  0.00  0.00    +0.000 OA
ATOM     25  N   UNL     1       6.573   5.323  15.960  0.00  0.00    +0.000 N 
ATOM     26  C   UNL     1       7.329   4.541  16.941  0.00  0.00    +0.000 C 
BRANCH  25  27
ATOM     27  C   UNL     1       6.634   4.876  14.598  0.00  0.00    +0.000 A 
ATOM     28  C   UNL     1       5.801   3.850  14.130  0.00  0.00    +0.000 A 
ATOM     29  C   UNL     1       5.996   3.300  12.859  0.00  0.00    +0.000 A 
ATOM     30  C   UNL     1       7.028   3.773  12.059  0.00  0.00    +0.000 A 
ATOM     31  F   UNL     1       7.263   3.199  10.871  0.00  0.00    +0.000 F 
ATOM     32  C   UNL     1       7.835   4.819  12.482  0.00  0.00    +0.000 A 
ATOM     33  C   UNL     1       7.622   5.389  13.741  0.00  0.00    +0.000 A 
ENDBRANCH  25  27
ENDBRANCH  22  23
ENDBRANCH   9  22
TORSDOF 7
ENDMDL
MODEL 6
REMARK VINA RESULT:      -7.8      2.961      9.384
REMARK  Name = 
REMARK  9 active torsions:
REMARK  status: ('A' for Active; 'I' for Inactive)
REMARK    1  A    between atoms: C_1  and  N_2
REMARK    2  A    between atoms: N_2  and  C_28
REMARK    3  A    between atoms: C_3  and  C_5
REMARK    4  A    between atoms: C_5  and  S_6
REMARK    5  A    between atoms: S_6  and  C_7
REMARK    6  A    between atoms: N_15  and  C_16
REMARK    7  A    between atoms: C_16  and  C_17
REMARK    8  A    between atoms: N_19  and  C_20
REMARK    9  A    between atoms: N_19  and  C_21
REMARK                            x       y       z     vdW  Elec       q    Type
REMARK                         _______ _______ _______ _____ _____    ______ ____
ROOT
ATOM      1  C   UNL     1       3.374   6.207  18.245  0.00  0.00    +0.000 A 
ATOM      2  N   UNL     1       3.409   5.023  17.690  0.00  0.00    +0.000 NA
ATOM      3  C   UNL     1       2.500   4.269  18.396  0.00  0.00    +0.000 A 
ATOM      4  C   UNL     1       2.108   2.933  18.202  0.00  0.00    +0.000 A 
ATOM      5  C   UNL     1       1.189   2.357  19.087  0.00  0.00    +0.000 A 
ATOM      6  C   UNL     1       0.678   3.090  20.156  0.00  0.00    +0.000 A 
ATOM      7  C   UNL     1       1.046   4.431  20.361  0.00  0.00    +0.000 A 
ATOM      8  C   UNL     1       1.947   5.000  19.444  0.00  0.00    +0.000 A 
ATOM      9  N   UNL     1       2.482   6.265  19.295  0.00  0.00    +0.000 N 
ENDROOT
BRANCH   1  10
ATOM     10  S   UNL     1       4.309   7.579  17.741  0.00  0.00    +0.000 S 
BRANCH  10  11
ATOM     11  C   UNL     1       5.928   6.827  17.324  0.00  0.00    +0.000 C 
BRANCH  11  14
ATOM     12  C   UNL     1       7.341   4.325  16.557  0.00  0.00    +0.000 C 
ATOM     13  N   UNL     1       6.627   5.125  15.557  0.00  0.00    +0.000 N 
ATOM     14  C   UNL     1       5.897   6.294  15.877  0.00  0.00    +0.000 C 
ATOM     15  O   UNL     1       5.180   6.876  15.053  0.00  0.00    +0.000 OA
BRANCH  13  16
ATOM     16  C   UNL     1       6.672   4.617  14.192  0.00  0.00    +0.000 A 
ATOM     17  C   UNL     1       7.637   5.048  13.268  0.00  0.00    +0.000 A 
ATOM     18  C   UNL     1       7.669   4.567  11.953  0.00  0.00    +0.000 A 
ATOM     19  C   UNL     1       6.736   3.632  11.525  0.00  0.00    +0.000 A 
ATOM     20  C   UNL     1       5.780   3.168  12.420  0.00  0.00    +0.000 A 
ATOM     21  C   UNL     1       5.757   3.647  13.737  0.00  0.00    +0.000 A 
ENDBRANCH  13  16
ENDBRANCH  11  14
ENDBRANCH  10  11
ENDBRANCH   1  10
BRANCH   9  22
ATOM     22  C   UNL     1       2.236   7.415  20.159  0.00  0.00    +0.000 C 
BRANCH  22  23
ATOM     23  C   UNL     1       1.355   8.481  19.514  0.00  0.00    +0.000 C 
ATOM     24  O   UNL     1       1.344   8.614  18.291  0.00  0.00    +0.000 OA
ATOM     25  N   UNL     1       0.609   9.294  20.401  0.00  0.00    +0.000 N 
ATOM     26  C   UNL     1       0.493   9.026  21.836  0.00  0.00    +0.000 C 
BRANCH  25  27
ATOM     27  C   UNL     1       0.217  10.601  19.958  0.00  0.00    +0.000 A 
ATOM     28  C   UNL     1      -1.002  10.811  19.299  0.00  0.00    +0.000 A 
ATOM     29  C   UNL     1      -1.289  12.048  18.712  0.00  0.00    +0.000 A 
ATOM     30  C   UNL     1      -0.354  13.072  18.780  0.00  0.00    +0.000 A 
ATOM     31  F   UNL     1      -0.595  14.233  18.156  0.00  0.00    +0.000 F 
ATOM     32  C   UNL     1       0.839  12.902  19.467  0.00  0.00    +0.000 A 
ATOM     33  C   UNL     1       1.114  11.675  20.079  0.00  0.00    +0.000 A 
ENDBRANCH  25  27
ENDBRANCH  22  23
ENDBRANCH   9  22
TORSDOF 7
ENDMDL
MODEL 7
REMARK VINA RESULT:      -7.6      1.024      1.204
REMARK  Name = 
REMARK  9 active torsions:
REMARK  status: ('A' for Active; 'I' for Inactive)
REMARK    1  A    between atoms: C_1  and  N_2
REMARK    2  A    between atoms: N_2  and  C_28
REMARK    3  A    between atoms: C_3  and  C_5
REMARK    4  A    between atoms: C_5  and  S_6
REMARK    5  A    between atoms: S_6  and  C_7
REMARK    6  A    between atoms: N_15  and  C_16
REMARK    7  A    between atoms: C_16  and  C_17
REMARK    8  A    between atoms: N_19  and  C_20
REMARK    9  A    between atoms: N_19  and  C_21
REMARK                            x       y       z     vdW  Elec       q    Type
REMARK                         _______ _______ _______ _____ _____    ______ ____
ROOT
ATOM      1  C   UNL     1       2.517   6.455  18.273  0.00  0.00    +0.000 A 
ATOM      2  N   UNL     1       1.514   5.626  18.399  0.00  0.00    +0.000 NA
ATOM      3  C   UNL     1       2.063   4.373  18.257  0.00  0.00    +0.000 A 
ATOM      4  C   UNL     1       1.444   3.113  18.340  0.00  0.00    +0.000 A 
ATOM      5  C   UNL     1       2.207   1.962  18.109  0.00  0.00    +0.000 A 
ATOM      6  C   UNL     1       3.559   2.059  17.789  0.00  0.00    +0.000 A 
ATOM      7  C   UNL     1       4.201   3.307  17.713  0.00  0.00    +0.000 A 
ATOM      8  C   UNL     1       3.425   4.449  17.977  0.00  0.00    +0.000 A 
ATOM      9  N   UNL     1       3.710   5.799  18.047  0.00  0.00    +0.000 N 
ENDROOT
BRANCH   1  10
ATOM     10  S   UNL     1       2.413   8.183  18.388  0.00  0.00    +0.000 S 
BRANCH  10  11
ATOM     11  C   UNL     1       1.193   8.420  19.735  0.00  0.00    +0.000 C 
BRANCH  11  14
ATOM     12  C   UNL     1      -0.583  10.002  17.950  0.00  0.00    +0.000 C 
ATOM     13  N   UNL     1       0.138  10.641  19.055  0.00  0.00    +0.000 N 
ATOM     14  C   UNL     1       0.954   9.926  19.963  0.00  0.00    +0.000 C 
ATOM     15  O   UNL     1       1.438  10.450  20.976  0.00  0.00    +0.000 OA
BRANCH  13  16
ATOM     16  C   UNL     1      -0.070  12.076  19.200  0.00  0.00    +0.000 A 
ATOM     17  C   UNL     1       0.791  13.017  18.610  0.00  0.00    +0.000 A 
ATOM     18  C   UNL     1       0.595  14.395  18.763  0.00  0.00    +0.000 A 
ATOM     19  C   UNL     1      -0.475  14.874  19.507  0.00  0.00    +0.000 A 
ATOM     20  C   UNL     1      -1.357  13.971  20.086  0.00  0.00    +0.000 A 
ATOM     21  C   UNL     1      -1.161  12.592  19.924  0.00  0.00    +0.000 A 
ENDBRANCH  13  16
ENDBRANCH  11  14
ENDBRANCH  10  11
ENDBRANCH   1  10
BRANCH   9  22
ATOM     22  C   UNL     1       5.008   6.422  17.811  0.00  0.00    +0.000 C 
BRANCH  22  23
ATOM     23  C   UNL     1       5.442   6.384  16.348  0.00  0.00    +0.000 C 
ATOM     24  O   UNL     1       4.878   7.099  15.520  0.00  0.00    +0.000 OA
ATOM     25  N   UNL     1       6.477   5.474  16.028  0.00  0.00    +0.000 N 
ATOM     26  C   UNL     1       7.259   4.754  17.036  0.00  0.00    +0.000 C 
BRANCH  25  27
ATOM     27  C   UNL     1       6.561   4.986  14.681  0.00  0.00    +0.000 A 
ATOM     28  C   UNL     1       5.706   3.978  14.218  0.00  0.00    +0.000 A 
ATOM     29  C   UNL     1       5.917   3.386  12.968  0.00  0.00    +0.000 A 
ATOM     30  C   UNL     1       6.987   3.798  12.186  0.00  0.00    +0.000 A 
ATOM     31  F   UNL     1       7.236   3.183  11.022  0.00  0.00    +0.000 F 
ATOM     32  C   UNL     1       7.819   4.828  12.604  0.00  0.00    +0.000 A 
ATOM     33  C   UNL     1       7.591   5.440  13.840  0.00  0.00    +0.000 A 
ENDBRANCH  25  27
ENDBRANCH  22  23
ENDBRANCH   9  22
TORSDOF 7
ENDMDL
MODEL 8
REMARK VINA RESULT:      -7.6      6.998     11.373
REMARK  Name = 
REMARK  9 active torsions:
REMARK  status: ('A' for Active; 'I' for Inactive)
REMARK    1  A    between atoms: C_1  and  N_2
REMARK    2  A    between atoms: N_2  and  C_28
REMARK    3  A    between atoms: C_3  and  C_5
REMARK    4  A    between atoms: C_5  and  S_6
REMARK    5  A    between atoms: S_6  and  C_7
REMARK    6  A    between atoms: N_15  and  C_16
REMARK    7  A    between atoms: C_16  and  C_17
REMARK    8  A    between atoms: N_19  and  C_20
REMARK    9  A    between atoms: N_19  and  C_21
REMARK                            x       y       z     vdW  Elec       q    Type
REMARK                         _______ _______ _______ _____ _____    ______ ____
ROOT
ATOM      1  C   UNL     1       3.688  15.879  18.857  0.00  0.00    +0.000 A 
ATOM      2  N   UNL     1       3.554  16.888  18.035  0.00  0.00    +0.000 NA
ATOM      3  C   UNL     1       2.197  17.096  17.940  0.00  0.00    +0.000 A 
ATOM      4  C   UNL     1       1.495  18.077  17.220  0.00  0.00    +0.000 A 
ATOM      5  C   UNL     1       0.094  18.062  17.236  0.00  0.00    +0.000 A 
ATOM      6  C   UNL     1      -0.597  17.081  17.943  0.00  0.00    +0.000 A 
ATOM      7  C   UNL     1       0.086  16.099  18.680  0.00  0.00    +0.000 A 
ATOM      8  C   UNL     1       1.491  16.148  18.676  0.00  0.00    +0.000 A 
ATOM      9  N   UNL     1       2.472  15.407  19.305  0.00  0.00    +0.000 N 
ENDROOT
BRANCH   1  10
ATOM     10  S   UNL     1       5.198  15.194  19.366  0.00  0.00    +0.000 S 
BRANCH  10  11
ATOM     11  C   UNL     1       6.270  15.458  17.903  0.00  0.00    +0.000 C 
BRANCH  11  14
ATOM     12  C   UNL     1       8.892  15.776  19.270  0.00  0.00    +0.000 C 
ATOM     13  N   UNL     1       8.598  14.583  18.471  0.00  0.00    +0.000 N 
ATOM     14  C   UNL     1       7.350  14.359  17.843  0.00  0.00    +0.000 C 
ATOM     15  O   UNL     1       7.064  13.285  17.296  0.00  0.00    +0.000 OA
BRANCH  13  16
ATOM     16  C   UNL     1       9.667  13.595  18.392  0.00  0.00    +0.000 A 
ATOM     17  C   UNL     1      10.671  13.661  17.413  0.00  0.00    +0.000 A 
ATOM     18  C   UNL     1      11.690  12.703  17.331  0.00  0.00    +0.000 A 
ATOM     19  C   UNL     1      11.737  11.651  18.237  0.00  0.00    +0.000 A 
ATOM     20  C   UNL     1      10.770  11.568  19.231  0.00  0.00    +0.000 A 
ATOM     21  C   UNL     1       9.757  12.534  19.312  0.00  0.00    +0.000 A 
ENDBRANCH  13  16
ENDBRANCH  11  14
ENDBRANCH  10  11
ENDBRANCH   1  10
BRANCH   9  22
ATOM     22  C   UNL     1       2.260  14.264  20.187  0.00  0.00    +0.000 C 
BRANCH  22  23
ATOM     23  C   UNL     1       1.725  13.030  19.464  0.00  0.00    +0.000 C 
ATOM     24  O   UNL     1       2.267  12.638  18.431  0.00  0.00    +0.000 OA
ATOM     25  N   UNL     1       0.582  12.421  20.034  0.00  0.00    +0.000 N 
ATOM     26  C   UNL     1       0.044  12.783  21.347  0.00  0.00    +0.000 C 
BRANCH  25  27
ATOM     27  C   UNL     1      -0.276  11.653  19.178  0.00  0.00    +0.000 A 
ATOM     28  C   UNL     1       0.019  10.320  18.858  0.00  0.00    +0.000 A 
ATOM     29  C   UNL     1      -0.721   9.643  17.883  0.00  0.00    +0.000 A 
ATOM     30  C   UNL     1      -1.751  10.301  17.225  0.00  0.00    +0.000 A 
ATOM     31  F   UNL     1      -2.414   9.680  16.239  0.00  0.00    +0.000 F 
ATOM     32  C   UNL     1      -2.091  11.605  17.559  0.00  0.00    +0.000 A 
ATOM     33  C   UNL     1      -1.372  12.272  18.554  0.00  0.00    +0.000 A 
ENDBRANCH  25  27
ENDBRANCH  22  23
ENDBRANCH   9  22
TORSDOF 7
ENDMDL
MODEL 9
REMARK VINA RESULT:      -7.5      5.090      8.192
REMARK  Name = 
REMARK  9 active torsions:
REMARK  status: ('A' for Active; 'I' for Inactive)
REMARK    1  A    between atoms: C_1  and  N_2
REMARK    2  A    between atoms: N_2  and  C_28
REMARK    3  A    between atoms: C_3  and  C_5
REMARK    4  A    between atoms: C_5  and  S_6
REMARK    5  A    between atoms: S_6  and  C_7
REMARK    6  A    between atoms: N_15  and  C_16
REMARK    7  A    between atoms: C_16  and  C_17
REMARK    8  A    between atoms: N_19  and  C_20
REMARK    9  A    between atoms: N_19  and  C_21
REMARK                            x       y       z     vdW  Elec       q    Type
REMARK                         _______ _______ _______ _____ _____    ______ ____
ROOT
ATOM      1  C   UNL     1       6.862   5.381  16.100  0.00  0.00    +0.000 A 
ATOM      2  N   UNL     1       7.766   5.016  15.228  0.00  0.00    +0.000 NA
ATOM      3  C   UNL     1       7.054   4.546  14.149  0.00  0.00    +0.000 A 
ATOM      4  C   UNL     1       7.522   4.061  12.915  0.00  0.00    +0.000 A 
ATOM      5  C   UNL     1       6.600   3.586  11.975  0.00  0.00    +0.000 A 
ATOM      6  C   UNL     1       5.236   3.578  12.260  0.00  0.00    +0.000 A 
ATOM      7  C   UNL     1       4.746   4.069  13.481  0.00  0.00    +0.000 A 
ATOM      8  C   UNL     1       5.685   4.570  14.400  0.00  0.00    +0.000 A 
ATOM      9  N   UNL     1       5.579   5.164  15.642  0.00  0.00    +0.000 N 
ENDROOT
BRANCH   1  10
ATOM     10  S   UNL     1       7.190   6.076  17.655  0.00  0.00    +0.000 S 
BRANCH  10  11
ATOM     11  C   UNL     1       7.161   7.874  17.302  0.00  0.00    +0.000 C 
BRANCH  11  14
ATOM     12  C   UNL     1       7.557  10.818  17.149  0.00  0.00    +0.000 C 
ATOM     13  N   UNL     1       8.410   9.985  18.002  0.00  0.00    +0.000 N 
ATOM     14  C   UNL     1       8.232   8.590  18.150  0.00  0.00    +0.000 C 
ATOM     15  O   UNL     1       8.862   7.924  18.982  0.00  0.00    +0.000 OA
BRANCH  13  16
ATOM     16  C   UNL     1       9.448  10.694  18.741  0.00  0.00    +0.000 A 
ATOM     17  C   UNL     1       9.318  10.991  20.108  0.00  0.00    +0.000 A 
ATOM     18  C   UNL     1      10.312  11.683  20.811  0.00  0.00    +0.000 A 
ATOM     19  C   UNL     1      11.471  12.094  20.167  0.00  0.00    +0.000 A 
ATOM     20  C   UNL     1      11.640  11.798  18.820  0.00  0.00    +0.000 A 
ATOM     21  C   UNL     1      10.646  11.098  18.122  0.00  0.00    +0.000 A 
ENDBRANCH  13  16
ENDBRANCH  11  14
ENDBRANCH  10  11
ENDBRANCH   1  10
BRANCH   9  22
ATOM     22  C   UNL     1       4.344   5.410  16.381  0.00  0.00    +0.000 C 
BRANCH  22  23
ATOM     23  C   UNL     1       4.085   4.389  17.486  0.00  0.00    +0.000 C 
ATOM     24  O   UNL     1       4.241   3.189  17.264  0.00  0.00    +0.000 OA
ATOM     25  N   UNL     1       3.634   4.909  18.722  0.00  0.00    +0.000 N 
ATOM     26  C   UNL     1       3.612   6.340  19.036  0.00  0.00    +0.000 C 
BRANCH  25  27
ATOM     27  C   UNL     1       2.873   4.051  19.584  0.00  0.00    +0.000 A 
ATOM     28  C   UNL     1       1.472   4.103  19.609  0.00  0.00    +0.000 A 
ATOM     29  C   UNL     1       0.753   3.397  20.578  0.00  0.00    +0.000 A 
ATOM     30  C   UNL     1       1.435   2.645  21.526  0.00  0.00    +0.000 A 
ATOM     31  F   UNL     1       0.752   2.027  22.500  0.00  0.00    +0.000 F 
ATOM     32  C   UNL     1       2.818   2.541  21.491  0.00  0.00    +0.000 A 
ATOM     33  C   UNL     1       3.536   3.223  20.504  0.00  0.00    +0.000 A 
ENDBRANCH  25  27
ENDBRANCH  22  23
ENDBRANCH   9  22
TORSDOF 7
ENDMDL
