MODEL 1
REMARK VINA RESULT:      -7.7      0.000      0.000
REMARK  Name = 
REMARK  8 active torsions:
REMARK  status: ('A' for Active; 'I' for Inactive)
REMARK    1  A    between atoms: C_1  and  C_2
REMARK    2  A    between atoms: C_4  and  C_5
REMARK    3  A    between atoms: C_6  and  C_7
REMARK    4  A    between atoms: C_7  and  C_9
REMARK    5  A    between atoms: C_9  and  O_10
REMARK    6  A    between atoms: O_10  and  C_11
REMARK    7  A    between atoms: C_11  and  C_13
REMARK    8  A    between atoms: C_20  and  C_21
REMARK                            x       y       z     vdW  Elec       q    Type
REMARK                         _______ _______ _______ _____ _____    ______ ____
ROOT
ATOM      1  C   UNL     1       2.577   3.914  18.214  0.00  0.00    +0.000 C 
ATOM      2  O   UNL     1       2.034   3.667  17.134  0.00  0.00    +0.000 OA
ENDROOT
BRANCH   1   8
ATOM      3  C   UNL     1       1.275   8.644  21.470  0.00  0.00    +0.000 C 
ATOM      4  C   UNL     1       1.582   7.441  20.630  0.00  0.00    +0.000 A 
ATOM      5  C   UNL     1       1.170   6.167  20.988  0.00  0.00    +0.000 A 
ATOM      6  C   UNL     1       1.487   5.041  20.196  0.00  0.00    +0.000 A 
ATOM      7  C   UNL     1       0.965   3.717  20.711  0.00  0.00    +0.000 C 
ATOM      8  C   UNL     1       2.257   5.185  18.996  0.00  0.00    +0.000 A 
ATOM      9  C   UNL     1       2.668   6.499  18.627  0.00  0.00    +0.000 A 
ATOM     10  C   UNL     1       3.490   6.969  17.451  0.00  0.00    +0.000 C 
ATOM     11  C   UNL     1       2.317   7.590  19.462  0.00  0.00    +0.000 A 
ENDBRANCH   1   8
BRANCH   1  12
ATOM     12  C   UNL     1       3.586   2.923  18.750  0.00  0.00    +0.000 C 
BRANCH  12  13
ATOM     13  O   UNL     1       4.784   2.881  17.975  0.00  0.00    +0.000 OA
BRANCH  13  14
ATOM     14  C   UNL     1       5.572   3.960  18.137  0.00  0.00    +0.000 C 
ATOM     15  O   UNL     1       5.861   4.501  19.198  0.00  0.00    +0.000 OA
BRANCH  14  16
ATOM     16  C   UNL     1       6.125   4.398  16.856  0.00  0.00    +0.000 A 
ATOM     17  C   UNL     1       5.760   3.677  15.711  0.00  0.00    +0.000 A 
ATOM     18  C   UNL     1       6.271   4.051  14.476  0.00  0.00    +0.000 A 
ATOM     19  C   UNL     1       7.138   5.130  14.427  0.00  0.00    +0.000 A 
ATOM     20  N   UNL     1       7.527   5.831  15.512  0.00  0.00    +0.000 NA
ATOM     21  C   UNL     1       7.018   5.449  16.709  0.00  0.00    +0.000 A 
ATOM     22 CL   UNL     1       7.697   6.358  18.005  0.00  0.00    +0.000 Cl
ENDBRANCH  14  16
ENDBRANCH  13  14
ENDBRANCH  12  13
ENDBRANCH   1  12
TORSDOF 5
ENDMDL
MODEL 2
REMARK VINA RESULT:      -7.3      1.431      2.077
REMARK  Name = 
REMARK  8 active torsions:
REMARK  status: ('A' for Active; 'I' for Inactive)
REMARK    1  A    between atoms: C_1  and  C_2
REMARK    2  A    between atoms: C_4  and  C_5
REMARK    3  A    between atoms: C_6  and  C_7
REMARK    4  A    between atoms: C_7  and  C_9
REMARK    5  A    between atoms: C_9  and  O_10
REMARK    6  A    between atoms: O_10  and  C_11
REMARK    7  A    between atoms: C_11  and  C_13
REMARK    8  A    between atoms: C_20  and  C_21
REMARK                            x       y       z     vdW  Elec       q    Type
REMARK                         _______ _______ _______ _____ _____    ______ ____
ROOT
ATOM      1  C   UNL     1       2.378   4.139  18.000  0.00  0.00    +0.000 C 
ATOM      2  O   UNL     1       1.615   3.861  17.071  0.00  0.00    +0.000 OA
ENDROOT
BRANCH   1   8
ATOM      3  C   UNL     1       1.380   8.588  21.727  0.00  0.00    +0.000 C 
ATOM      4  C   UNL     1       1.608   7.456  20.771  0.00  0.00    +0.000 A 
ATOM      5  C   UNL     1       1.297   6.144  21.093  0.00  0.00    +0.000 A 
ATOM      6  C   UNL     1       1.539   5.086  20.188  0.00  0.00    +0.000 A 
ATOM      7  C   UNL     1       1.144   3.709  20.678  0.00  0.00    +0.000 C 
ATOM      8  C   UNL     1       2.126   5.341  18.905  0.00  0.00    +0.000 A 
ATOM      9  C   UNL     1       2.433   6.693  18.575  0.00  0.00    +0.000 A 
ATOM     10  C   UNL     1       3.062   7.274  17.332  0.00  0.00    +0.000 C 
ATOM     11  C   UNL     1       2.164   7.712  19.525  0.00  0.00    +0.000 A 
ENDBRANCH   1   8
BRANCH   1  12
ATOM     12  C   UNL     1       3.587   3.257  18.223  0.00  0.00    +0.000 C 
BRANCH  12  13
ATOM     13  O   UNL     1       4.775   4.005  18.478  0.00  0.00    +0.000 OA
BRANCH  13  14
ATOM     14  C   UNL     1       5.539   4.197  17.386  0.00  0.00    +0.000 C 
ATOM     15  O   UNL     1       5.523   3.532  16.358  0.00  0.00    +0.000 OA
BRANCH  14  16
ATOM     16  C   UNL     1       6.382   5.382  17.544  0.00  0.00    +0.000 A 
ATOM     17  C   UNL     1       7.189   5.458  18.686  0.00  0.00    +0.000 A 
ATOM     18  C   UNL     1       7.996   6.570  18.881  0.00  0.00    +0.000 A 
ATOM     19  C   UNL     1       7.963   7.575  17.930  0.00  0.00    +0.000 A 
ATOM     20  N   UNL     1       7.183   7.545  16.830  0.00  0.00    +0.000 NA
ATOM     21  C   UNL     1       6.401   6.450  16.659  0.00  0.00    +0.000 A 
ATOM     22 CL   UNL     1       5.379   6.611  15.281  0.00  0.00    +0.000 Cl
ENDBRANCH  14  16
ENDBRANCH  13  14
ENDBRANCH  12  13
ENDBRANCH   1  12
TORSDOF 5
ENDMDL
MODEL 3
REMARK VINA RESULT:      -7.3      2.794      6.505
REMARK  Name = 
REMARK  8 active torsions:
REMARK  status: ('A' for Active; 'I' for Inactive)
REMARK    1  A    between atoms: C_1  and  C_2
REMARK    2  A    between atoms: C_4  and  C_5
REMARK    3  A    between atoms: C_6  and  C_7
REMARK    4  A    between atoms: C_7  and  C_9
REMARK    5  A    between atoms: C_9  and  O_10
REMARK    6  A    between atoms: O_10  and  C_11
REMARK    7  A    between atoms: C_11  and  C_13
REMARK    8  A    between atoms: C_20  and  C_21
REMARK                            x       y       z     vdW  Elec       q    Type
REMARK                         _______ _______ _______ _____ _____    ______ ____
ROOT
ATOM      1  C   UNL     1       5.673   5.219  18.869  0.00  0.00    +0.000 C 
ATOM      2  O   UNL     1       6.315   4.637  19.747  0.00  0.00    +0.000 OA
ENDROOT
BRANCH   1   8
ATOM      3  C   UNL     1       6.368   3.840  13.187  0.00  0.00    +0.000 C 
ATOM      4  C   UNL     1       6.173   4.211  14.626  0.00  0.00    +0.000 A 
ATOM      5  C   UNL     1       6.851   5.267  15.214  0.00  0.00    +0.000 A 
ATOM      6  C   UNL     1       6.673   5.589  16.578  0.00  0.00    +0.000 A 
ATOM      7  C   UNL     1       7.478   6.770  17.077  0.00  0.00    +0.000 C 
ATOM      8  C   UNL     1       5.786   4.820  17.401  0.00  0.00    +0.000 A 
ATOM      9  C   UNL     1       5.083   3.742  16.788  0.00  0.00    +0.000 A 
ATOM     10  C   UNL     1       4.108   2.753  17.379  0.00  0.00    +0.000 C 
ATOM     11  C   UNL     1       5.302   3.470  15.414  0.00  0.00    +0.000 A 
ENDBRANCH   1   8
BRANCH   1  12
ATOM     12  C   UNL     1       4.766   6.358  19.281  0.00  0.00    +0.000 C 
BRANCH  12  13
ATOM     13  O   UNL     1       3.459   6.254  18.719  0.00  0.00    +0.000 OA
BRANCH  13  14
ATOM     14  C   UNL     1       2.471   6.289  19.633  0.00  0.00    +0.000 C 
ATOM     15  O   UNL     1       1.941   7.290  20.096  0.00  0.00    +0.000 OA
BRANCH  14  16
ATOM     16  C   UNL     1       2.036   4.936  19.980  0.00  0.00    +0.000 A 
ATOM     17  C   UNL     1       2.314   4.476  21.274  0.00  0.00    +0.000 A 
ATOM     18  C   UNL     1       1.929   3.194  21.641  0.00  0.00    +0.000 A 
ATOM     19  C   UNL     1       1.286   2.410  20.698  0.00  0.00    +0.000 A 
ATOM     20  N   UNL     1       1.023   2.813  19.438  0.00  0.00    +0.000 NA
ATOM     21  C   UNL     1       1.408   4.068  19.099  0.00  0.00    +0.000 A 
ATOM     22 CL   UNL     1       1.114   4.392  17.432  0.00  0.00    +0.000 Cl
ENDBRANCH  14  16
ENDBRANCH  13  14
ENDBRANCH  12  13
ENDBRANCH   1  12
TORSDOF 5
ENDMDL
MODEL 4
REMARK VINA RESULT:      -7.2      1.152      1.804
REMARK  Name = 
REMARK  8 active torsions:
REMARK  status: ('A' for Active; 'I' for Inactive)
REMARK    1  A    between atoms: C_1  and  C_2
REMARK    2  A    between atoms: C_4  and  C_5
REMARK    3  A    between atoms: C_6  and  C_7
REMARK    4  A    between atoms: C_7  and  C_9
REMARK    5  A    between atoms: C_9  and  O_10
REMARK    6  A    between atoms: O_10  and  C_11
REMARK    7  A    between atoms: C_11  and  C_13
REMARK    8  A    between atoms: C_20  and  C_21
REMARK                            x       y       z     vdW  Elec       q    Type
REMARK                         _______ _______ _______ _____ _____    ______ ____
ROOT
ATOM      1  C   UNL     1       2.599   6.253  18.233  0.00  0.00    +0.000 C 
ATOM      2  O   UNL     1       1.954   5.351  17.693  0.00  0.00    +0.000 OA
ENDROOT
BRANCH   1   8
ATOM      3  C   UNL     1       0.165   9.764  22.286  0.00  0.00    +0.000 C 
ATOM      4  C   UNL     1       0.760   8.860  21.248  0.00  0.00    +0.000 A 
ATOM      5  C   UNL     1       1.031   7.525  21.500  0.00  0.00    +0.000 A 
ATOM      6  C   UNL     1       1.613   6.693  20.518  0.00  0.00    +0.000 A 
ATOM      7  C   UNL     1       1.845   5.257  20.937  0.00  0.00    +0.000 C 
ATOM      8  C   UNL     1       1.950   7.214  19.225  0.00  0.00    +0.000 A 
ATOM      9  C   UNL     1       1.659   8.585  18.968  0.00  0.00    +0.000 A 
ATOM     10  C   UNL     1       1.905   9.418  17.734  0.00  0.00    +0.000 C 
ATOM     11  C   UNL     1       1.072   9.368  19.994  0.00  0.00    +0.000 A 
ENDBRANCH   1   8
BRANCH   1  12
ATOM     12  C   UNL     1       4.063   6.396  17.880  0.00  0.00    +0.000 C 
BRANCH  12  13
ATOM     13  O   UNL     1       4.926   5.829  18.865  0.00  0.00    +0.000 OA
BRANCH  13  14
ATOM     14  C   UNL     1       5.480   4.660  18.490  0.00  0.00    +0.000 C 
ATOM     15  O   UNL     1       5.499   3.621  19.138  0.00  0.00    +0.000 OA
BRANCH  14  16
ATOM     16  C   UNL     1       6.024   4.753  17.136  0.00  0.00    +0.000 A 
ATOM     17  C   UNL     1       5.560   3.835  16.184  0.00  0.00    +0.000 A 
ATOM     18  C   UNL     1       6.059   3.881  14.891  0.00  0.00    +0.000 A 
ATOM     19  C   UNL     1       7.013   4.839  14.591  0.00  0.00    +0.000 A 
ATOM     20  N   UNL     1       7.497   5.723  15.488  0.00  0.00    +0.000 NA
ATOM     21  C   UNL     1       6.998   5.661  16.747  0.00  0.00    +0.000 A 
ATOM     22 CL   UNL     1       7.796   6.767  17.800  0.00  0.00    +0.000 Cl
ENDBRANCH  14  16
ENDBRANCH  13  14
ENDBRANCH  12  13
ENDBRANCH   1  12
TORSDOF 5
ENDMDL
MODEL 5
REMARK VINA RESULT:      -7.2      2.783      6.266
REMARK  Name = 
REMARK  8 active torsions:
REMARK  status: ('A' for Active; 'I' for Inactive)
REMARK    1  A    between atoms: C_1  and  C_2
REMARK    2  A    between atoms: C_4  and  C_5
REMARK    3  A    between atoms: C_6  and  C_7
REMARK    4  A    between atoms: C_7  and  C_9
REMARK    5  A    between atoms: C_9  and  O_10
REMARK    6  A    between atoms: O_10  and  C_11
REMARK    7  A    between atoms: C_11  and  C_13
REMARK    8  A    between atoms: C_20  and  C_21
REMARK                            x       y       z     vdW  Elec       q    Type
REMARK                         _______ _______ _______ _____ _____    ______ ____
ROOT
ATOM      1  C   UNL     1       5.399   4.755  18.843  0.00  0.00    +0.000 C 
ATOM      2  O   UNL     1       5.595   3.811  19.613  0.00  0.00    +0.000 OA
ENDROOT
BRANCH   1   8
ATOM      3  C   UNL     1       6.679   4.301  13.113  0.00  0.00    +0.000 C 
ATOM      4  C   UNL     1       6.370   4.396  14.577  0.00  0.00    +0.000 A 
ATOM      5  C   UNL     1       5.446   3.565  15.192  0.00  0.00    +0.000 A 
ATOM      6  C   UNL     1       5.150   3.683  16.568  0.00  0.00    +0.000 A 
ATOM      7  C   UNL     1       4.124   2.705  17.098  0.00  0.00    +0.000 C 
ATOM      8  C   UNL     1       5.796   4.679  17.372  0.00  0.00    +0.000 A 
ATOM      9  C   UNL     1       6.754   5.523  16.737  0.00  0.00    +0.000 A 
ATOM     10  C   UNL     1       7.576   6.657  17.297  0.00  0.00    +0.000 C 
ATOM     11  C   UNL     1       7.009   5.354  15.353  0.00  0.00    +0.000 A 
ENDBRANCH   1   8
BRANCH   1  12
ATOM     12  C   UNL     1       4.757   6.008  19.396  0.00  0.00    +0.000 C 
BRANCH  12  13
ATOM     13  O   UNL     1       3.483   6.278  18.812  0.00  0.00    +0.000 OA
BRANCH  13  14
ATOM     14  C   UNL     1       2.471   6.288  19.700  0.00  0.00    +0.000 C 
ATOM     15  O   UNL     1       1.922   7.278  20.170  0.00  0.00    +0.000 OA
BRANCH  14  16
ATOM     16  C   UNL     1       2.035   4.927  20.008  0.00  0.00    +0.000 A 
ATOM     17  C   UNL     1       2.269   4.445  21.302  0.00  0.00    +0.000 A 
ATOM     18  C   UNL     1       1.882   3.155  21.633  0.00  0.00    +0.000 A 
ATOM     19  C   UNL     1       1.280   2.382  20.653  0.00  0.00    +0.000 A 
ATOM     20  N   UNL     1       1.059   2.806  19.392  0.00  0.00    +0.000 NA
ATOM     21  C   UNL     1       1.446   4.069  19.089  0.00  0.00    +0.000 A 
ATOM     22 CL   UNL     1       1.210   4.422  17.419  0.00  0.00    +0.000 Cl
ENDBRANCH  14  16
ENDBRANCH  13  14
ENDBRANCH  12  13
ENDBRANCH   1  12
TORSDOF 5
ENDMDL
MODEL 6
REMARK VINA RESULT:      -7.0      2.812      5.035
REMARK  Name = 
REMARK  8 active torsions:
REMARK  status: ('A' for Active; 'I' for Inactive)
REMARK    1  A    between atoms: C_1  and  C_2
REMARK    2  A    between atoms: C_4  and  C_5
REMARK    3  A    between atoms: C_6  and  C_7
REMARK    4  A    between atoms: C_7  and  C_9
REMARK    5  A    between atoms: C_9  and  O_10
REMARK    6  A    between atoms: O_10  and  C_11
REMARK    7  A    between atoms: C_11  and  C_13
REMARK    8  A    between atoms: C_20  and  C_21
REMARK                            x       y       z     vdW  Elec       q    Type
REMARK                         _______ _______ _______ _____ _____    ______ ____
ROOT
ATOM      1  C   UNL     1       4.843   4.927  18.492  0.00  0.00    +0.000 C 
ATOM      2  O   UNL     1       5.697   4.821  19.375  0.00  0.00    +0.000 OA
ENDROOT
BRANCH   1   8
ATOM      3  C   UNL     1       1.325   9.615  17.923  0.00  0.00    +0.000 C 
ATOM      4  C   UNL     1       2.240   8.438  18.077  0.00  0.00    +0.000 A 
ATOM      5  C   UNL     1       3.199   8.119  17.128  0.00  0.00    +0.000 A 
ATOM      6  C   UNL     1       4.039   6.993  17.278  0.00  0.00    +0.000 A 
ATOM      7  C   UNL     1       5.039   6.775  16.164  0.00  0.00    +0.000 C 
ATOM      8  C   UNL     1       3.915   6.136  18.421  0.00  0.00    +0.000 A 
ATOM      9  C   UNL     1       2.935   6.475  19.399  0.00  0.00    +0.000 A 
ATOM     10  C   UNL     1       2.555   5.776  20.681  0.00  0.00    +0.000 C 
ATOM     11  C   UNL     1       2.124   7.620  19.193  0.00  0.00    +0.000 A 
ENDBRANCH   1   8
BRANCH   1  12
ATOM     12  C   UNL     1       4.726   3.816  17.471  0.00  0.00    +0.000 C 
BRANCH  12  13
ATOM     13  O   UNL     1       3.426   3.227  17.443  0.00  0.00    +0.000 OA
BRANCH  13  14
ATOM     14  C   UNL     1       3.339   2.075  18.135  0.00  0.00    +0.000 C 
ATOM     15  O   UNL     1       3.783   0.986  17.796  0.00  0.00    +0.000 OA
BRANCH  14  16
ATOM     16  C   UNL     1       2.682   2.291  19.423  0.00  0.00    +0.000 A 
ATOM     17  C   UNL     1       1.337   2.684  19.410  0.00  0.00    +0.000 A 
ATOM     18  C   UNL     1       0.679   2.910  20.610  0.00  0.00    +0.000 A 
ATOM     19  C   UNL     1       1.390   2.746  21.787  0.00  0.00    +0.000 A 
ATOM     20  N   UNL     1       2.691   2.390  21.836  0.00  0.00    +0.000 NA
ATOM     21  C   UNL     1       3.316   2.174  20.652  0.00  0.00    +0.000 A 
ATOM     22 CL   UNL     1       4.993   1.848  20.872  0.00  0.00    +0.000 Cl
ENDBRANCH  14  16
ENDBRANCH  13  14
ENDBRANCH  12  13
ENDBRANCH   1  12
TORSDOF 5
ENDMDL
MODEL 7
REMARK VINA RESULT:      -6.9      1.140      1.408
REMARK  Name = 
REMARK  8 active torsions:
REMARK  status: ('A' for Active; 'I' for Inactive)
REMARK    1  A    between atoms: C_1  and  C_2
REMARK    2  A    between atoms: C_4  and  C_5
REMARK    3  A    between atoms: C_6  and  C_7
REMARK    4  A    between atoms: C_7  and  C_9
REMARK    5  A    between atoms: C_9  and  O_10
REMARK    6  A    between atoms: O_10  and  C_11
REMARK    7  A    between atoms: C_11  and  C_13
REMARK    8  A    between atoms: C_20  and  C_21
REMARK                            x       y       z     vdW  Elec       q    Type
REMARK                         _______ _______ _______ _____ _____    ______ ____
ROOT
ATOM      1  C   UNL     1       3.625   4.395  18.793  0.00  0.00    +0.000 C 
ATOM      2  O   UNL     1       3.148   3.620  17.960  0.00  0.00    +0.000 OA
ENDROOT
BRANCH   1   8
ATOM      3  C   UNL     1       0.645   9.034  20.863  0.00  0.00    +0.000 C 
ATOM      4  C   UNL     1       1.381   7.844  20.324  0.00  0.00    +0.000 A 
ATOM      5  C   UNL     1       1.325   6.601  20.936  0.00  0.00    +0.000 A 
ATOM      6  C   UNL     1       2.043   5.496  20.428  0.00  0.00    +0.000 A 
ATOM      7  C   UNL     1       1.880   4.205  21.200  0.00  0.00    +0.000 C 
ATOM      8  C   UNL     1       2.863   5.632  19.260  0.00  0.00    +0.000 A 
ATOM      9  C   UNL     1       2.908   6.909  18.627  0.00  0.00    +0.000 A 
ATOM     10  C   UNL     1       3.678   7.368  17.414  0.00  0.00    +0.000 C 
ATOM     11  C   UNL     1       2.163   7.979  19.185  0.00  0.00    +0.000 A 
ENDBRANCH   1   8
BRANCH   1  12
ATOM     12  C   UNL     1       5.001   4.095  19.344  0.00  0.00    +0.000 C 
BRANCH  12  13
ATOM     13  O   UNL     1       5.727   5.274  19.687  0.00  0.00    +0.000 OA
BRANCH  13  14
ATOM     14  C   UNL     1       6.986   5.293  19.211  0.00  0.00    +0.000 C 
ATOM     15  O   UNL     1       8.017   5.258  19.871  0.00  0.00    +0.000 OA
BRANCH  14  16
ATOM     16  C   UNL     1       6.989   5.292  17.748  0.00  0.00    +0.000 A 
ATOM     17  C   UNL     1       6.716   4.082  17.098  0.00  0.00    +0.000 A 
ATOM     18  C   UNL     1       6.720   4.034  15.711  0.00  0.00    +0.000 A 
ATOM     19  C   UNL     1       7.006   5.199  15.018  0.00  0.00    +0.000 A 
ATOM     20  N   UNL     1       7.295   6.375  15.612  0.00  0.00    +0.000 NA
ATOM     21  C   UNL     1       7.287   6.400  16.967  0.00  0.00    +0.000 A 
ATOM     22 CL   UNL     1       7.790   7.932  17.576  0.00  0.00    +0.000 Cl
ENDBRANCH  14  16
ENDBRANCH  13  14
ENDBRANCH  12  13
ENDBRANCH   1  12
TORSDOF 5
ENDMDL
MODEL 8
REMARK VINA RESULT:      -6.9      1.239      2.767
REMARK  Name = 
REMARK  8 active torsions:
REMARK  status: ('A' for Active; 'I' for Inactive)
REMARK    1  A    between atoms: C_1  and  C_2
REMARK    2  A    between atoms: C_4  and  C_5
REMARK    3  A    between atoms: C_6  and  C_7
REMARK    4  A    between atoms: C_7  and  C_9
REMARK    5  A    between atoms: C_9  and  O_10
REMARK    6  A    between atoms: O_10  and  C_11
REMARK    7  A    between atoms: C_11  and  C_13
REMARK    8  A    between atoms: C_20  and  C_21
REMARK                            x       y       z     vdW  Elec       q    Type
REMARK                         _______ _______ _______ _____ _____    ______ ____
ROOT
ATOM      1  C   UNL     1       2.617   6.490  17.928  0.00  0.00    +0.000 C 
ATOM      2  O   UNL     1       1.780   7.235  17.411  0.00  0.00    +0.000 OA
ENDROOT
BRANCH   1   8
ATOM      3  C   UNL     1       1.217   2.349  21.874  0.00  0.00    +0.000 C 
ATOM      4  C   UNL     1       1.548   3.403  20.860  0.00  0.00    +0.000 A 
ATOM      5  C   UNL     1       1.811   3.096  19.535  0.00  0.00    +0.000 A 
ATOM      6  C   UNL     1       2.143   4.100  18.598  0.00  0.00    +0.000 A 
ATOM      7  C   UNL     1       2.400   3.613  17.188  0.00  0.00    +0.000 C 
ATOM      8  C   UNL     1       2.226   5.474  18.998  0.00  0.00    +0.000 A 
ATOM      9  C   UNL     1       1.943   5.785  20.359  0.00  0.00    +0.000 A 
ATOM     10  C   UNL     1       1.963   7.111  21.080  0.00  0.00    +0.000 C 
ATOM     11  C   UNL     1       1.613   4.733  21.252  0.00  0.00    +0.000 A 
ENDBRANCH   1   8
BRANCH   1  12
ATOM     12  C   UNL     1       4.057   6.612  17.483  0.00  0.00    +0.000 C 
BRANCH  12  13
ATOM     13  O   UNL     1       4.983   6.245  18.504  0.00  0.00    +0.000 OA
BRANCH  13  14
ATOM     14  C   UNL     1       5.570   5.050  18.300  0.00  0.00    +0.000 C 
ATOM     15  O   UNL     1       5.615   4.115  19.089  0.00  0.00    +0.000 OA
BRANCH  14  16
ATOM     16  C   UNL     1       6.116   4.964  16.946  0.00  0.00    +0.000 A 
ATOM     17  C   UNL     1       5.680   3.908  16.135  0.00  0.00    +0.000 A 
ATOM     18  C   UNL     1       6.182   3.782  14.848  0.00  0.00    +0.000 A 
ATOM     19  C   UNL     1       7.110   4.713  14.414  0.00  0.00    +0.000 A 
ATOM     20  N   UNL     1       7.567   5.729  15.175  0.00  0.00    +0.000 NA
ATOM     21  C   UNL     1       7.066   5.834  16.430  0.00  0.00    +0.000 A 
ATOM     22 CL   UNL     1       7.831   7.099  17.315  0.00  0.00    +0.000 Cl
ENDBRANCH  14  16
ENDBRANCH  13  14
ENDBRANCH  12  13
ENDBRANCH   1  12
TORSDOF 5
ENDMDL
MODEL 9
REMARK VINA RESULT:      -6.9      1.336      1.908
REMARK  Name = 
REMARK  8 active torsions:
REMARK  status: ('A' for Active; 'I' for Inactive)
REMARK    1  A    between atoms: C_1  and  C_2
REMARK    2  A    between atoms: C_4  and  C_5
REMARK    3  A    between atoms: C_6  and  C_7
REMARK    4  A    between atoms: C_7  and  C_9
REMARK    5  A    between atoms: C_9  and  O_10
REMARK    6  A    between atoms: O_10  and  C_11
REMARK    7  A    between atoms: C_11  and  C_13
REMARK    8  A    between atoms: C_20  and  C_21
REMARK                            x       y       z     vdW  Elec       q    Type
REMARK                         _______ _______ _______ _____ _____    ______ ____
ROOT
ATOM      1  C   UNL     1       2.442   4.006  17.904  0.00  0.00    +0.000 C 
ATOM      2  O   UNL     1       1.733   3.789  16.918  0.00  0.00    +0.000 OA
ENDROOT
BRANCH   1   8
ATOM      3  C   UNL     1       1.441   8.448  21.639  0.00  0.00    +0.000 C 
ATOM      4  C   UNL     1       1.671   7.319  20.679  0.00  0.00    +0.000 A 
ATOM      5  C   UNL     1       1.260   6.023  20.951  0.00  0.00    +0.000 A 
ATOM      6  C   UNL     1       1.504   4.968  20.045  0.00  0.00    +0.000 A 
ATOM      7  C   UNL     1       0.994   3.610  20.477  0.00  0.00    +0.000 C 
ATOM      8  C   UNL     1       2.197   5.207  18.813  0.00  0.00    +0.000 A 
ATOM      9  C   UNL     1       2.607   6.544  18.533  0.00  0.00    +0.000 A 
ATOM     10  C   UNL     1       3.357   7.105  17.351  0.00  0.00    +0.000 C 
ATOM     11  C   UNL     1       2.330   7.561  19.482  0.00  0.00    +0.000 A 
ENDBRANCH   1   8
BRANCH   1  12
ATOM     12  C   UNL     1       3.579   3.051  18.193  0.00  0.00    +0.000 C 
BRANCH  12  13
ATOM     13  O   UNL     1       4.841   3.547  17.749  0.00  0.00    +0.000 OA
BRANCH  13  14
ATOM     14  C   UNL     1       5.563   4.138  18.719  0.00  0.00    +0.000 C 
ATOM     15  O   UNL     1       5.600   3.817  19.900  0.00  0.00    +0.000 OA
BRANCH  14  16
ATOM     16  C   UNL     1       6.388   5.214  18.170  0.00  0.00    +0.000 A 
ATOM     17  C   UNL     1       7.197   5.932  19.061  0.00  0.00    +0.000 A 
ATOM     18  C   UNL     1       7.987   6.968  18.584  0.00  0.00    +0.000 A 
ATOM     19  C   UNL     1       7.935   7.260  17.232  0.00  0.00    +0.000 A 
ATOM     20  N   UNL     1       7.152   6.605  16.351  0.00  0.00    +0.000 NA
ATOM     21  C   UNL     1       6.387   5.596  16.836  0.00  0.00    +0.000 A 
ATOM     22 CL   UNL     1       5.358   4.939  15.621  0.00  0.00    +0.000 Cl
ENDBRANCH  14  16
ENDBRANCH  13  14
ENDBRANCH  12  13
ENDBRANCH   1  12
TORSDOF 5
ENDMDL
