MODEL 1
REMARK VINA RESULT:      -8.1      0.000      0.000
REMARK  Name = 
REMARK  7 active torsions:
REMARK  status: ('A' for Active; 'I' for Inactive)
REMARK    1  A    between atoms: C_2  and  O_3
REMARK    2  A    between atoms: C_2  and  C_4
REMARK    3  A    between atoms: C_6  and  C_7
REMARK    4  A    between atoms: N_11  and  C_12
REMARK    5  A    between atoms: C_12  and  C_13
REMARK    6  A    between atoms: C_20  and  O_21
REMARK    7  A    between atoms: C_22  and  O_23
REMARK                            x       y       z     vdW  Elec       q    Type
REMARK                         _______ _______ _______ _____ _____    ______ ____
ROOT
ATOM      1  C   UNK A   1       6.371   5.250  17.930  0.00  0.00    +0.000 A 
ATOM      2  N   UNK A   1       5.266   4.755  18.548  0.00  0.00    +0.000 NA
ATOM      3  C   UNK A   0       4.322   4.220  17.762  0.00  0.00    +0.000 A 
ATOM      4  N   UNK A   1       4.416   4.094  16.425  0.00  0.00    +0.000 NA
ATOM      5  C   UNK A   1       5.521   4.596  15.884  0.00  0.00    +0.000 A 
ATOM      6  C   UNK A   1       6.541   5.209  16.564  0.00  0.00    +0.000 A 
ENDROOT
BRANCH   3   7
ATOM      7  C   UNK A   0       3.038   3.817  18.357  0.00  0.00    +0.000 A 
ATOM      8  N   UNK A   0       2.307   2.791  17.923  0.00  0.00    +0.000 NA
ATOM      9  C   UNK A   0       1.159   2.773  18.660  0.00  0.00    +0.000 A 
ATOM     10  C   UNK A   0       1.175   3.776  19.589  0.00  0.00    +0.000 A 
ATOM     11  N   UNK A   0       2.361   4.449  19.388  0.00  0.00    +0.000 N 
BRANCH  11  12
ATOM     12  C   UNK A   0       2.765   5.601  20.189  0.00  0.00    +0.000 C 
BRANCH  12  13
ATOM     13  C   UNK A   0       2.348   6.941  19.618  0.00  0.00    +0.000 A 
ATOM     14  C   UNK A   0       2.534   7.297  18.272  0.00  0.00    +0.000 A 
ATOM     15  C   UNK A   0       2.046   8.509  17.776  0.00  0.00    +0.000 A 
ATOM     16  C   UNK A   0       1.350   9.379  18.611  0.00  0.00    +0.000 A 
ATOM     17  C   UNK A   0       1.144   9.038  19.944  0.00  0.00    +0.000 A 
ATOM     18  C   UNK A   0       1.637   7.829  20.444  0.00  0.00    +0.000 A 
ENDBRANCH  12  13
ENDBRANCH  11  12
ENDBRANCH   3   7
BRANCH   1  20
ATOM     19  O   UNK A   1       8.075   6.822  18.515  0.00  0.00    +0.000 OA
ATOM     20  C   UNK A   1       7.384   5.872  18.850  0.00  0.00    +0.000 C 
BRANCH  20  21
ATOM     21  O   UNK A   1       7.476   5.317  20.078  0.00  0.00    +0.000 OA
ATOM     22  H   UNK A   1       6.760   5.572  20.699  0.00  0.00    +0.000 HD
ENDBRANCH  20  21
ENDBRANCH   1  20
BRANCH   5  23
ATOM     23  O   UNK A   1       5.578   4.506  14.526  0.00  0.00    +0.000 OA
ATOM     24  H   UNK A   1       6.311   5.129  14.341  0.00  0.00    +0.000 HD
ENDBRANCH   5  23
BRANCH   6  25
ATOM     25  O   UNK A   1       7.610   5.738  15.902  0.00  0.00    +0.000 OA
ATOM     26  H   UNK A   1       8.086   6.284  16.569  0.00  0.00    +0.000 HD
ENDBRANCH   6  25
TORSDOF 7
ENDMDL
MODEL 2
REMARK VINA RESULT:      -8.1      0.647      1.364
REMARK  Name = 
REMARK  7 active torsions:
REMARK  status: ('A' for Active; 'I' for Inactive)
REMARK    1  A    between atoms: C_2  and  O_3
REMARK    2  A    between atoms: C_2  and  C_4
REMARK    3  A    between atoms: C_6  and  C_7
REMARK    4  A    between atoms: N_11  and  C_12
REMARK    5  A    between atoms: C_12  and  C_13
REMARK    6  A    between atoms: C_20  and  O_21
REMARK    7  A    between atoms: C_22  and  O_23
REMARK                            x       y       z     vdW  Elec       q    Type
REMARK                         _______ _______ _______ _____ _____    ______ ____
ROOT
ATOM      1  C   UNK A   1       6.581   5.606  18.280  0.00  0.00    +0.000 A 
ATOM      2  N   UNK A   1       5.480   4.973  18.761  0.00  0.00    +0.000 NA
ATOM      3  C   UNK A   0       4.487   4.740  17.891  0.00  0.00    +0.000 A 
ATOM      4  N   UNK A   1       4.530   5.040  16.580  0.00  0.00    +0.000 NA
ATOM      5  C   UNK A   1       5.634   5.656  16.174  0.00  0.00    +0.000 A 
ATOM      6  C   UNK A   1       6.702   5.994  16.964  0.00  0.00    +0.000 A 
ENDROOT
BRANCH   3   7
ATOM      7  C   UNK A   0       3.210   4.205  18.388  0.00  0.00    +0.000 A 
ATOM      8  N   UNK A   0       2.607   3.131  17.882  0.00  0.00    +0.000 NA
ATOM      9  C   UNK A   0       1.419   2.987  18.538  0.00  0.00    +0.000 A 
ATOM     10  C   UNK A   0       1.281   3.961  19.489  0.00  0.00    +0.000 A 
ATOM     11  N   UNK A   0       2.411   4.744  19.384  0.00  0.00    +0.000 N 
BRANCH  11  12
ATOM     12  C   UNK A   0       2.652   5.904  20.237  0.00  0.00    +0.000 C 
BRANCH  12  13
ATOM     13  C   UNK A   0       2.088   7.205  19.704  0.00  0.00    +0.000 A 
ATOM     14  C   UNK A   0       1.389   8.126  20.502  0.00  0.00    +0.000 A 
ATOM     15  C   UNK A   0       0.971   9.354  19.981  0.00  0.00    +0.000 A 
ATOM     16  C   UNK A   0       1.259   9.691  18.662  0.00  0.00    +0.000 A 
ATOM     17  C   UNK A   0       1.962   8.797  17.859  0.00  0.00    +0.000 A 
ATOM     18  C   UNK A   0       2.374   7.565  18.376  0.00  0.00    +0.000 A 
ENDBRANCH  12  13
ENDBRANCH  11  12
ENDBRANCH   3   7
BRANCH   1  20
ATOM     19  O   UNK A   1       7.801   5.181  20.293  0.00  0.00    +0.000 OA
ATOM     20  C   UNK A   1       7.650   5.878  19.301  0.00  0.00    +0.000 C 
BRANCH  20  21
ATOM     21  O   UNK A   1       8.442   6.944  19.048  0.00  0.00    +0.000 OA
ATOM     22  H   UNK A   1       9.118   6.797  18.352  0.00  0.00    +0.000 HD
ENDBRANCH  20  21
ENDBRANCH   1  20
BRANCH   5  23
ATOM     23  O   UNK A   1       5.640   5.998  14.856  0.00  0.00    +0.000 OA
ATOM     24  H   UNK A   1       5.015   5.333  14.500  0.00  0.00    +0.000 HD
ENDBRANCH   5  23
BRANCH   6  25
ATOM     25  O   UNK A   1       7.768   6.676  16.453  0.00  0.00    +0.000 OA
ATOM     26  H   UNK A   1       8.232   6.033  15.870  0.00  0.00    +0.000 HD
ENDBRANCH   6  25
TORSDOF 7
ENDMDL
MODEL 3
REMARK VINA RESULT:      -7.8      1.750      4.342
REMARK  Name = 
REMARK  7 active torsions:
REMARK  status: ('A' for Active; 'I' for Inactive)
REMARK    1  A    between atoms: C_2  and  O_3
REMARK    2  A    between atoms: C_2  and  C_4
REMARK    3  A    between atoms: C_6  and  C_7
REMARK    4  A    between atoms: N_11  and  C_12
REMARK    5  A    between atoms: C_12  and  C_13
REMARK    6  A    between atoms: C_20  and  O_21
REMARK    7  A    between atoms: C_22  and  O_23
REMARK                            x       y       z     vdW  Elec       q    Type
REMARK                         _______ _______ _______ _____ _____    ______ ____
ROOT
ATOM      1  C   UNK A   1       6.513   5.119  16.444  0.00  0.00    +0.000 A 
ATOM      2  N   UNK A   1       5.362   5.841  16.462  0.00  0.00    +0.000 NA
ATOM      3  C   UNK A   0       4.918   6.244  17.660  0.00  0.00    +0.000 A 
ATOM      4  N   UNK A   1       5.555   6.029  18.826  0.00  0.00    +0.000 NA
ATOM      5  C   UNK A   1       6.674   5.319  18.740  0.00  0.00    +0.000 A 
ATOM      6  C   UNK A   1       7.214   4.808  17.588  0.00  0.00    +0.000 A 
ENDROOT
BRANCH   3   7
ATOM      7  C   UNK A   0       3.598   6.887  17.757  0.00  0.00    +0.000 A 
ATOM      8  N   UNK A   0       3.416   8.204  17.818  0.00  0.00    +0.000 NA
ATOM      9  C   UNK A   0       2.079   8.421  17.979  0.00  0.00    +0.000 A 
ATOM     10  C   UNK A   0       1.404   7.232  17.990  0.00  0.00    +0.000 A 
ATOM     11  N   UNK A   0       2.369   6.256  17.864  0.00  0.00    +0.000 N 
BRANCH  11  12
ATOM     12  C   UNK A   0       2.055   4.831  17.829  0.00  0.00    +0.000 C 
BRANCH  12  13
ATOM     13  C   UNK A   0       2.198   4.123  19.161  0.00  0.00    +0.000 A 
ATOM     14  C   UNK A   0       1.187   4.100  20.135  0.00  0.00    +0.000 A 
ATOM     15  C   UNK A   0       1.335   3.354  21.307  0.00  0.00    +0.000 A 
ATOM     16  C   UNK A   0       2.488   2.602  21.518  0.00  0.00    +0.000 A 
ATOM     17  C   UNK A   0       3.495   2.600  20.558  0.00  0.00    +0.000 A 
ATOM     18  C   UNK A   0       3.352   3.353  19.389  0.00  0.00    +0.000 A 
ENDBRANCH  12  13
ENDBRANCH  11  12
ENDBRANCH   3   7
BRANCH   1  20
ATOM     19  O   UNK A   1       7.728   5.300  14.393  0.00  0.00    +0.000 OA
ATOM     20  C   UNK A   1       6.950   4.659  15.082  0.00  0.00    +0.000 C 
BRANCH  20  21
ATOM     21  O   UNK A   1       6.430   3.483  14.668  0.00  0.00    +0.000 OA
ATOM     22  H   UNK A   1       7.014   2.705  14.802  0.00  0.00    +0.000 HD
ENDBRANCH  20  21
ENDBRANCH   1  20
BRANCH   5  23
ATOM     23  O   UNK A   1       7.279   5.067  19.934  0.00  0.00    +0.000 OA
ATOM     24  H   UNK A   1       7.908   4.365  19.667  0.00  0.00    +0.000 HD
ENDBRANCH   5  23
BRANCH   6  25
ATOM     25  O   UNK A   1       8.345   4.045  17.619  0.00  0.00    +0.000 OA
ATOM     26  H   UNK A   1       8.125   3.277  18.194  0.00  0.00    +0.000 HD
ENDBRANCH   6  25
TORSDOF 7
ENDMDL
MODEL 4
REMARK VINA RESULT:      -7.8      1.285      1.580
REMARK  Name = 
REMARK  7 active torsions:
REMARK  status: ('A' for Active; 'I' for Inactive)
REMARK    1  A    between atoms: C_2  and  O_3
REMARK    2  A    between atoms: C_2  and  C_4
REMARK    3  A    between atoms: C_6  and  C_7
REMARK    4  A    between atoms: N_11  and  C_12
REMARK    5  A    between atoms: C_12  and  C_13
REMARK    6  A    between atoms: C_20  and  O_21
REMARK    7  A    between atoms: C_22  and  O_23
REMARK                            x       y       z     vdW  Elec       q    Type
REMARK                         _______ _______ _______ _____ _____    ______ ____
ROOT
ATOM      1  C   UNK A   1       6.918   5.731  17.383  0.00  0.00    +0.000 A 
ATOM      2  N   UNK A   1       6.145   5.185  18.358  0.00  0.00    +0.000 NA
ATOM      3  C   UNK A   0       5.415   4.113  18.022  0.00  0.00    +0.000 A 
ATOM      4  N   UNK A   1       5.435   3.518  16.815  0.00  0.00    +0.000 NA
ATOM      5  C   UNK A   1       6.212   4.099  15.908  0.00  0.00    +0.000 A 
ATOM      6  C   UNK A   1       6.973   5.222  16.104  0.00  0.00    +0.000 A 
ENDROOT
BRANCH   3   7
ATOM      7  C   UNK A   0       4.440   3.579  18.986  0.00  0.00    +0.000 A 
ATOM      8  N   UNK A   0       4.749   2.726  19.960  0.00  0.00    +0.000 NA
ATOM      9  C   UNK A   0       3.587   2.397  20.594  0.00  0.00    +0.000 A 
ATOM     10  C   UNK A   0       2.535   3.072  20.037  0.00  0.00    +0.000 A 
ATOM     11  N   UNK A   0       3.074   3.811  19.006  0.00  0.00    +0.000 N 
BRANCH  11  12
ATOM     12  C   UNK A   0       2.271   4.683  18.153  0.00  0.00    +0.000 C 
BRANCH  12  13
ATOM     13  C   UNK A   0       2.210   6.126  18.608  0.00  0.00    +0.000 A 
ATOM     14  C   UNK A   0       2.341   7.216  17.732  0.00  0.00    +0.000 A 
ATOM     15  C   UNK A   0       2.184   8.528  18.189  0.00  0.00    +0.000 A 
ATOM     16  C   UNK A   0       1.875   8.772  19.525  0.00  0.00    +0.000 A 
ATOM     17  C   UNK A   0       1.727   7.704  20.405  0.00  0.00    +0.000 A 
ATOM     18  C   UNK A   0       1.893   6.392  19.950  0.00  0.00    +0.000 A 
ENDBRANCH  12  13
ENDBRANCH  11  12
ENDBRANCH   3   7
BRANCH   1  20
ATOM     19  O   UNK A   1       7.736   7.961  17.110  0.00  0.00    +0.000 OA
ATOM     20  C   UNK A   1       7.689   6.952  17.798  0.00  0.00    +0.000 C 
BRANCH  20  21
ATOM     21  O   UNK A   1       8.325   6.866  18.987  0.00  0.00    +0.000 OA
ATOM     22  H   UNK A   1       7.893   6.275  19.641  0.00  0.00    +0.000 HD
ENDBRANCH  20  21
ENDBRANCH   1  20
BRANCH   5  23
ATOM     23  O   UNK A   1       6.183   3.515  14.678  0.00  0.00    +0.000 OA
ATOM     24  H   UNK A   1       6.980   2.949  14.734  0.00  0.00    +0.000 HD
ENDBRANCH   5  23
BRANCH   6  25
ATOM     25  O   UNK A   1       7.696   5.769  15.085  0.00  0.00    +0.000 OA
ATOM     26  H   UNK A   1       8.531   5.248  15.048  0.00  0.00    +0.000 HD
ENDBRANCH   6  25
TORSDOF 7
ENDMDL
MODEL 5
REMARK VINA RESULT:      -7.8      1.727      4.244
REMARK  Name = 
REMARK  7 active torsions:
REMARK  status: ('A' for Active; 'I' for Inactive)
REMARK    1  A    between atoms: C_2  and  O_3
REMARK    2  A    between atoms: C_2  and  C_4
REMARK    3  A    between atoms: C_6  and  C_7
REMARK    4  A    between atoms: N_11  and  C_12
REMARK    5  A    between atoms: C_12  and  C_13
REMARK    6  A    between atoms: C_20  and  O_21
REMARK    7  A    between atoms: C_22  and  O_23
REMARK                            x       y       z     vdW  Elec       q    Type
REMARK                         _______ _______ _______ _____ _____    ______ ____
ROOT
ATOM      1  C   UNK A   1       6.494   5.085  16.478  0.00  0.00    +0.000 A 
ATOM      2  N   UNK A   1       5.332   5.788  16.501  0.00  0.00    +0.000 NA
ATOM      3  C   UNK A   0       4.894   6.194  17.701  0.00  0.00    +0.000 A 
ATOM      4  N   UNK A   1       5.546   6.000  18.862  0.00  0.00    +0.000 NA
ATOM      5  C   UNK A   1       6.676   5.307  18.770  0.00  0.00    +0.000 A 
ATOM      6  C   UNK A   1       7.212   4.795  17.617  0.00  0.00    +0.000 A 
ENDROOT
BRANCH   3   7
ATOM      7  C   UNK A   0       3.565   6.817  17.805  0.00  0.00    +0.000 A 
ATOM      8  N   UNK A   0       3.366   8.127  17.935  0.00  0.00    +0.000 NA
ATOM      9  C   UNK A   0       2.024   8.320  18.080  0.00  0.00    +0.000 A 
ATOM     10  C   UNK A   0       1.362   7.125  18.012  0.00  0.00    +0.000 A 
ATOM     11  N   UNK A   0       2.341   6.168  17.852  0.00  0.00    +0.000 N 
BRANCH  11  12
ATOM     12  C   UNK A   0       2.045   4.743  17.734  0.00  0.00    +0.000 C 
BRANCH  12  13
ATOM     13  C   UNK A   0       2.200   3.959  19.021  0.00  0.00    +0.000 A 
ATOM     14  C   UNK A   0       3.360   3.240  19.350  0.00  0.00    +0.000 A 
ATOM     15  C   UNK A   0       3.487   2.611  20.592  0.00  0.00    +0.000 A 
ATOM     16  C   UNK A   0       2.465   2.705  21.533  0.00  0.00    +0.000 A 
ATOM     17  C   UNK A   0       1.314   3.425  21.231  0.00  0.00    +0.000 A 
ATOM     18  C   UNK A   0       1.182   4.048  19.986  0.00  0.00    +0.000 A 
ENDBRANCH  12  13
ENDBRANCH  11  12
ENDBRANCH   3   7
BRANCH   1  20
ATOM     19  O   UNK A   1       7.712   5.251  14.427  0.00  0.00    +0.000 OA
ATOM     20  C   UNK A   1       6.925   4.620  15.115  0.00  0.00    +0.000 C 
BRANCH  20  21
ATOM     21  O   UNK A   1       6.388   3.451  14.700  0.00  0.00    +0.000 OA
ATOM     22  H   UNK A   1       5.419   3.373  14.835  0.00  0.00    +0.000 HD
ENDBRANCH  20  21
ENDBRANCH   1  20
BRANCH   5  23
ATOM     23  O   UNK A   1       7.297   5.076  19.960  0.00  0.00    +0.000 OA
ATOM     24  H   UNK A   1       6.616   4.534  20.410  0.00  0.00    +0.000 HD
ENDBRANCH   5  23
BRANCH   6  25
ATOM     25  O   UNK A   1       8.355   4.051  17.643  0.00  0.00    +0.000 OA
ATOM     26  H   UNK A   1       8.981   4.513  17.041  0.00  0.00    +0.000 HD
ENDBRANCH   6  25
TORSDOF 7
ENDMDL
MODEL 6
REMARK VINA RESULT:      -7.8      1.626      4.250
REMARK  Name = 
REMARK  7 active torsions:
REMARK  status: ('A' for Active; 'I' for Inactive)
REMARK    1  A    between atoms: C_2  and  O_3
REMARK    2  A    between atoms: C_2  and  C_4
REMARK    3  A    between atoms: C_6  and  C_7
REMARK    4  A    between atoms: N_11  and  C_12
REMARK    5  A    between atoms: C_12  and  C_13
REMARK    6  A    between atoms: C_20  and  O_21
REMARK    7  A    between atoms: C_22  and  O_23
REMARK                            x       y       z     vdW  Elec       q    Type
REMARK                         _______ _______ _______ _____ _____    ______ ____
ROOT
ATOM      1  C   UNK A   1       6.275   5.356  16.154  0.00  0.00    +0.000 A 
ATOM      2  N   UNK A   1       5.194   6.163  16.317  0.00  0.00    +0.000 NA
ATOM      3  C   UNK A   0       4.915   6.555  17.567  0.00  0.00    +0.000 A 
ATOM      4  N   UNK A   1       5.654   6.250  18.650  0.00  0.00    +0.000 NA
ATOM      5  C   UNK A   1       6.697   5.460  18.423  0.00  0.00    +0.000 A 
ATOM      6  C   UNK A   1       7.068   4.951  17.205  0.00  0.00    +0.000 A 
ENDROOT
BRANCH   3   7
ATOM      7  C   UNK A   0       3.669   7.294  17.825  0.00  0.00    +0.000 A 
ATOM      8  N   UNK A   0       3.269   8.347  17.115  0.00  0.00    +0.000 NA
ATOM      9  C   UNK A   0       2.122   8.811  17.691  0.00  0.00    +0.000 A 
ATOM     10  C   UNK A   0       1.775   8.027  18.756  0.00  0.00    +0.000 A 
ATOM     11  N   UNK A   0       2.765   7.072  18.852  0.00  0.00    +0.000 N 
BRANCH  11  12
ATOM     12  C   UNK A   0       2.763   6.029  19.873  0.00  0.00    +0.000 C 
BRANCH  12  13
ATOM     13  C   UNK A   0       2.082   4.742  19.456  0.00  0.00    +0.000 A 
ATOM     14  C   UNK A   0       2.371   4.070  18.257  0.00  0.00    +0.000 A 
ATOM     15  C   UNK A   0       1.781   2.836  17.965  0.00  0.00    +0.000 A 
ATOM     16  C   UNK A   0       0.907   2.245  18.873  0.00  0.00    +0.000 A 
ATOM     17  C   UNK A   0       0.619   2.888  20.073  0.00  0.00    +0.000 A 
ATOM     18  C   UNK A   0       1.202   4.126  20.363  0.00  0.00    +0.000 A 
ENDBRANCH  12  13
ENDBRANCH  11  12
ENDBRANCH   3   7
BRANCH   1  20
ATOM     19  O   UNK A   1       5.725   4.233  14.115  0.00  0.00    +0.000 OA
ATOM     20  C   UNK A   1       6.525   4.913  14.740  0.00  0.00    +0.000 C 
BRANCH  20  21
ATOM     21  O   UNK A   1       7.694   5.321  14.198  0.00  0.00    +0.000 OA
ATOM     22  H   UNK A   1       7.818   6.295  14.175  0.00  0.00    +0.000 HD
ENDBRANCH  20  21
ENDBRANCH   1  20
BRANCH   5  23
ATOM     23  O   UNK A   1       7.404   5.120  19.536  0.00  0.00    +0.000 OA
ATOM     24  H   UNK A   1       6.909   4.324  19.821  0.00  0.00    +0.000 HD
ENDBRANCH   5  23
BRANCH   6  25
ATOM     25  O   UNK A   1       8.130   4.103  17.091  0.00  0.00    +0.000 OA
ATOM     26  H   UNK A   1       8.013   3.440  17.810  0.00  0.00    +0.000 HD
ENDBRANCH   6  25
TORSDOF 7
ENDMDL
MODEL 7
REMARK VINA RESULT:      -7.7      1.026      1.094
REMARK  Name = 
REMARK  7 active torsions:
REMARK  status: ('A' for Active; 'I' for Inactive)
REMARK    1  A    between atoms: C_2  and  O_3
REMARK    2  A    between atoms: C_2  and  C_4
REMARK    3  A    between atoms: C_6  and  C_7
REMARK    4  A    between atoms: N_11  and  C_12
REMARK    5  A    between atoms: C_12  and  C_13
REMARK    6  A    between atoms: C_20  and  O_21
REMARK    7  A    between atoms: C_22  and  O_23
REMARK                            x       y       z     vdW  Elec       q    Type
REMARK                         _______ _______ _______ _____ _____    ______ ____
ROOT
ATOM      1  C   UNK A   1       6.586   5.057  17.800  0.00  0.00    +0.000 A 
ATOM      2  N   UNK A   1       5.473   4.457  18.298  0.00  0.00    +0.000 NA
ATOM      3  C   UNK A   0       4.314   4.722  17.678  0.00  0.00    +0.000 A 
ATOM      4  N   UNK A   1       4.189   5.491  16.581  0.00  0.00    +0.000 NA
ATOM      5  C   UNK A   1       5.314   6.046  16.145  0.00  0.00    +0.000 A 
ATOM      6  C   UNK A   1       6.554   5.896  16.709  0.00  0.00    +0.000 A 
ENDROOT
BRANCH   3   7
ATOM      7  C   UNK A   0       3.059   4.232  18.267  0.00  0.00    +0.000 A 
ATOM      8  N   UNK A   0       2.369   3.196  17.792  0.00  0.00    +0.000 NA
ATOM      9  C   UNK A   0       1.233   3.089  18.540  0.00  0.00    +0.000 A 
ATOM     10  C   UNK A   0       1.216   4.045  19.517  0.00  0.00    +0.000 A 
ATOM     11  N   UNK A   0       2.368   4.781  19.336  0.00  0.00    +0.000 N 
BRANCH  11  12
ATOM     12  C   UNK A   0       2.729   5.910  20.189  0.00  0.00    +0.000 C 
BRANCH  12  13
ATOM     13  C   UNK A   0       2.209   7.250  19.712  0.00  0.00    +0.000 A 
ATOM     14  C   UNK A   0       2.324   7.694  18.385  0.00  0.00    +0.000 A 
ATOM     15  C   UNK A   0       1.743   8.899  17.978  0.00  0.00    +0.000 A 
ATOM     16  C   UNK A   0       1.023   9.671  18.884  0.00  0.00    +0.000 A 
ATOM     17  C   UNK A   0       0.886   9.241  20.201  0.00  0.00    +0.000 A 
ATOM     18  C   UNK A   0       1.473   8.041  20.612  0.00  0.00    +0.000 A 
ENDBRANCH  12  13
ENDBRANCH  11  12
ENDBRANCH   3   7
BRANCH   1  20
ATOM     19  O   UNK A   1       8.081   5.217  19.659  0.00  0.00    +0.000 OA
ATOM     20  C   UNK A   1       7.853   4.758  18.550  0.00  0.00    +0.000 C 
BRANCH  20  21
ATOM     21  O   UNK A   1       8.726   3.942  17.920  0.00  0.00    +0.000 OA
ATOM     22  H   UNK A   1       9.484   3.648  18.470  0.00  0.00    +0.000 HD
ENDBRANCH  20  21
ENDBRANCH   1  20
BRANCH   5  23
ATOM     23  O   UNK A   1       5.162   6.861  15.064  0.00  0.00    +0.000 OA
ATOM     24  H   UNK A   1       5.424   6.249  14.345  0.00  0.00    +0.000 HD
ENDBRANCH   5  23
BRANCH   6  25
ATOM     25  O   UNK A   1       7.639   6.557  16.210  0.00  0.00    +0.000 OA
ATOM     26  H   UNK A   1       8.390   6.303  16.793  0.00  0.00    +0.000 HD
ENDBRANCH   6  25
TORSDOF 7
ENDMDL
MODEL 8
REMARK VINA RESULT:      -7.7      1.604      4.325
REMARK  Name = 
REMARK  7 active torsions:
REMARK  status: ('A' for Active; 'I' for Inactive)
REMARK    1  A    between atoms: C_2  and  O_3
REMARK    2  A    between atoms: C_2  and  C_4
REMARK    3  A    between atoms: C_6  and  C_7
REMARK    4  A    between atoms: N_11  and  C_12
REMARK    5  A    between atoms: C_12  and  C_13
REMARK    6  A    between atoms: C_20  and  O_21
REMARK    7  A    between atoms: C_22  and  O_23
REMARK                            x       y       z     vdW  Elec       q    Type
REMARK                         _______ _______ _______ _____ _____    ______ ____
ROOT
ATOM      1  C   UNK A   1       6.298   5.319  16.117  0.00  0.00    +0.000 A 
ATOM      2  N   UNK A   1       5.211   6.112  16.304  0.00  0.00    +0.000 NA
ATOM      3  C   UNK A   0       4.935   6.473  17.565  0.00  0.00    +0.000 A 
ATOM      4  N   UNK A   1       5.681   6.148  18.637  0.00  0.00    +0.000 NA
ATOM      5  C   UNK A   1       6.729   5.373  18.385  0.00  0.00    +0.000 A 
ATOM      6  C   UNK A   1       7.099   4.896  17.155  0.00  0.00    +0.000 A 
ENDROOT
BRANCH   3   7
ATOM      7  C   UNK A   0       3.684   7.194  17.846  0.00  0.00    +0.000 A 
ATOM      8  N   UNK A   0       3.234   8.214  17.117  0.00  0.00    +0.000 NA
ATOM      9  C   UNK A   0       2.101   8.674  17.721  0.00  0.00    +0.000 A 
ATOM     10  C   UNK A   0       1.812   7.920  18.825  0.00  0.00    +0.000 A 
ATOM     11  N   UNK A   0       2.825   6.990  18.914  0.00  0.00    +0.000 N 
BRANCH  11  12
ATOM     12  C   UNK A   0       2.885   5.983  19.969  0.00  0.00    +0.000 C 
BRANCH  12  13
ATOM     13  C   UNK A   0       2.207   4.672  19.627  0.00  0.00    +0.000 A 
ATOM     14  C   UNK A   0       1.178   4.111  20.401  0.00  0.00    +0.000 A 
ATOM     15  C   UNK A   0       0.523   2.947  19.989  0.00  0.00    +0.000 A 
ATOM     16  C   UNK A   0       0.872   2.333  18.789  0.00  0.00    +0.000 A 
ATOM     17  C   UNK A   0       1.880   2.881  18.002  0.00  0.00    +0.000 A 
ATOM     18  C   UNK A   0       2.541   4.042  18.416  0.00  0.00    +0.000 A 
ENDBRANCH  12  13
ENDBRANCH  11  12
ENDBRANCH   3   7
BRANCH   1  20
ATOM     19  O   UNK A   1       5.746   4.244  14.053  0.00  0.00    +0.000 OA
ATOM     20  C   UNK A   1       6.545   4.912  14.691  0.00  0.00    +0.000 C 
BRANCH  20  21
ATOM     21  O   UNK A   1       7.709   5.339  14.155  0.00  0.00    +0.000 OA
ATOM     22  H   UNK A   1       7.654   5.606  13.212  0.00  0.00    +0.000 HD
ENDBRANCH  20  21
ENDBRANCH   1  20
BRANCH   5  23
ATOM     23  O   UNK A   1       7.445   5.012  19.487  0.00  0.00    +0.000 OA
ATOM     24  H   UNK A   1       7.123   5.677  20.130  0.00  0.00    +0.000 HD
ENDBRANCH   5  23
BRANCH   6  25
ATOM     25  O   UNK A   1       8.168   4.060  17.015  0.00  0.00    +0.000 OA
ATOM     26  H   UNK A   1       8.834   4.378  17.666  0.00  0.00    +0.000 HD
ENDBRANCH   6  25
TORSDOF 7
ENDMDL
MODEL 9
REMARK VINA RESULT:      -7.7      1.301      1.841
REMARK  Name = 
REMARK  7 active torsions:
REMARK  status: ('A' for Active; 'I' for Inactive)
REMARK    1  A    between atoms: C_2  and  O_3
REMARK    2  A    between atoms: C_2  and  C_4
REMARK    3  A    between atoms: C_6  and  C_7
REMARK    4  A    between atoms: N_11  and  C_12
REMARK    5  A    between atoms: C_12  and  C_13
REMARK    6  A    between atoms: C_20  and  O_21
REMARK    7  A    between atoms: C_22  and  O_23
REMARK                            x       y       z     vdW  Elec       q    Type
REMARK                         _______ _______ _______ _____ _____    ______ ____
ROOT
ATOM      1  C   UNK A   1       6.912   5.744  17.366  0.00  0.00    +0.000 A 
ATOM      2  N   UNK A   1       6.134   5.199  18.338  0.00  0.00    +0.000 NA
ATOM      3  C   UNK A   0       5.428   4.109  18.008  0.00  0.00    +0.000 A 
ATOM      4  N   UNK A   1       5.477   3.497  16.810  0.00  0.00    +0.000 NA
ATOM      5  C   UNK A   1       6.256   4.079  15.906  0.00  0.00    +0.000 A 
ATOM      6  C   UNK A   1       6.994   5.218  16.096  0.00  0.00    +0.000 A 
ENDROOT
BRANCH   3   7
ATOM      7  C   UNK A   0       4.449   3.572  18.966  0.00  0.00    +0.000 A 
ATOM      8  N   UNK A   0       4.754   2.715  19.939  0.00  0.00    +0.000 NA
ATOM      9  C   UNK A   0       3.589   2.385  20.567  0.00  0.00    +0.000 A 
ATOM     10  C   UNK A   0       2.540   3.061  20.007  0.00  0.00    +0.000 A 
ATOM     11  N   UNK A   0       3.083   3.804  18.981  0.00  0.00    +0.000 N 
BRANCH  11  12
ATOM     12  C   UNK A   0       2.284   4.678  18.127  0.00  0.00    +0.000 C 
BRANCH  12  13
ATOM     13  C   UNK A   0       2.061   6.069  18.684  0.00  0.00    +0.000 A 
ATOM     14  C   UNK A   0       1.861   6.330  20.049  0.00  0.00    +0.000 A 
ATOM     15  C   UNK A   0       1.754   7.641  20.522  0.00  0.00    +0.000 A 
ATOM     16  C   UNK A   0       1.862   8.714  19.642  0.00  0.00    +0.000 A 
ATOM     17  C   UNK A   0       2.074   8.477  18.288  0.00  0.00    +0.000 A 
ATOM     18  C   UNK A   0       2.174   7.165  17.812  0.00  0.00    +0.000 A 
ENDBRANCH  12  13
ENDBRANCH  11  12
ENDBRANCH   3   7
BRANCH   1  20
ATOM     19  O   UNK A   1       7.653   8.002  17.096  0.00  0.00    +0.000 OA
ATOM     20  C   UNK A   1       7.655   6.985  17.774  0.00  0.00    +0.000 C 
BRANCH  20  21
ATOM     21  O   UNK A   1       8.324   6.907  18.945  0.00  0.00    +0.000 OA
ATOM     22  H   UNK A   1       7.915   7.405  19.686  0.00  0.00    +0.000 HD
ENDBRANCH  20  21
ENDBRANCH   1  20
BRANCH   5  23
ATOM     23  O   UNK A   1       6.255   3.476  14.685  0.00  0.00    +0.000 OA
ATOM     24  H   UNK A   1       6.476   4.239  14.113  0.00  0.00    +0.000 HD
ENDBRANCH   5  23
BRANCH   6  25
ATOM     25  O   UNK A   1       7.722   5.763  15.079  0.00  0.00    +0.000 OA
ATOM     26  H   UNK A   1       8.564   5.252  15.058  0.00  0.00    +0.000 HD
ENDBRANCH   6  25
TORSDOF 7
ENDMDL
