MODEL 1
REMARK VINA RESULT:      -5.8      0.000      0.000
REMARK  Name = 
REMARK  13 active torsions:
REMARK  status: ('A' for Active; 'I' for Inactive)
REMARK    1  A    between atoms: C_1  and  C_2
REMARK    2  A    between atoms: C_2  and  O_3
REMARK    3  A    between atoms: O_3  and  C_4
REMARK    4  A    between atoms: C_4  and  C_5
REMARK    5  A    between atoms: C_5  and  O_6
REMARK    6  A    between atoms: O_6  and  C_7
REMARK    7  A    between atoms: C_7  and  C_9
REMARK    8  A    between atoms: C_9  and  C_10
REMARK    9  A    between atoms: C_12  and  N_13
REMARK   10  A    between atoms: C_12  and  S_21
REMARK   11  A    between atoms: N_13  and  C_14
REMARK   12  A    between atoms: C_14  and  C_15
REMARK   13  A    between atoms: S_21  and  C_22
REMARK                            x       y       z     vdW  Elec       q    Type
REMARK                         _______ _______ _______ _____ _____    ______ ____
ROOT
ATOM      1  C   UNL     1       3.946   4.553  19.144  0.00  0.00    +0.000 C 
ATOM      2  C   UNL     1       2.802   5.104  19.686  0.00  0.00    +0.000 C 
ENDROOT
BRANCH   1   3
ATOM      3  C   UNL     1       5.285   5.231  19.021  0.00  0.00    +0.000 C 
ATOM      4  O   UNL     1       6.208   5.082  19.811  0.00  0.00    +0.000 OA
BRANCH   3   5
ATOM      5  O   UNL     1       5.357   6.127  17.998  0.00  0.00    +0.000 OA
BRANCH   5   6
ATOM      6  C   UNL     1       6.721   6.302  17.588  0.00  0.00    +0.000 C 
BRANCH   6   7
ATOM      7  C   UNL     1       7.235   5.189  16.703  0.00  0.00    +0.000 C 
BRANCH   7   8
ATOM      8  O   UNL     1       7.354   5.691  15.367  0.00  0.00    +0.000 OA
BRANCH   8  10
ATOM      9  C   UNL     1       5.433   4.476  14.583  0.00  0.00    +0.000 C 
ATOM     10  C   UNL     1       6.920   4.713  14.428  0.00  0.00    +0.000 C 
ENDBRANCH   8  10
ENDBRANCH   7   8
ENDBRANCH   6   7
ENDBRANCH   5   6
ENDBRANCH   3   5
ENDBRANCH   1   3
BRANCH   1  11
ATOM     11  C   UNL     1       3.954   3.224  18.592  0.00  0.00    +0.000 C 
ATOM     12  N   UNL     1       3.953   2.129  18.147  0.00  0.00    +0.000 NA
ENDBRANCH   1  11
BRANCH   2  13
ATOM     13  N   UNL     1       2.620   6.377  20.253  0.00  0.00    +0.000 N 
ATOM     14  H   UNL     1       3.269   6.583  21.015  0.00  0.00    +0.000 HD
BRANCH  13  15
ATOM     15  C   UNL     1       2.304   7.585  19.483  0.00  0.00    +0.000 C 
BRANCH  15  16
ATOM     16  C   UNL     1       1.330   8.581  20.031  0.00  0.00    +0.000 A 
ATOM     17  C   UNL     1       0.767   9.686  19.418  0.00  0.00    +0.000 A 
ATOM     18  N   UNL     1       0.007  10.500  20.241  0.00  0.00    +0.000 NA
ATOM     19  C   UNL     1       0.027  10.005  21.457  0.00  0.00    +0.000 A 
ATOM     20 BR   UNL     1      -0.875  10.816  22.890  0.00  0.00    +0.000 Br
ATOM     21  S   UNL     1       0.926   8.577  21.694  0.00  0.00    +0.000 S 
ENDBRANCH  15  16
ENDBRANCH  13  15
ENDBRANCH   2  13
BRANCH   2  22
ATOM     22  S   UNL     1       1.337   4.044  19.688  0.00  0.00    +0.000 S 
ATOM     23  C   UNL     1       1.365   3.208  21.297  0.00  0.00    +0.000 C 
ENDBRANCH   2  22
TORSDOF 11
ENDMDL
MODEL 2
REMARK VINA RESULT:      -5.8      3.968      5.712
REMARK  Name = 
REMARK  13 active torsions:
REMARK  status: ('A' for Active; 'I' for Inactive)
REMARK    1  A    between atoms: C_1  and  C_2
REMARK    2  A    between atoms: C_2  and  O_3
REMARK    3  A    between atoms: O_3  and  C_4
REMARK    4  A    between atoms: C_4  and  C_5
REMARK    5  A    between atoms: C_5  and  O_6
REMARK    6  A    between atoms: O_6  and  C_7
REMARK    7  A    between atoms: C_7  and  C_9
REMARK    8  A    between atoms: C_9  and  C_10
REMARK    9  A    between atoms: C_12  and  N_13
REMARK   10  A    between atoms: C_12  and  S_21
REMARK   11  A    between atoms: N_13  and  C_14
REMARK   12  A    between atoms: C_14  and  C_15
REMARK   13  A    between atoms: S_21  and  C_22
REMARK                            x       y       z     vdW  Elec       q    Type
REMARK                         _______ _______ _______ _____ _____    ______ ____
ROOT
ATOM      1  C   UNL     1       6.525   5.337  16.143  0.00  0.00    +0.000 C 
ATOM      2  C   UNL     1       5.793   4.514  16.974  0.00  0.00    +0.000 C 
ENDROOT
BRANCH   1   3
ATOM      3  C   UNL     1       6.868   5.063  14.702  0.00  0.00    +0.000 C 
ATOM      4  O   UNL     1       7.813   5.568  14.111  0.00  0.00    +0.000 OA
BRANCH   3   5
ATOM      5  O   UNL     1       5.962   4.272  14.062  0.00  0.00    +0.000 OA
BRANCH   5   6
ATOM      6  C   UNL     1       6.624   3.451  13.088  0.00  0.00    +0.000 C 
BRANCH   6   7
ATOM      7  C   UNL     1       5.710   2.957  11.991  0.00  0.00    +0.000 C 
BRANCH   7   8
ATOM      8  O   UNL     1       4.462   3.651  12.094  0.00  0.00    +0.000 OA
BRANCH   8  10
ATOM      9  C   UNL     1       3.291   4.128  10.048  0.00  0.00    +0.000 C 
ATOM     10  C   UNL     1       3.523   3.127  11.161  0.00  0.00    +0.000 C 
ENDBRANCH   8  10
ENDBRANCH   7   8
ENDBRANCH   6   7
ENDBRANCH   5   6
ENDBRANCH   3   5
ENDBRANCH   1   3
BRANCH   1  11
ATOM     11  C   UNL     1       7.082   6.579  16.611  0.00  0.00    +0.000 C 
ATOM     12  N   UNL     1       7.532   7.605  16.986  0.00  0.00    +0.000 NA
ENDBRANCH   1  11
BRANCH   2  13
ATOM     13  N   UNL     1       5.192   3.277  16.685  0.00  0.00    +0.000 N 
ATOM     14  H   UNL     1       5.603   2.492  17.196  0.00  0.00    +0.000 HD
BRANCH  13  15
ATOM     15  C   UNL     1       3.752   3.085  16.489  0.00  0.00    +0.000 C 
BRANCH  15  16
ATOM     16  C   UNL     1       2.831   3.116  17.669  0.00  0.00    +0.000 A 
ATOM     17  C   UNL     1       1.686   3.867  17.869  0.00  0.00    +0.000 A 
ATOM     18  N   UNL     1       1.130   3.778  19.134  0.00  0.00    +0.000 NA
ATOM     19  C   UNL     1       1.874   2.980  19.866  0.00  0.00    +0.000 A 
ATOM     20 BR   UNL     1       1.476   2.595  21.659  0.00  0.00    +0.000 Br
ATOM     21  S   UNL     1       3.245   2.302  19.116  0.00  0.00    +0.000 S 
ENDBRANCH  15  16
ENDBRANCH  13  15
ENDBRANCH   2  13
BRANCH   2  22
ATOM     22  S   UNL     1       5.550   5.110  18.665  0.00  0.00    +0.000 S 
ATOM     23  C   UNL     1       4.170   6.281  18.556  0.00  0.00    +0.000 C 
ENDBRANCH   2  22
TORSDOF 11
ENDMDL
MODEL 3
REMARK VINA RESULT:      -5.8      2.692      4.472
REMARK  Name = 
REMARK  13 active torsions:
REMARK  status: ('A' for Active; 'I' for Inactive)
REMARK    1  A    between atoms: C_1  and  C_2
REMARK    2  A    between atoms: C_2  and  O_3
REMARK    3  A    between atoms: O_3  and  C_4
REMARK    4  A    between atoms: C_4  and  C_5
REMARK    5  A    between atoms: C_5  and  O_6
REMARK    6  A    between atoms: O_6  and  C_7
REMARK    7  A    between atoms: C_7  and  C_9
REMARK    8  A    between atoms: C_9  and  C_10
REMARK    9  A    between atoms: C_12  and  N_13
REMARK   10  A    between atoms: C_12  and  S_21
REMARK   11  A    between atoms: N_13  and  C_14
REMARK   12  A    between atoms: C_14  and  C_15
REMARK   13  A    between atoms: S_21  and  C_22
REMARK                            x       y       z     vdW  Elec       q    Type
REMARK                         _______ _______ _______ _____ _____    ______ ____
ROOT
ATOM      1  C   UNL     1       4.277   4.457  16.979  0.00  0.00    +0.000 C 
ATOM      2  C   UNL     1       4.307   5.744  17.478  0.00  0.00    +0.000 C 
ENDROOT
BRANCH   1   3
ATOM      3  C   UNL     1       3.241   3.410  17.292  0.00  0.00    +0.000 C 
ATOM      4  O   UNL     1       2.046   3.533  17.062  0.00  0.00    +0.000 OA
BRANCH   3   5
ATOM      5  O   UNL     1       3.734   2.331  17.962  0.00  0.00    +0.000 OA
BRANCH   5   6
ATOM      6  C   UNL     1       4.243   2.734  19.242  0.00  0.00    +0.000 C 
BRANCH   6   7
ATOM      7  C   UNL     1       3.178   2.848  20.308  0.00  0.00    +0.000 C 
BRANCH   7   8
ATOM      8  O   UNL     1       2.828   4.229  20.453  0.00  0.00    +0.000 OA
BRANCH   8  10
ATOM      9  C   UNL     1       0.714   3.112  20.202  0.00  0.00    +0.000 C 
ATOM     10  C   UNL     1       1.426   4.368  20.657  0.00  0.00    +0.000 C 
ENDBRANCH   8  10
ENDBRANCH   7   8
ENDBRANCH   6   7
ENDBRANCH   5   6
ENDBRANCH   3   5
ENDBRANCH   1   3
BRANCH   1  11
ATOM     11  C   UNL     1       5.302   3.967  16.096  0.00  0.00    +0.000 C 
ATOM     12  N   UNL     1       6.143   3.575  15.364  0.00  0.00    +0.000 NA
ENDBRANCH   1  11
BRANCH   2  13
ATOM     13  N   UNL     1       3.402   6.374  18.350  0.00  0.00    +0.000 N 
ATOM     14  H   UNL     1       3.708   6.380  19.325  0.00  0.00    +0.000 HD
BRANCH  13  15
ATOM     15  C   UNL     1       2.653   7.592  18.021  0.00  0.00    +0.000 C 
BRANCH  15  16
ATOM     16  C   UNL     1       1.944   8.342  19.104  0.00  0.00    +0.000 A 
ATOM     17  C   UNL     1       1.731   7.987  20.424  0.00  0.00    +0.000 A 
ATOM     18  N   UNL     1       0.908   8.836  21.144  0.00  0.00    +0.000 NA
ATOM     19  C   UNL     1       0.503   9.801  20.351  0.00  0.00    +0.000 A 
ATOM     20 BR   UNL     1      -0.645  11.168  20.933  0.00  0.00    +0.000 Br
ATOM     21  S   UNL     1       1.061   9.763  18.742  0.00  0.00    +0.000 S 
ENDBRANCH  15  16
ENDBRANCH  13  15
ENDBRANCH   2  13
BRANCH   2  22
ATOM     22  S   UNL     1       5.686   6.776  16.926  0.00  0.00    +0.000 S 
ATOM     23  C   UNL     1       7.063   6.346  18.024  0.00  0.00    +0.000 C 
ENDBRANCH   2  22
TORSDOF 11
ENDMDL
MODEL 4
REMARK VINA RESULT:      -5.8      1.830      2.037
REMARK  Name = 
REMARK  13 active torsions:
REMARK  status: ('A' for Active; 'I' for Inactive)
REMARK    1  A    between atoms: C_1  and  C_2
REMARK    2  A    between atoms: C_2  and  O_3
REMARK    3  A    between atoms: O_3  and  C_4
REMARK    4  A    between atoms: C_4  and  C_5
REMARK    5  A    between atoms: C_5  and  O_6
REMARK    6  A    between atoms: O_6  and  C_7
REMARK    7  A    between atoms: C_7  and  C_9
REMARK    8  A    between atoms: C_9  and  C_10
REMARK    9  A    between atoms: C_12  and  N_13
REMARK   10  A    between atoms: C_12  and  S_21
REMARK   11  A    between atoms: N_13  and  C_14
REMARK   12  A    between atoms: C_14  and  C_15
REMARK   13  A    between atoms: S_21  and  C_22
REMARK                            x       y       z     vdW  Elec       q    Type
REMARK                         _______ _______ _______ _____ _____    ______ ____
ROOT
ATOM      1  C   UNL     1       4.514   3.816  18.768  0.00  0.00    +0.000 C 
ATOM      2  C   UNL     1       3.267   4.387  18.616  0.00  0.00    +0.000 C 
ENDROOT
BRANCH   1   3
ATOM      3  C   UNL     1       5.769   4.220  18.039  0.00  0.00    +0.000 C 
ATOM      4  O   UNL     1       6.772   4.659  18.585  0.00  0.00    +0.000 OA
BRANCH   3   5
ATOM      5  O   UNL     1       5.661   4.158  16.682  0.00  0.00    +0.000 OA
BRANCH   5   6
ATOM      6  C   UNL     1       6.894   4.566  16.069  0.00  0.00    +0.000 C 
BRANCH   6   7
ATOM      7  C   UNL     1       6.760   4.893  14.599  0.00  0.00    +0.000 C 
BRANCH   7   8
ATOM      8  O   UNL     1       5.740   4.057  14.040  0.00  0.00    +0.000 OA
BRANCH   8  10
ATOM      9  C   UNL     1       4.975   3.296  11.892  0.00  0.00    +0.000 C 
ATOM     10  C   UNL     1       6.169   3.514  12.796  0.00  0.00    +0.000 C 
ENDBRANCH   8  10
ENDBRANCH   7   8
ENDBRANCH   6   7
ENDBRANCH   5   6
ENDBRANCH   3   5
ENDBRANCH   1   3
BRANCH   1  11
ATOM     11  C   UNL     1       4.733   2.706  19.657  0.00  0.00    +0.000 C 
ATOM     12  N   UNL     1       4.911   1.787  20.378  0.00  0.00    +0.000 NA
ENDBRANCH   1  11
BRANCH   2  13
ATOM     13  N   UNL     1       2.881   5.459  17.792  0.00  0.00    +0.000 N 
ATOM     14  H   UNL     1       1.898   5.429  17.515  0.00  0.00    +0.000 HD
BRANCH  13  15
ATOM     15  C   UNL     1       3.342   6.840  17.967  0.00  0.00    +0.000 C 
BRANCH  15  16
ATOM     16  C   UNL     1       2.379   7.893  18.419  0.00  0.00    +0.000 A 
ATOM     17  C   UNL     1       1.972   9.046  17.772  0.00  0.00    +0.000 A 
ATOM     18  N   UNL     1       1.175   9.897  18.519  0.00  0.00    +0.000 NA
ATOM     19  C   UNL     1       1.012   9.380  19.715  0.00  0.00    +0.000 A 
ATOM     20 BR   UNL     1      -0.000  10.227  21.050  0.00  0.00    +0.000 Br
ATOM     21  S   UNL     1       1.776   7.888  20.020  0.00  0.00    +0.000 S 
ENDBRANCH  15  16
ENDBRANCH  13  15
ENDBRANCH   2  13
BRANCH   2  22
ATOM     22  S   UNL     1       1.944   3.680  19.627  0.00  0.00    +0.000 S 
ATOM     23  C   UNL     1       2.169   4.408  21.272  0.00  0.00    +0.000 C 
ENDBRANCH   2  22
TORSDOF 11
ENDMDL
MODEL 5
REMARK VINA RESULT:      -5.8      1.520      1.640
REMARK  Name = 
REMARK  13 active torsions:
REMARK  status: ('A' for Active; 'I' for Inactive)
REMARK    1  A    between atoms: C_1  and  C_2
REMARK    2  A    between atoms: C_2  and  O_3
REMARK    3  A    between atoms: O_3  and  C_4
REMARK    4  A    between atoms: C_4  and  C_5
REMARK    5  A    between atoms: C_5  and  O_6
REMARK    6  A    between atoms: O_6  and  C_7
REMARK    7  A    between atoms: C_7  and  C_9
REMARK    8  A    between atoms: C_9  and  C_10
REMARK    9  A    between atoms: C_12  and  N_13
REMARK   10  A    between atoms: C_12  and  S_21
REMARK   11  A    between atoms: N_13  and  C_14
REMARK   12  A    between atoms: C_14  and  C_15
REMARK   13  A    between atoms: S_21  and  C_22
REMARK                            x       y       z     vdW  Elec       q    Type
REMARK                         _______ _______ _______ _____ _____    ______ ____
ROOT
ATOM      1  C   UNL     1       3.765   4.062  18.916  0.00  0.00    +0.000 C 
ATOM      2  C   UNL     1       2.824   4.757  19.650  0.00  0.00    +0.000 C 
ENDROOT
BRANCH   1   3
ATOM      3  C   UNL     1       5.093   4.595  18.446  0.00  0.00    +0.000 C 
ATOM      4  O   UNL     1       5.694   5.517  18.982  0.00  0.00    +0.000 OA
BRANCH   3   5
ATOM      5  O   UNL     1       5.534   4.030  17.288  0.00  0.00    +0.000 OA
BRANCH   5   6
ATOM      6  C   UNL     1       5.937   5.051  16.362  0.00  0.00    +0.000 C 
BRANCH   6   7
ATOM      7  C   UNL     1       6.616   4.511  15.124  0.00  0.00    +0.000 C 
BRANCH   7   8
ATOM      8  O   UNL     1       5.607   4.156  14.172  0.00  0.00    +0.000 OA
BRANCH   8  10
ATOM      9  C   UNL     1       5.124   3.259  11.994  0.00  0.00    +0.000 C 
ATOM     10  C   UNL     1       6.203   3.653  12.981  0.00  0.00    +0.000 C 
ENDBRANCH   8  10
ENDBRANCH   7   8
ENDBRANCH   6   7
ENDBRANCH   5   6
ENDBRANCH   3   5
ENDBRANCH   1   3
BRANCH   1  11
ATOM     11  C   UNL     1       3.537   2.708  18.486  0.00  0.00    +0.000 C 
ATOM     12  N   UNL     1       3.361   1.593  18.135  0.00  0.00    +0.000 NA
ENDBRANCH   1  11
BRANCH   2  13
ATOM     13  N   UNL     1       2.881   6.074  20.137  0.00  0.00    +0.000 N 
ATOM     14  H   UNL     1       3.722   6.272  20.683  0.00  0.00    +0.000 HD
BRANCH  13  15
ATOM     15  C   UNL     1       2.451   7.252  19.379  0.00  0.00    +0.000 C 
BRANCH  15  16
ATOM     16  C   UNL     1       1.582   8.280  20.034  0.00  0.00    +0.000 A 
ATOM     17  C   UNL     1       0.975   8.253  21.277  0.00  0.00    +0.000 A 
ATOM     18  N   UNL     1       0.109   9.301  21.539  0.00  0.00    +0.000 NA
ATOM     19  C   UNL     1       0.065  10.085  20.486  0.00  0.00    +0.000 A 
ATOM     20 BR   UNL     1      -1.005  11.625  20.421  0.00  0.00    +0.000 Br
ATOM     21  S   UNL     1       1.026   9.638  19.153  0.00  0.00    +0.000 S 
ENDBRANCH  15  16
ENDBRANCH  13  15
ENDBRANCH   2  13
BRANCH   2  22
ATOM     22  S   UNL     1       1.314   3.849  20.062  0.00  0.00    +0.000 S 
ATOM     23  C   UNL     1       1.707   2.955  21.590  0.00  0.00    +0.000 C 
ENDBRANCH   2  22
TORSDOF 11
ENDMDL
MODEL 6
REMARK VINA RESULT:      -5.8      1.442      2.008
REMARK  Name = 
REMARK  13 active torsions:
REMARK  status: ('A' for Active; 'I' for Inactive)
REMARK    1  A    between atoms: C_1  and  C_2
REMARK    2  A    between atoms: C_2  and  O_3
REMARK    3  A    between atoms: O_3  and  C_4
REMARK    4  A    between atoms: C_4  and  C_5
REMARK    5  A    between atoms: C_5  and  O_6
REMARK    6  A    between atoms: O_6  and  C_7
REMARK    7  A    between atoms: C_7  and  C_9
REMARK    8  A    between atoms: C_9  and  C_10
REMARK    9  A    between atoms: C_12  and  N_13
REMARK   10  A    between atoms: C_12  and  S_21
REMARK   11  A    between atoms: N_13  and  C_14
REMARK   12  A    between atoms: C_14  and  C_15
REMARK   13  A    between atoms: S_21  and  C_22
REMARK                            x       y       z     vdW  Elec       q    Type
REMARK                         _______ _______ _______ _____ _____    ______ ____
ROOT
ATOM      1  C   UNL     1       3.587   4.163  19.411  0.00  0.00    +0.000 C 
ATOM      2  C   UNL     1       2.553   4.804  20.062  0.00  0.00    +0.000 C 
ENDROOT
BRANCH   1   3
ATOM      3  C   UNL     1       4.933   4.756  19.086  0.00  0.00    +0.000 C 
ATOM      4  O   UNL     1       6.002   4.252  19.403  0.00  0.00    +0.000 OA
BRANCH   3   5
ATOM      5  O   UNL     1       4.866   5.979  18.489  0.00  0.00    +0.000 OA
BRANCH   5   6
ATOM      6  C   UNL     1       4.519   5.834  17.103  0.00  0.00    +0.000 C 
BRANCH   6   7
ATOM      7  C   UNL     1       5.674   6.085  16.161  0.00  0.00    +0.000 C 
BRANCH   7   8
ATOM      8  O   UNL     1       6.310   7.311  16.540  0.00  0.00    +0.000 OA
BRANCH   8  10
ATOM      9  C   UNL     1       7.999   8.305  17.934  0.00  0.00    +0.000 C 
ATOM     10  C   UNL     1       7.521   7.047  17.240  0.00  0.00    +0.000 C 
ENDBRANCH   8  10
ENDBRANCH   7   8
ENDBRANCH   6   7
ENDBRANCH   5   6
ENDBRANCH   3   5
ENDBRANCH   1   3
BRANCH   1  11
ATOM     11  C   UNL     1       3.455   2.812  18.932  0.00  0.00    +0.000 C 
ATOM     12  N   UNL     1       3.336   1.706  18.534  0.00  0.00    +0.000 NA
ENDBRANCH   1  11
BRANCH   2  13
ATOM     13  N   UNL     1       2.510   6.110  20.580  0.00  0.00    +0.000 N 
ATOM     14  H   UNL     1       3.311   6.342  21.171  0.00  0.00    +0.000 HD
BRANCH  13  15
ATOM     15  C   UNL     1       2.049   7.281  19.827  0.00  0.00    +0.000 C 
BRANCH  15  16
ATOM     16  C   UNL     1       1.564   8.492  20.560  0.00  0.00    +0.000 A 
ATOM     17  C   UNL     1       1.512   8.730  21.923  0.00  0.00    +0.000 A 
ATOM     18  N   UNL     1       0.871   9.898  22.297  0.00  0.00    +0.000 NA
ATOM     19  C   UNL     1       0.438  10.507  21.217  0.00  0.00    +0.000 A 
ATOM     20 BR   UNL     1      -0.501  12.131  21.282  0.00  0.00    +0.000 Br
ATOM     21  S   UNL     1       0.758   9.749  19.725  0.00  0.00    +0.000 S 
ENDBRANCH  15  16
ENDBRANCH  13  15
ENDBRANCH   2  13
BRANCH   2  22
ATOM     22  S   UNL     1       1.046   3.832  20.304  0.00  0.00    +0.000 S 
ATOM     23  C   UNL     1       1.326   2.907  21.837  0.00  0.00    +0.000 C 
ENDBRANCH   2  22
TORSDOF 11
ENDMDL
MODEL 7
REMARK VINA RESULT:      -5.7      1.941      2.582
REMARK  Name = 
REMARK  13 active torsions:
REMARK  status: ('A' for Active; 'I' for Inactive)
REMARK    1  A    between atoms: C_1  and  C_2
REMARK    2  A    between atoms: C_2  and  O_3
REMARK    3  A    between atoms: O_3  and  C_4
REMARK    4  A    between atoms: C_4  and  C_5
REMARK    5  A    between atoms: C_5  and  O_6
REMARK    6  A    between atoms: O_6  and  C_7
REMARK    7  A    between atoms: C_7  and  C_9
REMARK    8  A    between atoms: C_9  and  C_10
REMARK    9  A    between atoms: C_12  and  N_13
REMARK   10  A    between atoms: C_12  and  S_21
REMARK   11  A    between atoms: N_13  and  C_14
REMARK   12  A    between atoms: C_14  and  C_15
REMARK   13  A    between atoms: S_21  and  C_22
REMARK                            x       y       z     vdW  Elec       q    Type
REMARK                         _______ _______ _______ _____ _____    ______ ____
ROOT
ATOM      1  C   UNL     1       4.352   3.523  19.121  0.00  0.00    +0.000 C 
ATOM      2  C   UNL     1       3.062   3.900  18.805  0.00  0.00    +0.000 C 
ENDROOT
BRANCH   1   3
ATOM      3  C   UNL     1       5.614   4.146  18.584  0.00  0.00    +0.000 C 
ATOM      4  O   UNL     1       6.433   4.742  19.270  0.00  0.00    +0.000 OA
BRANCH   3   5
ATOM      5  O   UNL     1       5.724   4.084  17.228  0.00  0.00    +0.000 OA
BRANCH   5   6
ATOM      6  C   UNL     1       6.755   4.974  16.775  0.00  0.00    +0.000 C 
BRANCH   6   7
ATOM      7  C   UNL     1       6.238   6.125  15.941  0.00  0.00    +0.000 C 
BRANCH   7   8
ATOM      8  O   UNL     1       6.399   7.335  16.690  0.00  0.00    +0.000 OA
BRANCH   8  10
ATOM      9  C   UNL     1       8.026   8.701  17.817  0.00  0.00    +0.000 C 
ATOM     10  C   UNL     1       7.604   7.294  17.447  0.00  0.00    +0.000 C 
ENDBRANCH   8  10
ENDBRANCH   7   8
ENDBRANCH   6   7
ENDBRANCH   5   6
ENDBRANCH   3   5
ENDBRANCH   1   3
BRANCH   1  11
ATOM     11  C   UNL     1       4.620   2.426  20.012  0.00  0.00    +0.000 C 
ATOM     12  N   UNL     1       4.852   1.523  20.739  0.00  0.00    +0.000 NA
ENDBRANCH   1  11
BRANCH   2  13
ATOM     13  N   UNL     1       2.627   4.931  17.955  0.00  0.00    +0.000 N 
ATOM     14  H   UNL     1       1.617   4.933  17.796  0.00  0.00    +0.000 HD
BRANCH  13  15
ATOM     15  C   UNL     1       3.164   6.296  17.973  0.00  0.00    +0.000 C 
BRANCH  15  16
ATOM     16  C   UNL     1       2.479   7.352  18.783  0.00  0.00    +0.000 A 
ATOM     17  C   UNL     1       2.051   7.310  20.098  0.00  0.00    +0.000 A 
ATOM     18  N   UNL     1       1.316   8.405  20.519  0.00  0.00    +0.000 NA
ATOM     19  C   UNL     1       1.190   9.240  19.513  0.00  0.00    +0.000 A 
ATOM     20 BR   UNL     1       0.248  10.857  19.658  0.00  0.00    +0.000 Br
ATOM     21  S   UNL     1       1.918   8.788  18.041  0.00  0.00    +0.000 S 
ENDBRANCH  15  16
ENDBRANCH  13  15
ENDBRANCH   2  13
BRANCH   2  22
ATOM     22  S   UNL     1       1.743   2.956  19.606  0.00  0.00    +0.000 S 
ATOM     23  C   UNL     1       1.668   3.598  21.300  0.00  0.00    +0.000 C 
ENDBRANCH   2  22
TORSDOF 11
ENDMDL
MODEL 8
REMARK VINA RESULT:      -5.7      1.301      1.452
REMARK  Name = 
REMARK  13 active torsions:
REMARK  status: ('A' for Active; 'I' for Inactive)
REMARK    1  A    between atoms: C_1  and  C_2
REMARK    2  A    between atoms: C_2  and  O_3
REMARK    3  A    between atoms: O_3  and  C_4
REMARK    4  A    between atoms: C_4  and  C_5
REMARK    5  A    between atoms: C_5  and  O_6
REMARK    6  A    between atoms: O_6  and  C_7
REMARK    7  A    between atoms: C_7  and  C_9
REMARK    8  A    between atoms: C_9  and  C_10
REMARK    9  A    between atoms: C_12  and  N_13
REMARK   10  A    between atoms: C_12  and  S_21
REMARK   11  A    between atoms: N_13  and  C_14
REMARK   12  A    between atoms: C_14  and  C_15
REMARK   13  A    between atoms: S_21  and  C_22
REMARK                            x       y       z     vdW  Elec       q    Type
REMARK                         _______ _______ _______ _____ _____    ______ ____
ROOT
ATOM      1  C   UNL     1       4.040   4.487  19.440  0.00  0.00    +0.000 C 
ATOM      2  C   UNL     1       2.754   4.955  19.622  0.00  0.00    +0.000 C 
ENDROOT
BRANCH   1   3
ATOM      3  C   UNL     1       5.175   5.243  18.801  0.00  0.00    +0.000 C 
ATOM      4  O   UNL     1       5.030   6.183  18.031  0.00  0.00    +0.000 OA
BRANCH   3   5
ATOM      5  O   UNL     1       6.404   4.722  19.072  0.00  0.00    +0.000 OA
BRANCH   5   6
ATOM      6  C   UNL     1       7.379   5.259  18.165  0.00  0.00    +0.000 C 
BRANCH   6   7
ATOM      7  C   UNL     1       7.477   4.499  16.862  0.00  0.00    +0.000 C 
BRANCH   7   8
ATOM      8  O   UNL     1       7.524   5.446  15.788  0.00  0.00    +0.000 OA
BRANCH   8  10
ATOM      9  C   UNL     1       5.588   4.223  15.053  0.00  0.00    +0.000 C 
ATOM     10  C   UNL     1       6.863   4.927  14.639  0.00  0.00    +0.000 C 
ENDBRANCH   8  10
ENDBRANCH   7   8
ENDBRANCH   6   7
ENDBRANCH   5   6
ENDBRANCH   3   5
ENDBRANCH   1   3
BRANCH   1  11
ATOM     11  C   UNL     1       4.421   3.157  19.834  0.00  0.00    +0.000 C 
ATOM     12  N   UNL     1       4.747   2.068  20.155  0.00  0.00    +0.000 NA
ENDBRANCH   1  11
BRANCH   2  13
ATOM     13  N   UNL     1       2.215   6.210  19.290  0.00  0.00    +0.000 N 
ATOM     14  H   UNL     1       1.421   6.158  18.649  0.00  0.00    +0.000 HD
BRANCH  13  15
ATOM     15  C   UNL     1       2.061   7.318  20.238  0.00  0.00    +0.000 C 
BRANCH  15  16
ATOM     16  C   UNL     1       1.346   8.563  19.815  0.00  0.00    +0.000 A 
ATOM     17  C   UNL     1       1.456   9.282  18.638  0.00  0.00    +0.000 A 
ATOM     18  N   UNL     1       0.763  10.479  18.606  0.00  0.00    +0.000 NA
ATOM     19  C   UNL     1       0.160  10.649  19.760  0.00  0.00    +0.000 A 
ATOM     20 BR   UNL     1      -0.886  12.161  20.139  0.00  0.00    +0.000 Br
ATOM     21  S   UNL     1       0.373   9.426  20.927  0.00  0.00    +0.000 S 
ENDBRANCH  15  16
ENDBRANCH  13  15
ENDBRANCH   2  13
BRANCH   2  22
ATOM     22  S   UNL     1       1.600   3.810  20.416  0.00  0.00    +0.000 S 
ATOM     23  C   UNL     1       0.892   2.840  19.058  0.00  0.00    +0.000 C 
ENDBRANCH   2  22
TORSDOF 11
ENDMDL
MODEL 9
REMARK VINA RESULT:      -5.7      1.309      1.415
REMARK  Name = 
REMARK  13 active torsions:
REMARK  status: ('A' for Active; 'I' for Inactive)
REMARK    1  A    between atoms: C_1  and  C_2
REMARK    2  A    between atoms: C_2  and  O_3
REMARK    3  A    between atoms: O_3  and  C_4
REMARK    4  A    between atoms: C_4  and  C_5
REMARK    5  A    between atoms: C_5  and  O_6
REMARK    6  A    between atoms: O_6  and  C_7
REMARK    7  A    between atoms: C_7  and  C_9
REMARK    8  A    between atoms: C_9  and  C_10
REMARK    9  A    between atoms: C_12  and  N_13
REMARK   10  A    between atoms: C_12  and  S_21
REMARK   11  A    between atoms: N_13  and  C_14
REMARK   12  A    between atoms: C_14  and  C_15
REMARK   13  A    between atoms: S_21  and  C_22
REMARK                            x       y       z     vdW  Elec       q    Type
REMARK                         _______ _______ _______ _____ _____    ______ ____
ROOT
ATOM      1  C   UNL     1       3.888   4.384  19.277  0.00  0.00    +0.000 C 
ATOM      2  C   UNL     1       2.793   4.988  19.861  0.00  0.00    +0.000 C 
ENDROOT
BRANCH   1   3
ATOM      3  C   UNL     1       5.234   5.020  19.048  0.00  0.00    +0.000 C 
ATOM      4  O   UNL     1       6.188   4.904  19.805  0.00  0.00    +0.000 OA
BRANCH   3   5
ATOM      5  O   UNL     1       5.277   5.840  17.961  0.00  0.00    +0.000 OA
BRANCH   5   6
ATOM      6  C   UNL     1       5.601   5.084  16.785  0.00  0.00    +0.000 C 
BRANCH   6   7
ATOM      7  C   UNL     1       7.065   4.723  16.680  0.00  0.00    +0.000 C 
BRANCH   7   8
ATOM      8  O   UNL     1       7.424   4.685  15.294  0.00  0.00    +0.000 OA
BRANCH   8  10
ATOM      9  C   UNL     1       6.287   3.754  13.390  0.00  0.00    +0.000 C 
ATOM     10  C   UNL     1       6.265   4.809  14.477  0.00  0.00    +0.000 C 
ENDBRANCH   8  10
ENDBRANCH   7   8
ENDBRANCH   6   7
ENDBRANCH   5   6
ENDBRANCH   3   5
ENDBRANCH   1   3
BRANCH   1  11
ATOM     11  C   UNL     1       3.830   3.034  18.782  0.00  0.00    +0.000 C 
ATOM     12  N   UNL     1       3.794   1.924  18.379  0.00  0.00    +0.000 NA
ENDBRANCH   1  11
BRANCH   2  13
ATOM     13  N   UNL     1       2.676   6.288  20.384  0.00  0.00    +0.000 N 
ATOM     14  H   UNL     1       3.247   6.979  19.894  0.00  0.00    +0.000 HD
BRANCH  13  15
ATOM     15  C   UNL     1       1.418   6.876  20.856  0.00  0.00    +0.000 C 
BRANCH  15  16
ATOM     16  C   UNL     1       1.306   8.360  21.013  0.00  0.00    +0.000 A 
ATOM     17  C   UNL     1       1.240   9.118  22.170  0.00  0.00    +0.000 A 
ATOM     18  N   UNL     1       0.992  10.467  21.983  0.00  0.00    +0.000 NA
ATOM     19  C   UNL     1       0.859  10.697  20.697  0.00  0.00    +0.000 A 
ATOM     20 BR   UNL     1       0.501  12.407  20.011  0.00  0.00    +0.000 Br
ATOM     21  S   UNL     1       1.016   9.359  19.655  0.00  0.00    +0.000 S 
ENDBRANCH  15  16
ENDBRANCH  13  15
ENDBRANCH   2  13
BRANCH   2  22
ATOM     22  S   UNL     1       1.304   3.969  19.994  0.00  0.00    +0.000 S 
ATOM     23  C   UNL     1       1.531   3.001  21.510  0.00  0.00    +0.000 C 
ENDBRANCH   2  22
TORSDOF 11
ENDMDL
