MODEL 1
REMARK VINA RESULT:      -7.7      0.000      0.000
REMARK  Name = 
REMARK  11 active torsions:
REMARK  status: ('A' for Active; 'I' for Inactive)
REMARK    1  A    between atoms: C_1  and  O_2
REMARK    2  A    between atoms: O_2  and  C_3
REMARK    3  A    between atoms: C_5  and  C_6
REMARK    4  A    between atoms: C_6  and  C_7
REMARK    5  A    between atoms: C_11  and  C_12
REMARK    6  A    between atoms: C_15  and  O_16
REMARK    7  A    between atoms: C_17  and  O_18
REMARK    8  A    between atoms: O_18  and  C_19
REMARK    9  A    between atoms: C_21  and  C_22
REMARK   10  A    between atoms: C_22  and  O_23
REMARK   11  A    between atoms: C_26  and  O_27
REMARK                            x       y       z     vdW  Elec       q    Type
REMARK                         _______ _______ _______ _____ _____    ______ ____
ROOT
ATOM      1  C   UNL     1       3.949   4.118  18.950  0.00  0.00    +0.000 C 
ATOM      2  C   UNL     1       4.944   5.213  19.202  0.00  0.00    +0.000 C 
ATOM      3  O   UNL     1       5.933   5.131  19.909  0.00  0.00    +0.000 OA
ATOM      4  O   UNL     1       4.618   6.337  18.516  0.00  0.00    +0.000 OA
ATOM      5  C   UNL     1       3.285   6.247  18.003  0.00  0.00    +0.000 C 
ATOM      6  C   UNL     1       2.719   4.932  18.527  0.00  0.00    +0.000 C 
ENDROOT
BRANCH   5   7
ATOM      7  C   UNL     1       2.529   7.468  18.496  0.00  0.00    +0.000 A 
ATOM      8  C   UNL     1       2.261   8.537  17.632  0.00  0.00    +0.000 A 
ATOM      9  C   UNL     1       1.525   9.644  18.067  0.00  0.00    +0.000 A 
ATOM     10  C   UNL     1       1.064   9.702  19.380  0.00  0.00    +0.000 A 
ATOM     11  C   UNL     1       1.328   8.657  20.271  0.00  0.00    +0.000 A 
ATOM     12  C   UNL     1       2.066   7.546  19.819  0.00  0.00    +0.000 A 
BRANCH  10  13
ATOM     13  O   UNL     1       0.346  10.806  19.754  0.00  0.00    +0.000 OA
ATOM     14  H   UNL     1       0.954  11.491  20.078  0.00  0.00    +0.000 HD
ENDBRANCH  10  13
BRANCH  11  15
ATOM     15  O   UNL     1       0.947   8.550  21.583  0.00  0.00    +0.000 OA
ATOM     16  C   UNL     1      -0.446   8.471  21.858  0.00  0.00    +0.000 C 
ENDBRANCH  11  15
ENDBRANCH   5   7
BRANCH   1  17
ATOM     17  C   UNL     1       4.551   3.112  17.958  0.00  0.00    +0.000 C 
BRANCH  17  20
ATOM     18  C   UNL     1       5.744   4.359  14.512  0.00  0.00    +0.000 A 
ATOM     19  C   UNL     1       4.948   3.815  15.538  0.00  0.00    +0.000 A 
ATOM     20  C   UNL     1       5.392   3.765  16.871  0.00  0.00    +0.000 A 
ATOM     21  C   UNL     1       6.638   4.326  17.174  0.00  0.00    +0.000 A 
ATOM     22  C   UNL     1       7.425   4.900  16.173  0.00  0.00    +0.000 A 
ATOM     23  C   UNL     1       6.990   4.900  14.845  0.00  0.00    +0.000 A 
BRANCH  18  25
ATOM     24  C   UNL     1       5.666   3.291  12.373  0.00  0.00    +0.000 C 
ATOM     25  O   UNL     1       5.166   4.274  13.271  0.00  0.00    +0.000 OA
ENDBRANCH  18  25
BRANCH  23  26
ATOM     26  O   UNL     1       7.820   5.437  13.899  0.00  0.00    +0.000 OA
ATOM     27  H   UNL     1       7.553   6.353  13.725  0.00  0.00    +0.000 HD
ENDBRANCH  23  26
ENDBRANCH  17  20
ENDBRANCH   1  17
BRANCH   6  28
ATOM     28  C   UNL     1       1.739   4.280  17.560  0.00  0.00    +0.000 C 
BRANCH  28  29
ATOM     29  O   UNL     1       1.031   3.240  18.218  0.00  0.00    +0.000 OA
ATOM     30  H   UNL     1       0.106   3.260  17.918  0.00  0.00    +0.000 HD
ENDBRANCH  28  29
ENDBRANCH   6  28
TORSDOF 9
ENDMDL
MODEL 2
REMARK VINA RESULT:      -7.7      2.121      8.113
REMARK  Name = 
REMARK  11 active torsions:
REMARK  status: ('A' for Active; 'I' for Inactive)
REMARK    1  A    between atoms: C_1  and  O_2
REMARK    2  A    between atoms: O_2  and  C_3
REMARK    3  A    between atoms: C_5  and  C_6
REMARK    4  A    between atoms: C_6  and  C_7
REMARK    5  A    between atoms: C_11  and  C_12
REMARK    6  A    between atoms: C_15  and  O_16
REMARK    7  A    between atoms: C_17  and  O_18
REMARK    8  A    between atoms: O_18  and  C_19
REMARK    9  A    between atoms: C_21  and  C_22
REMARK   10  A    between atoms: C_22  and  O_23
REMARK   11  A    between atoms: C_26  and  O_27
REMARK                            x       y       z     vdW  Elec       q    Type
REMARK                         _______ _______ _______ _____ _____    ______ ____
ROOT
ATOM      1  C   UNL     1       1.920   7.177  20.171  0.00  0.00    +0.000 C 
ATOM      2  C   UNL     1       2.239   5.733  20.423  0.00  0.00    +0.000 C 
ATOM      3  O   UNL     1       2.300   5.195  21.516  0.00  0.00    +0.000 OA
ATOM      4  O   UNL     1       2.441   5.066  19.260  0.00  0.00    +0.000 OA
ATOM      5  C   UNL     1       2.585   5.983  18.171  0.00  0.00    +0.000 C 
ATOM      6  C   UNL     1       2.548   7.378  18.786  0.00  0.00    +0.000 C 
ENDROOT
BRANCH   5   7
ATOM      7  C   UNL     1       3.900   5.663  17.482  0.00  0.00    +0.000 A 
ATOM      8  C   UNL     1       4.127   4.394  16.935  0.00  0.00    +0.000 A 
ATOM      9  C   UNL     1       5.318   4.107  16.259  0.00  0.00    +0.000 A 
ATOM     10  C   UNL     1       6.304   5.083  16.139  0.00  0.00    +0.000 A 
ATOM     11  C   UNL     1       6.113   6.355  16.689  0.00  0.00    +0.000 A 
ATOM     12  C   UNL     1       4.908   6.632  17.363  0.00  0.00    +0.000 A 
BRANCH  10  13
ATOM     13  O   UNL     1       7.449   4.751  15.466  0.00  0.00    +0.000 OA
ATOM     14  H   UNL     1       8.221   5.005  15.998  0.00  0.00    +0.000 HD
ENDBRANCH  10  13
BRANCH  11  15
ATOM     15  O   UNL     1       6.969   7.425  16.658  0.00  0.00    +0.000 OA
ATOM     16  C   UNL     1       7.790   7.642  17.798  0.00  0.00    +0.000 C 
ENDBRANCH  11  15
ENDBRANCH   5   7
BRANCH   1  17
ATOM     17  C   UNL     1       0.409   7.394  20.340  0.00  0.00    +0.000 C 
BRANCH  17  20
ATOM     18  C   UNL     1      -0.412  11.088  21.068  0.00  0.00    +0.000 A 
ATOM     19  C   UNL     1      -0.153   9.881  20.390  0.00  0.00    +0.000 A 
ATOM     20  C   UNL     1       0.063   8.677  21.082  0.00  0.00    +0.000 A 
ATOM     21  C   UNL     1      -0.039   8.689  22.478  0.00  0.00    +0.000 A 
ATOM     22  C   UNL     1      -0.327   9.871  23.163  0.00  0.00    +0.000 A 
ATOM     23  C   UNL     1      -0.494  11.069  22.464  0.00  0.00    +0.000 A 
BRANCH  18  25
ATOM     24  C   UNL     1      -1.328  12.001  19.055  0.00  0.00    +0.000 C 
ATOM     25  O   UNL     1      -0.545  12.166  20.230  0.00  0.00    +0.000 OA
ENDBRANCH  18  25
BRANCH  23  26
ATOM     26  O   UNL     1      -0.733  12.206  23.188  0.00  0.00    +0.000 OA
ATOM     27  H   UNL     1      -1.689  12.366  23.222  0.00  0.00    +0.000 HD
ENDBRANCH  23  26
ENDBRANCH  17  20
ENDBRANCH   1  17
BRANCH   6  28
ATOM     28  C   UNL     1       1.915   8.415  17.867  0.00  0.00    +0.000 C 
BRANCH  28  29
ATOM     29  O   UNL     1       2.479   9.693  18.121  0.00  0.00    +0.000 OA
ATOM     30  H   UNL     1       2.803   9.709  19.038  0.00  0.00    +0.000 HD
ENDBRANCH  28  29
ENDBRANCH   6  28
TORSDOF 9
ENDMDL
MODEL 3
REMARK VINA RESULT:      -7.5      3.614      6.927
REMARK  Name = 
REMARK  11 active torsions:
REMARK  status: ('A' for Active; 'I' for Inactive)
REMARK    1  A    between atoms: C_1  and  O_2
REMARK    2  A    between atoms: O_2  and  C_3
REMARK    3  A    between atoms: C_5  and  C_6
REMARK    4  A    between atoms: C_6  and  C_7
REMARK    5  A    between atoms: C_11  and  C_12
REMARK    6  A    between atoms: C_15  and  O_16
REMARK    7  A    between atoms: C_17  and  O_18
REMARK    8  A    between atoms: O_18  and  C_19
REMARK    9  A    between atoms: C_21  and  C_22
REMARK   10  A    between atoms: C_22  and  O_23
REMARK   11  A    between atoms: C_26  and  O_27
REMARK                            x       y       z     vdW  Elec       q    Type
REMARK                         _______ _______ _______ _____ _____    ______ ____
ROOT
ATOM      1  C   UNL     1       0.457   9.378  20.240  0.00  0.00    +0.000 C 
ATOM      2  C   UNL     1       0.910   9.996  21.530  0.00  0.00    +0.000 C 
ATOM      3  O   UNL     1       1.603   9.457  22.376  0.00  0.00    +0.000 OA
ATOM      4  O   UNL     1       0.462  11.271  21.645  0.00  0.00    +0.000 OA
ATOM      5  C   UNL     1      -0.541  11.544  20.662  0.00  0.00    +0.000 C 
ATOM      6  C   UNL     1      -0.778  10.231  19.924  0.00  0.00    +0.000 C 
ENDROOT
BRANCH   5   7
ATOM      7  C   UNL     1      -1.768  12.052  21.398  0.00  0.00    +0.000 A 
ATOM      8  C   UNL     1      -1.920  11.824  22.771  0.00  0.00    +0.000 A 
ATOM      9  C   UNL     1      -3.025  12.328  23.465  0.00  0.00    +0.000 A 
ATOM     10  C   UNL     1      -4.003  13.051  22.786  0.00  0.00    +0.000 A 
ATOM     11  C   UNL     1      -3.887  13.283  21.411  0.00  0.00    +0.000 A 
ATOM     12  C   UNL     1      -2.768  12.773  20.727  0.00  0.00    +0.000 A 
BRANCH  10  13
ATOM     13  O   UNL     1      -5.062  13.525  23.512  0.00  0.00    +0.000 OA
ATOM     14  H   UNL     1      -5.796  12.890  23.464  0.00  0.00    +0.000 HD
ENDBRANCH  10  13
BRANCH  11  15
ATOM     15  O   UNL     1      -4.746  13.974  20.597  0.00  0.00    +0.000 OA
ATOM     16  C   UNL     1      -5.813  13.247  20.000  0.00  0.00    +0.000 C 
ENDBRANCH  11  15
ENDBRANCH   5   7
BRANCH   1  17
ATOM     17  C   UNL     1       1.629   9.371  19.248  0.00  0.00    +0.000 C 
BRANCH  17  20
ATOM     18  C   UNL     1       2.628   5.691  19.804  0.00  0.00    +0.000 A 
ATOM     19  C   UNL     1       2.027   6.955  19.960  0.00  0.00    +0.000 A 
ATOM     20  C   UNL     1       2.230   7.990  19.031  0.00  0.00    +0.000 A 
ATOM     21  C   UNL     1       3.009   7.720  17.900  0.00  0.00    +0.000 A 
ATOM     22  C   UNL     1       3.586   6.462  17.714  0.00  0.00    +0.000 A 
ATOM     23  C   UNL     1       3.413   5.457  18.670  0.00  0.00    +0.000 A 
BRANCH  18  25
ATOM     24  C   UNL     1       1.252   3.944  20.687  0.00  0.00    +0.000 C 
ATOM     25  O   UNL     1       2.357   4.827  20.834  0.00  0.00    +0.000 OA
ENDBRANCH  18  25
BRANCH  23  26
ATOM     26  O   UNL     1       4.034   4.257  18.458  0.00  0.00    +0.000 OA
ATOM     27  H   UNL     1       4.782   4.388  17.855  0.00  0.00    +0.000 HD
ENDBRANCH  23  26
ENDBRANCH  17  20
ENDBRANCH   1  17
BRANCH   6  28
ATOM     28  C   UNL     1      -1.142  10.431  18.459  0.00  0.00    +0.000 C 
BRANCH  28  29
ATOM     29  O   UNL     1      -0.675  11.695  18.013  0.00  0.00    +0.000 OA
ATOM     30  H   UNL     1       0.102  11.941  18.545  0.00  0.00    +0.000 HD
ENDBRANCH  28  29
ENDBRANCH   6  28
TORSDOF 9
ENDMDL
MODEL 4
REMARK VINA RESULT:      -7.5      2.982      4.908
REMARK  Name = 
REMARK  11 active torsions:
REMARK  status: ('A' for Active; 'I' for Inactive)
REMARK    1  A    between atoms: C_1  and  O_2
REMARK    2  A    between atoms: O_2  and  C_3
REMARK    3  A    between atoms: C_5  and  C_6
REMARK    4  A    between atoms: C_6  and  C_7
REMARK    5  A    between atoms: C_11  and  C_12
REMARK    6  A    between atoms: C_15  and  O_16
REMARK    7  A    between atoms: C_17  and  O_18
REMARK    8  A    between atoms: O_18  and  C_19
REMARK    9  A    between atoms: C_21  and  C_22
REMARK   10  A    between atoms: C_22  and  O_23
REMARK   11  A    between atoms: C_26  and  O_27
REMARK                            x       y       z     vdW  Elec       q    Type
REMARK                         _______ _______ _______ _____ _____    ______ ____
ROOT
ATOM      1  C   UNL     1       2.534   7.513  19.048  0.00  0.00    +0.000 C 
ATOM      2  C   UNL     1       2.546   8.229  17.730  0.00  0.00    +0.000 C 
ATOM      3  O   UNL     1       3.281   7.981  16.789  0.00  0.00    +0.000 OA
ATOM      4  O   UNL     1       1.604   9.204  17.695  0.00  0.00    +0.000 OA
ATOM      5  C   UNL     1       1.090   9.458  19.005  0.00  0.00    +0.000 C 
ATOM      6  C   UNL     1       1.895   8.575  19.952  0.00  0.00    +0.000 C 
ENDROOT
BRANCH   5   7
ATOM      7  C   UNL     1       1.257  10.943  19.276  0.00  0.00    +0.000 A 
ATOM      8  C   UNL     1       1.824  11.783  18.311  0.00  0.00    +0.000 A 
ATOM      9  C   UNL     1       1.939  13.159  18.536  0.00  0.00    +0.000 A 
ATOM     10  C   UNL     1       1.502  13.707  19.740  0.00  0.00    +0.000 A 
ATOM     11  C   UNL     1       0.945  12.891  20.730  0.00  0.00    +0.000 A 
ATOM     12  C   UNL     1       0.832  11.508  20.488  0.00  0.00    +0.000 A 
BRANCH  10  13
ATOM     13  O   UNL     1       1.634  15.059  19.908  0.00  0.00    +0.000 OA
ATOM     14  H   UNL     1       1.502  15.282  20.844  0.00  0.00    +0.000 HD
ENDBRANCH  10  13
BRANCH  11  15
ATOM     15  O   UNL     1       0.463  13.263  21.958  0.00  0.00    +0.000 OA
ATOM     16  C   UNL     1      -0.941  13.451  22.083  0.00  0.00    +0.000 C 
ENDBRANCH  11  15
ENDBRANCH   5   7
BRANCH   1  17
ATOM     17  C   UNL     1       1.827   6.160  18.879  0.00  0.00    +0.000 C 
BRANCH  17  20
ATOM     18  C   UNL     1       4.941   3.924  19.270  0.00  0.00    +0.000 A 
ATOM     19  C   UNL     1       4.112   5.038  19.037  0.00  0.00    +0.000 A 
ATOM     20  C   UNL     1       2.718   4.969  19.200  0.00  0.00    +0.000 A 
ATOM     21  C   UNL     1       2.164   3.768  19.658  0.00  0.00    +0.000 A 
ATOM     22  C   UNL     1       2.977   2.664  19.925  0.00  0.00    +0.000 A 
ATOM     23  C   UNL     1       4.356   2.734  19.714  0.00  0.00    +0.000 A 
BRANCH  18  25
ATOM     24  C   UNL     1       6.699   5.521  18.977  0.00  0.00    +0.000 C 
ATOM     25  O   UNL     1       6.266   4.167  19.010  0.00  0.00    +0.000 OA
ENDBRANCH  18  25
BRANCH  23  26
ATOM     26  O   UNL     1       5.099   1.610  19.952  0.00  0.00    +0.000 OA
ATOM     27  H   UNL     1       4.718   1.129  20.703  0.00  0.00    +0.000 HD
ENDBRANCH  23  26
ENDBRANCH  17  20
ENDBRANCH   1  17
BRANCH   6  28
ATOM     28  C   UNL     1       1.084   8.091  21.147  0.00  0.00    +0.000 C 
BRANCH  28  29
ATOM     29  O   UNL     1       1.620   8.631  22.346  0.00  0.00    +0.000 OA
ATOM     30  H   UNL     1       2.540   8.328  22.435  0.00  0.00    +0.000 HD
ENDBRANCH  28  29
ENDBRANCH   6  28
TORSDOF 9
ENDMDL
MODEL 5
REMARK VINA RESULT:      -7.5      1.641      3.490
REMARK  Name = 
REMARK  11 active torsions:
REMARK  status: ('A' for Active; 'I' for Inactive)
REMARK    1  A    between atoms: C_1  and  O_2
REMARK    2  A    between atoms: O_2  and  C_3
REMARK    3  A    between atoms: C_5  and  C_6
REMARK    4  A    between atoms: C_6  and  C_7
REMARK    5  A    between atoms: C_11  and  C_12
REMARK    6  A    between atoms: C_15  and  O_16
REMARK    7  A    between atoms: C_17  and  O_18
REMARK    8  A    between atoms: O_18  and  C_19
REMARK    9  A    between atoms: C_21  and  C_22
REMARK   10  A    between atoms: C_22  and  O_23
REMARK   11  A    between atoms: C_26  and  O_27
REMARK                            x       y       z     vdW  Elec       q    Type
REMARK                         _______ _______ _______ _____ _____    ______ ____
ROOT
ATOM      1  C   UNL     1       2.303   4.722  18.743  0.00  0.00    +0.000 C 
ATOM      2  C   UNL     1       1.354   4.521  19.887  0.00  0.00    +0.000 C 
ATOM      3  O   UNL     1       0.581   3.587  20.018  0.00  0.00    +0.000 OA
ATOM      4  O   UNL     1       1.470   5.517  20.800  0.00  0.00    +0.000 OA
ATOM      5  C   UNL     1       2.233   6.604  20.267  0.00  0.00    +0.000 C 
ATOM      6  C   UNL     1       2.535   6.237  18.818  0.00  0.00    +0.000 C 
ENDROOT
BRANCH   5   7
ATOM      7  C   UNL     1       1.390   7.859  20.408  0.00  0.00    +0.000 A 
ATOM      8  C   UNL     1       0.586   8.054  21.538  0.00  0.00    +0.000 A 
ATOM      9  C   UNL     1      -0.158   9.228  21.695  0.00  0.00    +0.000 A 
ATOM     10  C   UNL     1      -0.120  10.214  20.712  0.00  0.00    +0.000 A 
ATOM     11  C   UNL     1       0.662  10.042  19.565  0.00  0.00    +0.000 A 
ATOM     12  C   UNL     1       1.409   8.857  19.421  0.00  0.00    +0.000 A 
BRANCH  10  13
ATOM     13  O   UNL     1      -0.863  11.345  20.917  0.00  0.00    +0.000 OA
ATOM     14  H   UNL     1      -1.801  11.103  21.003  0.00  0.00    +0.000 HD
ENDBRANCH  10  13
BRANCH  11  15
ATOM     15  O   UNL     1       0.817  10.906  18.513  0.00  0.00    +0.000 OA
ATOM     16  C   UNL     1       1.812  11.915  18.632  0.00  0.00    +0.000 C 
ENDBRANCH  11  15
ENDBRANCH   5   7
BRANCH   1  17
ATOM     17  C   UNL     1       3.503   3.778  18.912  0.00  0.00    +0.000 C 
BRANCH  17  20
ATOM     18  C   UNL     1       6.918   4.687  17.377  0.00  0.00    +0.000 A 
ATOM     19  C   UNL     1       5.902   4.397  18.307  0.00  0.00    +0.000 A 
ATOM     20  C   UNL     1       4.611   4.022  17.898  0.00  0.00    +0.000 A 
ATOM     21  C   UNL     1       4.365   3.887  16.526  0.00  0.00    +0.000 A 
ATOM     22  C   UNL     1       5.372   4.139  15.593  0.00  0.00    +0.000 A 
ATOM     23  C   UNL     1       6.637   4.556  16.014  0.00  0.00    +0.000 A 
BRANCH  18  25
ATOM     24  C   UNL     1       8.018   5.953  19.085  0.00  0.00    +0.000 C 
ATOM     25  O   UNL     1       8.094   5.084  17.961  0.00  0.00    +0.000 OA
ENDBRANCH  18  25
BRANCH  23  26
ATOM     26  O   UNL     1       7.574   4.830  15.054  0.00  0.00    +0.000 OA
ATOM     27  H   UNL     1       7.989   5.684  15.250  0.00  0.00    +0.000 HD
ENDBRANCH  23  26
ENDBRANCH  17  20
ENDBRANCH   1  17
BRANCH   6  28
ATOM     28  C   UNL     1       3.879   6.771  18.339  0.00  0.00    +0.000 C 
BRANCH  28  29
ATOM     29  O   UNL     1       3.725   7.396  17.073  0.00  0.00    +0.000 OA
ATOM     30  H   UNL     1       4.586   7.384  16.618  0.00  0.00    +0.000 HD
ENDBRANCH  28  29
ENDBRANCH   6  28
TORSDOF 9
ENDMDL
MODEL 6
REMARK VINA RESULT:      -7.5      2.547      5.124
REMARK  Name = 
REMARK  11 active torsions:
REMARK  status: ('A' for Active; 'I' for Inactive)
REMARK    1  A    between atoms: C_1  and  O_2
REMARK    2  A    between atoms: O_2  and  C_3
REMARK    3  A    between atoms: C_5  and  C_6
REMARK    4  A    between atoms: C_6  and  C_7
REMARK    5  A    between atoms: C_11  and  C_12
REMARK    6  A    between atoms: C_15  and  O_16
REMARK    7  A    between atoms: C_17  and  O_18
REMARK    8  A    between atoms: O_18  and  C_19
REMARK    9  A    between atoms: C_21  and  C_22
REMARK   10  A    between atoms: C_22  and  O_23
REMARK   11  A    between atoms: C_26  and  O_27
REMARK                            x       y       z     vdW  Elec       q    Type
REMARK                         _______ _______ _______ _____ _____    ______ ____
ROOT
ATOM      1  C   UNL     1       2.081   7.916  19.991  0.00  0.00    +0.000 C 
ATOM      2  C   UNL     1       2.055   8.394  18.569  0.00  0.00    +0.000 C 
ATOM      3  O   UNL     1       2.849   8.084  17.698  0.00  0.00    +0.000 OA
ATOM      4  O   UNL     1       1.005   9.223  18.351  0.00  0.00    +0.000 OA
ATOM      5  C   UNL     1       0.415   9.629  19.589  0.00  0.00    +0.000 C 
ATOM      6  C   UNL     1       1.285   9.028  20.688  0.00  0.00    +0.000 C 
ENDROOT
BRANCH   5   7
ATOM      7  C   UNL     1       0.391  11.147  19.602  0.00  0.00    +0.000 A 
ATOM      8  C   UNL     1      -0.414  11.854  18.700  0.00  0.00    +0.000 A 
ATOM      9  C   UNL     1      -0.475  13.251  18.737  0.00  0.00    +0.000 A 
ATOM     10  C   UNL     1       0.284  13.958  19.666  0.00  0.00    +0.000 A 
ATOM     11  C   UNL     1       1.109  13.281  20.570  0.00  0.00    +0.000 A 
ATOM     12  C   UNL     1       1.158  11.874  20.525  0.00  0.00    +0.000 A 
BRANCH  10  13
ATOM     13  O   UNL     1       0.185  15.323  19.661  0.00  0.00    +0.000 OA
ATOM     14  H   UNL     1      -0.671  15.585  20.041  0.00  0.00    +0.000 HD
ENDBRANCH  10  13
BRANCH  11  15
ATOM     15  O   UNL     1       1.910  13.815  21.544  0.00  0.00    +0.000 OA
ATOM     16  C   UNL     1       3.231  14.194  21.176  0.00  0.00    +0.000 C 
ENDBRANCH  11  15
ENDBRANCH   5   7
BRANCH   1  17
ATOM     17  C   UNL     1       1.549   6.476  20.047  0.00  0.00    +0.000 C 
BRANCH  17  20
ATOM     18  C   UNL     1       4.608   4.417  18.928  0.00  0.00    +0.000 A 
ATOM     19  C   UNL     1       3.771   5.288  19.651  0.00  0.00    +0.000 A 
ATOM     20  C   UNL     1       2.424   5.481  19.299  0.00  0.00    +0.000 A 
ATOM     21  C   UNL     1       1.906   4.737  18.232  0.00  0.00    +0.000 A 
ATOM     22  C   UNL     1       2.715   3.844  17.526  0.00  0.00    +0.000 A 
ATOM     23  C   UNL     1       4.064   3.698  17.858  0.00  0.00    +0.000 A 
BRANCH  18  25
ATOM     24  C   UNL     1       6.724   5.522  19.096  0.00  0.00    +0.000 C 
ATOM     25  O   UNL     1       5.901   4.398  19.386  0.00  0.00    +0.000 OA
ENDBRANCH  18  25
BRANCH  23  26
ATOM     26  O   UNL     1       4.821   2.842  17.106  0.00  0.00    +0.000 OA
ATOM     27  H   UNL     1       4.808   3.134  16.181  0.00  0.00    +0.000 HD
ENDBRANCH  23  26
ENDBRANCH  17  20
ENDBRANCH   1  17
BRANCH   6  28
ATOM     28  C   UNL     1       0.494   8.656  21.935  0.00  0.00    +0.000 C 
BRANCH  28  29
ATOM     29  O   UNL     1       0.903   9.467  23.026  0.00  0.00    +0.000 OA
ATOM     30  H   UNL     1       1.875   9.445  23.078  0.00  0.00    +0.000 HD
ENDBRANCH  28  29
ENDBRANCH   6  28
TORSDOF 9
ENDMDL
MODEL 7
REMARK VINA RESULT:      -7.5      3.543      9.837
REMARK  Name = 
REMARK  11 active torsions:
REMARK  status: ('A' for Active; 'I' for Inactive)
REMARK    1  A    between atoms: C_1  and  O_2
REMARK    2  A    between atoms: O_2  and  C_3
REMARK    3  A    between atoms: C_5  and  C_6
REMARK    4  A    between atoms: C_6  and  C_7
REMARK    5  A    between atoms: C_11  and  C_12
REMARK    6  A    between atoms: C_15  and  O_16
REMARK    7  A    between atoms: C_17  and  O_18
REMARK    8  A    between atoms: O_18  and  C_19
REMARK    9  A    between atoms: C_21  and  C_22
REMARK   10  A    between atoms: C_22  and  O_23
REMARK   11  A    between atoms: C_26  and  O_27
REMARK                            x       y       z     vdW  Elec       q    Type
REMARK                         _______ _______ _______ _____ _____    ______ ____
ROOT
ATOM      1  C   UNL     1      -0.471  10.021  20.456  0.00  0.00    +0.000 C 
ATOM      2  C   UNL     1      -0.002  10.057  19.031  0.00  0.00    +0.000 C 
ATOM      3  O   UNL     1      -0.634  10.487  18.082  0.00  0.00    +0.000 OA
ATOM      4  O   UNL     1       1.253   9.557  18.917  0.00  0.00    +0.000 OA
ATOM      5  C   UNL     1       1.638   8.878  20.116  0.00  0.00    +0.000 C 
ATOM      6  C   UNL     1       0.416   8.908  21.028  0.00  0.00    +0.000 C 
ENDROOT
BRANCH   5   7
ATOM      7  C   UNL     1       2.064   7.474  19.724  0.00  0.00    +0.000 A 
ATOM      8  C   UNL     1       2.637   7.228  18.471  0.00  0.00    +0.000 A 
ATOM      9  C   UNL     1       3.073   5.946  18.120  0.00  0.00    +0.000 A 
ATOM     10  C   UNL     1       2.922   4.890  19.016  0.00  0.00    +0.000 A 
ATOM     11  C   UNL     1       2.339   5.101  20.270  0.00  0.00    +0.000 A 
ATOM     12  C   UNL     1       1.909   6.397  20.611  0.00  0.00    +0.000 A 
BRANCH  10  13
ATOM     13  O   UNL     1       3.369   3.656  18.625  0.00  0.00    +0.000 OA
ATOM     14  H   UNL     1       2.632   3.024  18.650  0.00  0.00    +0.000 HD
ENDBRANCH  10  13
BRANCH  11  15
ATOM     15  O   UNL     1       2.122   4.184  21.264  0.00  0.00    +0.000 OA
ATOM     16  C   UNL     1       1.212   3.125  20.995  0.00  0.00    +0.000 C 
ENDBRANCH  11  15
ENDBRANCH   5   7
BRANCH   1  17
ATOM     17  C   UNL     1      -0.370  11.432  21.054  0.00  0.00    +0.000 C 
BRANCH  17  20
ATOM     18  C   UNL     1      -3.836  13.089  21.363  0.00  0.00    +0.000 A 
ATOM     19  C   UNL     1      -2.646  12.562  20.826  0.00  0.00    +0.000 A 
ATOM     20  C   UNL     1      -1.683  11.936  21.636  0.00  0.00    +0.000 A 
ATOM     21  C   UNL     1      -1.958  11.795  23.002  0.00  0.00    +0.000 A 
ATOM     22  C   UNL     1      -3.148  12.283  23.544  0.00  0.00    +0.000 A 
ATOM     23  C   UNL     1      -4.075  12.944  22.733  0.00  0.00    +0.000 A 
BRANCH  18  25
ATOM     24  C   UNL     1      -5.628  12.925  19.786  0.00  0.00    +0.000 C 
ATOM     25  O   UNL     1      -4.628  13.706  20.430  0.00  0.00    +0.000 OA
ENDBRANCH  18  25
BRANCH  23  26
ATOM     26  O   UNL     1      -5.205  13.440  23.325  0.00  0.00    +0.000 OA
ATOM     27  H   UNL     1      -5.340  14.356  23.036  0.00  0.00    +0.000 HD
ENDBRANCH  23  26
ENDBRANCH  17  20
ENDBRANCH   1  17
BRANCH   6  28
ATOM     28  C   UNL     1       0.780   8.983  22.505  0.00  0.00    +0.000 C 
BRANCH  28  29
ATOM     29  O   UNL     1       2.143   9.350  22.649  0.00  0.00    +0.000 OA
ATOM     30  H   UNL     1       2.406   9.870  21.869  0.00  0.00    +0.000 HD
ENDBRANCH  28  29
ENDBRANCH   6  28
TORSDOF 9
ENDMDL
MODEL 8
REMARK VINA RESULT:      -7.5      3.773      6.990
REMARK  Name = 
REMARK  11 active torsions:
REMARK  status: ('A' for Active; 'I' for Inactive)
REMARK    1  A    between atoms: C_1  and  O_2
REMARK    2  A    between atoms: O_2  and  C_3
REMARK    3  A    between atoms: C_5  and  C_6
REMARK    4  A    between atoms: C_6  and  C_7
REMARK    5  A    between atoms: C_11  and  C_12
REMARK    6  A    between atoms: C_15  and  O_16
REMARK    7  A    between atoms: C_17  and  O_18
REMARK    8  A    between atoms: O_18  and  C_19
REMARK    9  A    between atoms: C_21  and  C_22
REMARK   10  A    between atoms: C_22  and  O_23
REMARK   11  A    between atoms: C_26  and  O_27
REMARK                            x       y       z     vdW  Elec       q    Type
REMARK                         _______ _______ _______ _____ _____    ______ ____
ROOT
ATOM      1  C   UNL     1       0.191   9.739  19.834  0.00  0.00    +0.000 C 
ATOM      2  C   UNL     1       0.544  10.564  21.036  0.00  0.00    +0.000 C 
ATOM      3  O   UNL     1       1.276  10.220  21.948  0.00  0.00    +0.000 OA
ATOM      4  O   UNL     1      -0.049  11.782  20.984  0.00  0.00    +0.000 OA
ATOM      5  C   UNL     1      -1.057  11.811  19.969  0.00  0.00    +0.000 C 
ATOM      6  C   UNL     1      -1.127  10.397  19.404  0.00  0.00    +0.000 C 
ENDROOT
BRANCH   5   7
ATOM      7  C   UNL     1      -2.348  12.263  20.628  0.00  0.00    +0.000 A 
ATOM      8  C   UNL     1      -3.494  12.503  19.860  0.00  0.00    +0.000 A 
ATOM      9  C   UNL     1      -4.699  12.874  20.466  0.00  0.00    +0.000 A 
ATOM     10  C   UNL     1      -4.766  13.028  21.849  0.00  0.00    +0.000 A 
ATOM     11  C   UNL     1      -3.634  12.810  22.642  0.00  0.00    +0.000 A 
ATOM     12  C   UNL     1      -2.429  12.432  22.019  0.00  0.00    +0.000 A 
BRANCH  10  13
ATOM     13  O   UNL     1      -5.969  13.389  22.391  0.00  0.00    +0.000 OA
ATOM     14  H   UNL     1      -6.056  12.994  23.275  0.00  0.00    +0.000 HD
ENDBRANCH  10  13
BRANCH  11  15
ATOM     15  O   UNL     1      -3.527  12.909  24.004  0.00  0.00    +0.000 OA
ATOM     16  C   UNL     1      -3.237  14.191  24.548  0.00  0.00    +0.000 C 
ENDBRANCH  11  15
ENDBRANCH   5   7
BRANCH   1  17
ATOM     17  C   UNL     1       1.375   9.743  18.857  0.00  0.00    +0.000 C 
BRANCH  17  20
ATOM     18  C   UNL     1       2.573   6.175  19.687  0.00  0.00    +0.000 A 
ATOM     19  C   UNL     1       1.875   7.398  19.726  0.00  0.00    +0.000 A 
ATOM     20  C   UNL     1       2.085   8.399  18.763  0.00  0.00    +0.000 A 
ATOM     21  C   UNL     1       2.974   8.134  17.715  0.00  0.00    +0.000 A 
ATOM     22  C   UNL     1       3.649   6.914  17.644  0.00  0.00    +0.000 A 
ATOM     23  C   UNL     1       3.465   5.946  18.634  0.00  0.00    +0.000 A 
BRANCH  18  25
ATOM     24  C   UNL     1       1.249   4.378  20.547  0.00  0.00    +0.000 C 
ATOM     25  O   UNL     1       2.276   5.344  20.736  0.00  0.00    +0.000 OA
ENDBRANCH  18  25
BRANCH  23  26
ATOM     26  O   UNL     1       4.183   4.785  18.537  0.00  0.00    +0.000 OA
ATOM     27  H   UNL     1       4.307   4.564  17.601  0.00  0.00    +0.000 HD
ENDBRANCH  23  26
ENDBRANCH  17  20
ENDBRANCH   1  17
BRANCH   6  28
ATOM     28  C   UNL     1      -1.483  10.366  17.924  0.00  0.00    +0.000 C 
BRANCH  28  29
ATOM     29  O   UNL     1      -1.231  11.636  17.340  0.00  0.00    +0.000 OA
ATOM     30  H   UNL     1      -2.082  12.025  17.073  0.00  0.00    +0.000 HD
ENDBRANCH  28  29
ENDBRANCH   6  28
TORSDOF 9
ENDMDL
MODEL 9
REMARK VINA RESULT:      -7.5      2.532      5.142
REMARK  Name = 
REMARK  11 active torsions:
REMARK  status: ('A' for Active; 'I' for Inactive)
REMARK    1  A    between atoms: C_1  and  O_2
REMARK    2  A    between atoms: O_2  and  C_3
REMARK    3  A    between atoms: C_5  and  C_6
REMARK    4  A    between atoms: C_6  and  C_7
REMARK    5  A    between atoms: C_11  and  C_12
REMARK    6  A    between atoms: C_15  and  O_16
REMARK    7  A    between atoms: C_17  and  O_18
REMARK    8  A    between atoms: O_18  and  C_19
REMARK    9  A    between atoms: C_21  and  C_22
REMARK   10  A    between atoms: C_22  and  O_23
REMARK   11  A    between atoms: C_26  and  O_27
REMARK                            x       y       z     vdW  Elec       q    Type
REMARK                         _______ _______ _______ _____ _____    ______ ____
ROOT
ATOM      1  C   UNL     1       2.156   8.138  19.592  0.00  0.00    +0.000 C 
ATOM      2  C   UNL     1       1.975   8.494  18.146  0.00  0.00    +0.000 C 
ATOM      3  O   UNL     1       2.744   8.219  17.241  0.00  0.00    +0.000 OA
ATOM      4  O   UNL     1       0.812   9.163  17.949  0.00  0.00    +0.000 OA
ATOM      5  C   UNL     1       0.256   9.588  19.198  0.00  0.00    +0.000 C 
ATOM      6  C   UNL     1       1.268   9.191  20.267  0.00  0.00    +0.000 C 
ENDROOT
BRANCH   5   7
ATOM      7  C   UNL     1       0.032  11.087  19.105  0.00  0.00    +0.000 A 
ATOM      8  C   UNL     1      -1.225  11.638  19.380  0.00  0.00    +0.000 A 
ATOM      9  C   UNL     1      -1.426  13.022  19.342  0.00  0.00    +0.000 A 
ATOM     10  C   UNL     1      -0.373  13.870  19.008  0.00  0.00    +0.000 A 
ATOM     11  C   UNL     1       0.892  13.348  18.714  0.00  0.00    +0.000 A 
ATOM     12  C   UNL     1       1.081  11.954  18.760  0.00  0.00    +0.000 A 
BRANCH  10  13
ATOM     13  O   UNL     1      -0.622  15.215  18.988  0.00  0.00    +0.000 OA
ATOM     14  H   UNL     1      -1.172  15.430  18.217  0.00  0.00    +0.000 HD
ENDBRANCH  10  13
BRANCH  11  15
ATOM     15  O   UNL     1       2.029  14.034  18.376  0.00  0.00    +0.000 OA
ATOM     16  C   UNL     1       3.007  14.224  19.391  0.00  0.00    +0.000 C 
ENDBRANCH  11  15
ENDBRANCH   5   7
BRANCH   1  17
ATOM     17  C   UNL     1       1.825   6.651  19.788  0.00  0.00    +0.000 C 
BRANCH  17  20
ATOM     18  C   UNL     1       5.044   4.789  18.778  0.00  0.00    +0.000 A 
ATOM     19  C   UNL     1       4.127   5.601  19.474  0.00  0.00    +0.000 A 
ATOM     20  C   UNL     1       2.787   5.718  19.068  0.00  0.00    +0.000 A 
ATOM     21  C   UNL     1       2.359   4.958  17.973  0.00  0.00    +0.000 A 
ATOM     22  C   UNL     1       3.247   4.123  17.292  0.00  0.00    +0.000 A 
ATOM     23  C   UNL     1       4.588   4.053  17.679  0.00  0.00    +0.000 A 
BRANCH  18  25
ATOM     24  C   UNL     1       7.228   5.764  18.707  0.00  0.00    +0.000 C 
ATOM     25  O   UNL     1       6.315   4.841  19.289  0.00  0.00    +0.000 OA
ENDBRANCH  18  25
BRANCH  23  26
ATOM     26  O   UNL     1       5.425   3.251  16.951  0.00  0.00    +0.000 OA
ATOM     27  H   UNL     1       5.759   3.750  16.189  0.00  0.00    +0.000 HD
ENDBRANCH  23  26
ENDBRANCH  17  20
ENDBRANCH   1  17
BRANCH   6  28
ATOM     28  C   UNL     1       0.616   8.821  21.593  0.00  0.00    +0.000 C 
BRANCH  28  29
ATOM     29  O   UNL     1       1.301   9.459  22.661  0.00  0.00    +0.000 OA
ATOM     30  H   UNL     1       1.078  10.406  22.647  0.00  0.00    +0.000 HD
ENDBRANCH  28  29
ENDBRANCH   6  28
TORSDOF 9
ENDMDL
