MODEL 1
REMARK VINA RESULT:      -8.4      0.000      0.000
REMARK  Name = 
REMARK  8 active torsions:
REMARK  status: ('A' for Active; 'I' for Inactive)
REMARK    1  A    between atoms: C_1  and  C_2
REMARK    2  A    between atoms: C_5  and  S_6
REMARK    3  A    between atoms: S_6  and  N_9
REMARK    4  A    between atoms: C_13  and  C_15
REMARK    5  A    between atoms: C_15  and  N_16
REMARK    6  A    between atoms: N_23  and  C_24
REMARK    7  A    between atoms: N_27  and  C_28
REMARK    8  A    between atoms: C_32  and  C_33
REMARK                            x       y       z     vdW  Elec       q    Type
REMARK                         _______ _______ _______ _____ _____    ______ ____
ROOT
ATOM      1  N   UNL     1       3.205   4.868  17.912  0.00  0.00    +0.000 NA
ATOM      2  C   UNL     1       2.031   4.697  18.800  0.00  0.00    +0.000 C 
ATOM      3  C   UNL     1       2.111   5.647  19.998  0.00  0.00    +0.000 C 
ATOM      4  N   UNL     1       2.240   7.045  19.567  0.00  0.00    +0.000 N 
ATOM      5  C   UNL     1       1.608   8.019  20.330  0.00  0.00    +0.000 C 
ATOM      6  O   UNL     1       0.883   7.724  21.287  0.00  0.00    +0.000 OA
ATOM      7  C   UNL     1       3.342   7.297  18.625  0.00  0.00    +0.000 C 
ATOM      8  C   UNL     1       3.443   6.268  17.484  0.00  0.00    +0.000 C 
ENDROOT
BRANCH   1   9
ATOM      9  S   UNL     1       4.503   3.806  18.084  0.00  0.00    +0.000 S 
ATOM     10  O   UNL     1       3.985   2.464  17.927  0.00  0.00    +0.000 OA
ATOM     11  O   UNL     1       5.274   4.190  19.246  0.00  0.00    +0.000 OA
BRANCH   9  16
ATOM     12  C   UNL     1       7.834   5.241  13.181  0.00  0.00    +0.000 C 
ATOM     13  C   UNL     1       7.008   4.854  14.380  0.00  0.00    +0.000 A 
ATOM     14  C   UNL     1       7.408   5.284  15.657  0.00  0.00    +0.000 A 
ATOM     15  C   UNL     1       6.659   4.961  16.793  0.00  0.00    +0.000 A 
ATOM     16  C   UNL     1       5.501   4.198  16.655  0.00  0.00    +0.000 A 
ATOM     17  C   UNL     1       5.080   3.768  15.390  0.00  0.00    +0.000 A 
ATOM     18  C   UNL     1       5.828   4.092  14.244  0.00  0.00    +0.000 A 
ATOM     19  C   UNL     1       5.341   3.643  12.892  0.00  0.00    +0.000 C 
ENDBRANCH   9  16
ENDBRANCH   1   9
BRANCH   5  20
ATOM     20  C   UNL     1       1.729   9.476  19.924  0.00  0.00    +0.000 C 
BRANCH  20  21
ATOM     21  N   UNL     1       0.540   9.966  19.247  0.00  0.00    +0.000 N 
ATOM     22  C   UNL     1       0.095   9.578  18.007  0.00  0.00    +0.000 A 
ATOM     23  N   UNL     1      -1.066  10.124  17.709  0.00  0.00    +0.000 NA
ATOM     24  C   UNL     1      -1.382  10.868  18.801  0.00  0.00    +0.000 A 
ATOM     25  C   UNL     1      -0.411  10.813  19.755  0.00  0.00    +0.000 A 
ATOM     26  C   UNL     1      -0.506  11.512  20.990  0.00  0.00    +0.000 A 
ATOM     27  O   UNL     1       0.379  11.478  21.841  0.00  0.00    +0.000 OA
ATOM     28  N   UNL     1      -1.692  12.242  21.117  0.00  0.00    +0.000 N 
ATOM     29  C   UNL     1      -1.904  13.002  22.332  0.00  0.00    +0.000 C 
ATOM     30  C   UNL     1      -2.726  12.305  20.158  0.00  0.00    +0.000 A 
ATOM     31  O   UNL     1      -3.748  12.963  20.369  0.00  0.00    +0.000 OA
ATOM     32  N   UNL     1      -2.537  11.594  18.974  0.00  0.00    +0.000 N 
ATOM     33  C   UNL     1      -3.562  11.582  17.946  0.00  0.00    +0.000 C 
ENDBRANCH  20  21
ENDBRANCH   5  20
TORSDOF 4
ENDMDL
MODEL 2
REMARK VINA RESULT:      -8.3      1.135      2.130
REMARK  Name = 
REMARK  8 active torsions:
REMARK  status: ('A' for Active; 'I' for Inactive)
REMARK    1  A    between atoms: C_1  and  C_2
REMARK    2  A    between atoms: C_5  and  S_6
REMARK    3  A    between atoms: S_6  and  N_9
REMARK    4  A    between atoms: C_13  and  C_15
REMARK    5  A    between atoms: C_15  and  N_16
REMARK    6  A    between atoms: N_23  and  C_24
REMARK    7  A    between atoms: N_27  and  C_28
REMARK    8  A    between atoms: C_32  and  C_33
REMARK                            x       y       z     vdW  Elec       q    Type
REMARK                         _______ _______ _______ _____ _____    ______ ____
ROOT
ATOM      1  N   UNL     1       3.206   4.807  18.006  0.00  0.00    +0.000 NA
ATOM      2  C   UNL     1       2.069   4.666  18.945  0.00  0.00    +0.000 C 
ATOM      3  C   UNL     1       2.158   5.702  20.070  0.00  0.00    +0.000 C 
ATOM      4  N   UNL     1       2.228   7.069  19.535  0.00  0.00    +0.000 N 
ATOM      5  C   UNL     1       1.591   8.076  20.250  0.00  0.00    +0.000 C 
ATOM      6  O   UNL     1       0.909   7.830  21.250  0.00  0.00    +0.000 OA
ATOM      7  C   UNL     1       3.289   7.284  18.539  0.00  0.00    +0.000 C 
ATOM      8  C   UNL     1       3.385   6.178  17.471  0.00  0.00    +0.000 C 
ENDROOT
BRANCH   1   9
ATOM      9  S   UNL     1       4.542   3.799  18.207  0.00  0.00    +0.000 S 
ATOM     10  O   UNL     1       4.074   2.434  18.090  0.00  0.00    +0.000 OA
ATOM     11  O   UNL     1       5.299   4.244  19.356  0.00  0.00    +0.000 OA
BRANCH   9  16
ATOM     12  C   UNL     1       7.824   5.220  13.267  0.00  0.00    +0.000 C 
ATOM     13  C   UNL     1       7.008   4.837  14.475  0.00  0.00    +0.000 A 
ATOM     14  C   UNL     1       7.446   5.229  15.751  0.00  0.00    +0.000 A 
ATOM     15  C   UNL     1       6.709   4.909  16.895  0.00  0.00    +0.000 A 
ATOM     16  C   UNL     1       5.525   4.186  16.767  0.00  0.00    +0.000 A 
ATOM     17  C   UNL     1       5.066   3.793  15.502  0.00  0.00    +0.000 A 
ATOM     18  C   UNL     1       5.803   4.116  14.348  0.00  0.00    +0.000 A 
ATOM     19  C   UNL     1       5.276   3.708  12.997  0.00  0.00    +0.000 C 
ENDBRANCH   9  16
ENDBRANCH   1   9
BRANCH   5  20
ATOM     20  C   UNL     1       1.652   9.503  19.736  0.00  0.00    +0.000 C 
BRANCH  20  21
ATOM     21  N   UNL     1       0.462  10.267  20.072  0.00  0.00    +0.000 N 
ATOM     22  C   UNL     1       0.260  10.988  21.224  0.00  0.00    +0.000 A 
ATOM     23  N   UNL     1      -0.874  11.656  21.192  0.00  0.00    +0.000 NA
ATOM     24  C   UNL     1      -1.404  11.369  19.974  0.00  0.00    +0.000 A 
ATOM     25  C   UNL     1      -0.623  10.504  19.268  0.00  0.00    +0.000 A 
ATOM     26  C   UNL     1      -0.964  10.047  17.966  0.00  0.00    +0.000 A 
ATOM     27  O   UNL     1      -0.269   9.252  17.339  0.00  0.00    +0.000 OA
ATOM     28  N   UNL     1      -2.166  10.584  17.493  0.00  0.00    +0.000 N 
ATOM     29  C   UNL     1      -2.624  10.190  16.177  0.00  0.00    +0.000 C 
ATOM     30  C   UNL     1      -2.988  11.496  18.189  0.00  0.00    +0.000 A 
ATOM     31  O   UNL     1      -4.025  11.931  17.681  0.00  0.00    +0.000 OA
ATOM     32  N   UNL     1      -2.575  11.878  19.465  0.00  0.00    +0.000 N 
ATOM     33  C   UNL     1      -3.348  12.834  20.238  0.00  0.00    +0.000 C 
ENDBRANCH  20  21
ENDBRANCH   5  20
TORSDOF 4
ENDMDL
MODEL 3
REMARK VINA RESULT:      -8.3      1.659      2.768
REMARK  Name = 
REMARK  8 active torsions:
REMARK  status: ('A' for Active; 'I' for Inactive)
REMARK    1  A    between atoms: C_1  and  C_2
REMARK    2  A    between atoms: C_5  and  S_6
REMARK    3  A    between atoms: S_6  and  N_9
REMARK    4  A    between atoms: C_13  and  C_15
REMARK    5  A    between atoms: C_15  and  N_16
REMARK    6  A    between atoms: N_23  and  C_24
REMARK    7  A    between atoms: N_27  and  C_28
REMARK    8  A    between atoms: C_32  and  C_33
REMARK                            x       y       z     vdW  Elec       q    Type
REMARK                         _______ _______ _______ _____ _____    ______ ____
ROOT
ATOM      1  N   UNL     1       1.837   4.117  18.910  0.00  0.00    +0.000 NA
ATOM      2  C   UNL     1       1.290   4.425  20.252  0.00  0.00    +0.000 C 
ATOM      3  C   UNL     1       1.926   5.695  20.823  0.00  0.00    +0.000 C 
ATOM      4  N   UNL     1       1.753   6.836  19.914  0.00  0.00    +0.000 N 
ATOM      5  C   UNL     1       1.555   8.090  20.480  0.00  0.00    +0.000 C 
ATOM      6  O   UNL     1       1.434   8.238  21.701  0.00  0.00    +0.000 OA
ATOM      7  C   UNL     1       2.208   6.596  18.536  0.00  0.00    +0.000 C 
ATOM      8  C   UNL     1       1.760   5.244  17.950  0.00  0.00    +0.000 C 
ENDROOT
BRANCH   1   9
ATOM      9  S   UNL     1       3.089   2.993  18.792  0.00  0.00    +0.000 S 
ATOM     10  O   UNL     1       2.780   2.121  17.678  0.00  0.00    +0.000 OA
ATOM     11  O   UNL     1       3.375   2.468  20.109  0.00  0.00    +0.000 OA
BRANCH   9  16
ATOM     12  C   UNL     1       7.748   6.600  17.216  0.00  0.00    +0.000 C 
ATOM     13  C   UNL     1       6.607   5.685  17.583  0.00  0.00    +0.000 A 
ATOM     14  C   UNL     1       6.256   5.535  18.935  0.00  0.00    +0.000 A 
ATOM     15  C   UNL     1       5.193   4.709  19.316  0.00  0.00    +0.000 A 
ATOM     16  C   UNL     1       4.476   4.022  18.338  0.00  0.00    +0.000 A 
ATOM     17  C   UNL     1       4.805   4.165  16.984  0.00  0.00    +0.000 A 
ATOM     18  C   UNL     1       5.871   4.997  16.596  0.00  0.00    +0.000 A 
ATOM     19  C   UNL     1       6.189   5.157  15.132  0.00  0.00    +0.000 C 
ENDBRANCH   9  16
ENDBRANCH   1   9
BRANCH   5  20
ATOM     20  C   UNL     1       1.386   9.295  19.574  0.00  0.00    +0.000 C 
BRANCH  20  21
ATOM     21  N   UNL     1       0.217  10.090  19.917  0.00  0.00    +0.000 N 
ATOM     22  C   UNL     1       0.025  10.788  21.083  0.00  0.00    +0.000 A 
ATOM     23  N   UNL     1      -1.086  11.493  21.056  0.00  0.00    +0.000 NA
ATOM     24  C   UNL     1      -1.611  11.254  19.826  0.00  0.00    +0.000 A 
ATOM     25  C   UNL     1      -0.850  10.382  19.107  0.00  0.00    +0.000 A 
ATOM     26  C   UNL     1      -1.191   9.968  17.790  0.00  0.00    +0.000 A 
ATOM     27  O   UNL     1      -0.516   9.166  17.151  0.00  0.00    +0.000 OA
ATOM     28  N   UNL     1      -2.370  10.556  17.319  0.00  0.00    +0.000 N 
ATOM     29  C   UNL     1      -2.826  10.209  15.988  0.00  0.00    +0.000 C 
ATOM     30  C   UNL     1      -3.170  11.476  18.029  0.00  0.00    +0.000 A 
ATOM     31  O   UNL     1      -4.187  11.957  17.520  0.00  0.00    +0.000 OA
ATOM     32  N   UNL     1      -2.759  11.813  19.318  0.00  0.00    +0.000 N 
ATOM     33  C   UNL     1      -3.509  12.774  20.106  0.00  0.00    +0.000 C 
ENDBRANCH  20  21
ENDBRANCH   5  20
TORSDOF 4
ENDMDL
MODEL 4
REMARK VINA RESULT:      -8.2      1.169      1.894
REMARK  Name = 
REMARK  8 active torsions:
REMARK  status: ('A' for Active; 'I' for Inactive)
REMARK    1  A    between atoms: C_1  and  C_2
REMARK    2  A    between atoms: C_5  and  S_6
REMARK    3  A    between atoms: S_6  and  N_9
REMARK    4  A    between atoms: C_13  and  C_15
REMARK    5  A    between atoms: C_15  and  N_16
REMARK    6  A    between atoms: N_23  and  C_24
REMARK    7  A    between atoms: N_27  and  C_28
REMARK    8  A    between atoms: C_32  and  C_33
REMARK                            x       y       z     vdW  Elec       q    Type
REMARK                         _______ _______ _______ _____ _____    ______ ____
ROOT
ATOM      1  N   UNL     1       1.852   4.465  19.019  0.00  0.00    +0.000 NA
ATOM      2  C   UNL     1       0.965   4.766  20.167  0.00  0.00    +0.000 C 
ATOM      3  C   UNL     1       1.508   5.944  20.981  0.00  0.00    +0.000 C 
ATOM      4  N   UNL     1       1.698   7.134  20.141  0.00  0.00    +0.000 N 
ATOM      5  C   UNL     1       1.445   8.376  20.712  0.00  0.00    +0.000 C 
ATOM      6  O   UNL     1       0.988   8.483  21.855  0.00  0.00    +0.000 OA
ATOM      7  C   UNL     1       2.512   6.910  18.937  0.00  0.00    +0.000 C 
ATOM      8  C   UNL     1       2.147   5.634  18.156  0.00  0.00    +0.000 C 
ENDROOT
BRANCH   1   9
ATOM      9  S   UNL     1       2.989   3.231  19.185  0.00  0.00    +0.000 S 
ATOM     10  O   UNL     1       2.402   2.027  18.637  0.00  0.00    +0.000 OA
ATOM     11  O   UNL     1       3.530   3.268  20.526  0.00  0.00    +0.000 OA
BRANCH   9  16
ATOM     12  C   UNL     1       7.506   4.976  15.477  0.00  0.00    +0.000 C 
ATOM     13  C   UNL     1       6.393   4.575  16.411  0.00  0.00    +0.000 A 
ATOM     14  C   UNL     1       5.242   3.964  15.884  0.00  0.00    +0.000 A 
ATOM     15  C   UNL     1       4.195   3.561  16.718  0.00  0.00    +0.000 A 
ATOM     16  C   UNL     1       4.293   3.773  18.092  0.00  0.00    +0.000 A 
ATOM     17  C   UNL     1       5.436   4.373  18.638  0.00  0.00    +0.000 A 
ATOM     18  C   UNL     1       6.494   4.777  17.803  0.00  0.00    +0.000 A 
ATOM     19  C   UNL     1       7.724   5.393  18.415  0.00  0.00    +0.000 C 
ENDBRANCH   9  16
ENDBRANCH   1   9
BRANCH   5  20
ATOM     20  C   UNL     1       1.643   9.629  19.881  0.00  0.00    +0.000 C 
BRANCH  20  21
ATOM     21  N   UNL     1       0.416  10.070  19.238  0.00  0.00    +0.000 N 
ATOM     22  C   UNL     1      -0.098   9.593  18.057  0.00  0.00    +0.000 A 
ATOM     23  N   UNL     1      -1.275  10.117  17.786  0.00  0.00    +0.000 NA
ATOM     24  C   UNL     1      -1.530  10.940  18.837  0.00  0.00    +0.000 A 
ATOM     25  C   UNL     1      -0.507  10.954  19.736  0.00  0.00    +0.000 A 
ATOM     26  C   UNL     1      -0.533  11.742  20.919  0.00  0.00    +0.000 A 
ATOM     27  O   UNL     1       0.399  11.769  21.718  0.00  0.00    +0.000 OA
ATOM     28  N   UNL     1      -1.712  12.482  21.059  0.00  0.00    +0.000 N 
ATOM     29  C   UNL     1      -1.856  13.330  22.225  0.00  0.00    +0.000 C 
ATOM     30  C   UNL     1      -2.798  12.476  20.158  0.00  0.00    +0.000 A 
ATOM     31  O   UNL     1      -3.808  13.150  20.378  0.00  0.00    +0.000 OA
ATOM     32  N   UNL     1      -2.676  11.679  19.021  0.00  0.00    +0.000 N 
ATOM     33  C   UNL     1      -3.757  11.593  18.057  0.00  0.00    +0.000 C 
ENDBRANCH  20  21
ENDBRANCH   5  20
TORSDOF 4
ENDMDL
MODEL 5
REMARK VINA RESULT:      -8.1      2.276      3.080
REMARK  Name = 
REMARK  8 active torsions:
REMARK  status: ('A' for Active; 'I' for Inactive)
REMARK    1  A    between atoms: C_1  and  C_2
REMARK    2  A    between atoms: C_5  and  S_6
REMARK    3  A    between atoms: S_6  and  N_9
REMARK    4  A    between atoms: C_13  and  C_15
REMARK    5  A    between atoms: C_15  and  N_16
REMARK    6  A    between atoms: N_23  and  C_24
REMARK    7  A    between atoms: N_27  and  C_28
REMARK    8  A    between atoms: C_32  and  C_33
REMARK                            x       y       z     vdW  Elec       q    Type
REMARK                         _______ _______ _______ _____ _____    ______ ____
ROOT
ATOM      1  N   UNL     1       1.886   3.936  19.169  0.00  0.00    +0.000 NA
ATOM      2  C   UNL     1       1.448   4.546  20.446  0.00  0.00    +0.000 C 
ATOM      3  C   UNL     1       2.135   5.896  20.671  0.00  0.00    +0.000 C 
ATOM      4  N   UNL     1       1.899   6.811  19.546  0.00  0.00    +0.000 N 
ATOM      5  C   UNL     1       1.755   8.164  19.832  0.00  0.00    +0.000 C 
ATOM      6  O   UNL     1       1.731   8.582  20.994  0.00  0.00    +0.000 OA
ATOM      7  C   UNL     1       2.242   6.262  18.226  0.00  0.00    +0.000 C 
ATOM      8  C   UNL     1       1.741   4.824  17.991  0.00  0.00    +0.000 C 
ENDROOT
BRANCH   1   9
ATOM      9  S   UNL     1       3.116   2.785  19.211  0.00  0.00    +0.000 S 
ATOM     10  O   UNL     1       2.633   1.612  18.511  0.00  0.00    +0.000 OA
ATOM     11  O   UNL     1       3.638   2.701  20.557  0.00  0.00    +0.000 OA
BRANCH   9  16
ATOM     12  C   UNL     1       7.526   5.317  15.843  0.00  0.00    +0.000 C 
ATOM     13  C   UNL     1       6.433   4.721  16.693  0.00  0.00    +0.000 A 
ATOM     14  C   UNL     1       5.439   3.936  16.082  0.00  0.00    +0.000 A 
ATOM     15  C   UNL     1       4.419   3.351  16.838  0.00  0.00    +0.000 A 
ATOM     16  C   UNL     1       4.385   3.554  18.216  0.00  0.00    +0.000 A 
ATOM     17  C   UNL     1       5.371   4.325  18.845  0.00  0.00    +0.000 A 
ATOM     18  C   UNL     1       6.402   4.913  18.090  0.00  0.00    +0.000 A 
ATOM     19  C   UNL     1       7.467   5.715  18.791  0.00  0.00    +0.000 C 
ENDBRANCH   9  16
ENDBRANCH   1   9
BRANCH   5  20
ATOM     20  C   UNL     1       1.523   9.142  18.696  0.00  0.00    +0.000 C 
BRANCH  20  21
ATOM     21  N   UNL     1       0.593  10.201  19.053  0.00  0.00    +0.000 N 
ATOM     22  C   UNL     1      -0.634  10.036  19.646  0.00  0.00    +0.000 A 
ATOM     23  N   UNL     1      -1.197  11.190  19.939  0.00  0.00    +0.000 NA
ATOM     24  C   UNL     1      -0.292  12.121  19.538  0.00  0.00    +0.000 A 
ATOM     25  C   UNL     1       0.809  11.553  18.971  0.00  0.00    +0.000 A 
ATOM     26  C   UNL     1       1.896  12.318  18.468  0.00  0.00    +0.000 A 
ATOM     27  O   UNL     1       2.878  11.806  17.938  0.00  0.00    +0.000 OA
ATOM     28  N   UNL     1       1.717  13.696  18.627  0.00  0.00    +0.000 N 
ATOM     29  C   UNL     1       2.758  14.584  18.147  0.00  0.00    +0.000 C 
ATOM     30  C   UNL     1       0.600  14.316  19.226  0.00  0.00    +0.000 A 
ATOM     31  O   UNL     1       0.541  15.543  19.339  0.00  0.00    +0.000 OA
ATOM     32  N   UNL     1      -0.421  13.483  19.681  0.00  0.00    +0.000 N 
ATOM     33  C   UNL     1      -1.592  14.036  20.336  0.00  0.00    +0.000 C 
ENDBRANCH  20  21
ENDBRANCH   5  20
TORSDOF 4
ENDMDL
MODEL 6
REMARK VINA RESULT:      -8.0      1.590      2.893
REMARK  Name = 
REMARK  8 active torsions:
REMARK  status: ('A' for Active; 'I' for Inactive)
REMARK    1  A    between atoms: C_1  and  C_2
REMARK    2  A    between atoms: C_5  and  S_6
REMARK    3  A    between atoms: S_6  and  N_9
REMARK    4  A    between atoms: C_13  and  C_15
REMARK    5  A    between atoms: C_15  and  N_16
REMARK    6  A    between atoms: N_23  and  C_24
REMARK    7  A    between atoms: N_27  and  C_28
REMARK    8  A    between atoms: C_32  and  C_33
REMARK                            x       y       z     vdW  Elec       q    Type
REMARK                         _______ _______ _______ _____ _____    ______ ____
ROOT
ATOM      1  N   UNL     1       1.916   4.010  19.075  0.00  0.00    +0.000 NA
ATOM      2  C   UNL     1       1.273   4.337  20.369  0.00  0.00    +0.000 C 
ATOM      3  C   UNL     1       1.885   5.601  20.979  0.00  0.00    +0.000 C 
ATOM      4  N   UNL     1       1.802   6.738  20.052  0.00  0.00    +0.000 N 
ATOM      5  C   UNL     1       1.582   7.999  20.594  0.00  0.00    +0.000 C 
ATOM      6  O   UNL     1       1.371   8.158  21.800  0.00  0.00    +0.000 OA
ATOM      7  C   UNL     1       2.356   6.480  18.715  0.00  0.00    +0.000 C 
ATOM      8  C   UNL     1       1.932   5.131  18.105  0.00  0.00    +0.000 C 
ENDROOT
BRANCH   1   9
ATOM      9  S   UNL     1       3.154   2.865  19.060  0.00  0.00    +0.000 S 
ATOM     10  O   UNL     1       2.654   1.700  18.360  0.00  0.00    +0.000 OA
ATOM     11  O   UNL     1       3.719   2.766  20.387  0.00  0.00    +0.000 OA
BRANCH   9  16
ATOM     12  C   UNL     1       7.435   5.467  15.581  0.00  0.00    +0.000 C 
ATOM     13  C   UNL     1       6.376   4.852  16.460  0.00  0.00    +0.000 A 
ATOM     14  C   UNL     1       5.315   4.146  15.867  0.00  0.00    +0.000 A 
ATOM     15  C   UNL     1       4.323   3.547  16.648  0.00  0.00    +0.000 A 
ATOM     16  C   UNL     1       4.385   3.656  18.036  0.00  0.00    +0.000 A 
ATOM     17  C   UNL     1       5.439   4.348  18.647  0.00  0.00    +0.000 A 
ATOM     18  C   UNL     1       6.442   4.950  17.866  0.00  0.00    +0.000 A 
ATOM     19  C   UNL     1       7.580   5.664  18.546  0.00  0.00    +0.000 C 
ENDBRANCH   9  16
ENDBRANCH   1   9
BRANCH   5  20
ATOM     20  C   UNL     1       1.503   9.200  19.670  0.00  0.00    +0.000 C 
BRANCH  20  21
ATOM     21  N   UNL     1       0.361  10.051  19.959  0.00  0.00    +0.000 N 
ATOM     22  C   UNL     1       0.183  10.813  21.088  0.00  0.00    +0.000 A 
ATOM     23  N   UNL     1      -0.902  11.555  21.014  0.00  0.00    +0.000 NA
ATOM     24  C   UNL     1      -1.424  11.273  19.791  0.00  0.00    +0.000 A 
ATOM     25  C   UNL     1      -0.688  10.340  19.125  0.00  0.00    +0.000 A 
ATOM     26  C   UNL     1      -1.032   9.873  17.827  0.00  0.00    +0.000 A 
ATOM     27  O   UNL     1      -0.380   9.017  17.235  0.00  0.00    +0.000 OA
ATOM     28  N   UNL     1      -2.185  10.477  17.314  0.00  0.00    +0.000 N 
ATOM     29  C   UNL     1      -2.641  10.080  15.997  0.00  0.00    +0.000 C 
ATOM     30  C   UNL     1      -2.958  11.460  17.968  0.00  0.00    +0.000 A 
ATOM     31  O   UNL     1      -3.952  11.950  17.426  0.00  0.00    +0.000 OA
ATOM     32  N   UNL     1      -2.547  11.847  19.243  0.00  0.00    +0.000 N 
ATOM     33  C   UNL     1      -3.269  12.872  19.975  0.00  0.00    +0.000 C 
ENDBRANCH  20  21
ENDBRANCH   5  20
TORSDOF 4
ENDMDL
MODEL 7
REMARK VINA RESULT:      -8.0      1.255      2.153
REMARK  Name = 
REMARK  8 active torsions:
REMARK  status: ('A' for Active; 'I' for Inactive)
REMARK    1  A    between atoms: C_1  and  C_2
REMARK    2  A    between atoms: C_5  and  S_6
REMARK    3  A    between atoms: S_6  and  N_9
REMARK    4  A    between atoms: C_13  and  C_15
REMARK    5  A    between atoms: C_15  and  N_16
REMARK    6  A    between atoms: N_23  and  C_24
REMARK    7  A    between atoms: N_27  and  C_28
REMARK    8  A    between atoms: C_32  and  C_33
REMARK                            x       y       z     vdW  Elec       q    Type
REMARK                         _______ _______ _______ _____ _____    ______ ____
ROOT
ATOM      1  N   UNL     1       3.395   4.817  17.641  0.00  0.00    +0.000 NA
ATOM      2  C   UNL     1       2.087   4.504  18.263  0.00  0.00    +0.000 C 
ATOM      3  C   UNL     1       2.004   5.081  19.679  0.00  0.00    +0.000 C 
ATOM      4  N   UNL     1       2.252   6.529  19.683  0.00  0.00    +0.000 N 
ATOM      5  C   UNL     1       1.539   7.305  20.590  0.00  0.00    +0.000 C 
ATOM      6  O   UNL     1       0.659   6.819  21.307  0.00  0.00    +0.000 OA
ATOM      7  C   UNL     1       3.500   6.939  19.023  0.00  0.00    +0.000 C 
ATOM      8  C   UNL     1       3.750   6.256  17.665  0.00  0.00    +0.000 C 
ENDROOT
BRANCH   1   9
ATOM      9  S   UNL     1       4.609   3.648  17.695  0.00  0.00    +0.000 S 
ATOM     10  O   UNL     1       3.983   2.365  17.455  0.00  0.00    +0.000 OA
ATOM     11  O   UNL     1       5.436   3.881  18.858  0.00  0.00    +0.000 OA
BRANCH   9  16
ATOM     12  C   UNL     1       7.913   5.182  12.803  0.00  0.00    +0.000 C 
ATOM     13  C   UNL     1       7.094   4.771  14.000  0.00  0.00    +0.000 A 
ATOM     14  C   UNL     1       7.475   5.214  15.278  0.00  0.00    +0.000 A 
ATOM     15  C   UNL     1       6.732   4.869  16.411  0.00  0.00    +0.000 A 
ATOM     16  C   UNL     1       5.600   4.070  16.270  0.00  0.00    +0.000 A 
ATOM     17  C   UNL     1       5.198   3.624  15.004  0.00  0.00    +0.000 A 
ATOM     18  C   UNL     1       5.940   3.971  13.860  0.00  0.00    +0.000 A 
ATOM     19  C   UNL     1       5.473   3.505  12.506  0.00  0.00    +0.000 C 
ENDBRANCH   9  16
ENDBRANCH   1   9
BRANCH   5  20
ATOM     20  C   UNL     1       1.777   8.803  20.633  0.00  0.00    +0.000 C 
BRANCH  20  21
ATOM     21  N   UNL     1       0.779   9.503  21.425  0.00  0.00    +0.000 N 
ATOM     22  C   UNL     1       0.715   9.544  22.796  0.00  0.00    +0.000 A 
ATOM     23  N   UNL     1      -0.242  10.344  23.219  0.00  0.00    +0.000 NA
ATOM     24  C   UNL     1      -0.794  10.844  22.082  0.00  0.00    +0.000 A 
ATOM     25  C   UNL     1      -0.208  10.335  20.963  0.00  0.00    +0.000 A 
ATOM     26  C   UNL     1      -0.612  10.700  19.650  0.00  0.00    +0.000 A 
ATOM     27  O   UNL     1      -0.098  10.225  18.641  0.00  0.00    +0.000 OA
ATOM     28  N   UNL     1      -1.655  11.633  19.636  0.00  0.00    +0.000 N 
ATOM     29  C   UNL     1      -2.159  12.081  18.353  0.00  0.00    +0.000 C 
ATOM     30  C   UNL     1      -2.270  12.195  20.775  0.00  0.00    +0.000 A 
ATOM     31  O   UNL     1      -3.173  13.028  20.662  0.00  0.00    +0.000 OA
ATOM     32  N   UNL     1      -1.812  11.767  22.020  0.00  0.00    +0.000 N 
ATOM     33  C   UNL     1      -2.370  12.314  23.243  0.00  0.00    +0.000 C 
ENDBRANCH  20  21
ENDBRANCH   5  20
TORSDOF 4
ENDMDL
MODEL 8
REMARK VINA RESULT:      -8.0      1.149      1.463
REMARK  Name = 
REMARK  8 active torsions:
REMARK  status: ('A' for Active; 'I' for Inactive)
REMARK    1  A    between atoms: C_1  and  C_2
REMARK    2  A    between atoms: C_5  and  S_6
REMARK    3  A    between atoms: S_6  and  N_9
REMARK    4  A    between atoms: C_13  and  C_15
REMARK    5  A    between atoms: C_15  and  N_16
REMARK    6  A    between atoms: N_23  and  C_24
REMARK    7  A    between atoms: N_27  and  C_28
REMARK    8  A    between atoms: C_32  and  C_33
REMARK                            x       y       z     vdW  Elec       q    Type
REMARK                         _______ _______ _______ _____ _____    ______ ____
ROOT
ATOM      1  N   UNL     1       1.816   4.219  18.940  0.00  0.00    +0.000 NA
ATOM      2  C   UNL     1       1.036   4.603  20.140  0.00  0.00    +0.000 C 
ATOM      3  C   UNL     1       1.667   5.810  20.838  0.00  0.00    +0.000 C 
ATOM      4  N   UNL     1       1.807   6.948  19.920  0.00  0.00    +0.000 N 
ATOM      5  C   UNL     1       1.627   8.225  20.439  0.00  0.00    +0.000 C 
ATOM      6  O   UNL     1       1.270   8.404  21.608  0.00  0.00    +0.000 OA
ATOM      7  C   UNL     1       2.512   6.641  18.666  0.00  0.00    +0.000 C 
ATOM      8  C   UNL     1       2.058   5.332  17.992  0.00  0.00    +0.000 C 
ENDROOT
BRANCH   1   9
ATOM      9  S   UNL     1       2.940   2.971  19.080  0.00  0.00    +0.000 S 
ATOM     10  O   UNL     1       2.415   1.834  18.352  0.00  0.00    +0.000 OA
ATOM     11  O   UNL     1       3.352   2.860  20.462  0.00  0.00    +0.000 OA
BRANCH   9  16
ATOM     12  C   UNL     1       7.651   5.300  15.984  0.00  0.00    +0.000 C 
ATOM     13  C   UNL     1       6.487   4.697  16.728  0.00  0.00    +0.000 A 
ATOM     14  C   UNL     1       6.460   4.766  18.132  0.00  0.00    +0.000 A 
ATOM     15  C   UNL     1       5.391   4.233  18.858  0.00  0.00    +0.000 A 
ATOM     16  C   UNL     1       4.338   3.622  18.180  0.00  0.00    +0.000 A 
ATOM     17  C   UNL     1       4.342   3.551  16.780  0.00  0.00    +0.000 A 
ATOM     18  C   UNL     1       5.414   4.087  16.044  0.00  0.00    +0.000 A 
ATOM     19  C   UNL     1       5.383   4.025  14.540  0.00  0.00    +0.000 C 
ENDBRANCH   9  16
ENDBRANCH   1   9
BRANCH   5  20
ATOM     20  C   UNL     1       1.777   9.426  19.525  0.00  0.00    +0.000 C 
BRANCH  20  21
ATOM     21  N   UNL     1       0.495   9.957  19.089  0.00  0.00    +0.000 N 
ATOM     22  C   UNL     1      -0.224   9.542  17.995  0.00  0.00    +0.000 A 
ATOM     23  N   UNL     1      -1.394  10.143  17.920  0.00  0.00    +0.000 NA
ATOM     24  C   UNL     1      -1.430  10.953  19.010  0.00  0.00    +0.000 A 
ATOM     25  C   UNL     1      -0.281  10.882  19.739  0.00  0.00    +0.000 A 
ATOM     26  C   UNL     1      -0.073  11.639  20.924  0.00  0.00    +0.000 A 
ATOM     27  O   UNL     1       0.971  11.589  21.568  0.00  0.00    +0.000 OA
ATOM     28  N   UNL     1      -1.167  12.445  21.258  0.00  0.00    +0.000 N 
ATOM     29  C   UNL     1      -1.074  13.270  22.446  0.00  0.00    +0.000 C 
ATOM     30  C   UNL     1      -2.377  12.528  20.538  0.00  0.00    +0.000 A 
ATOM     31  O   UNL     1      -3.296  13.256  20.924  0.00  0.00    +0.000 OA
ATOM     32  N   UNL     1      -2.484  11.754  19.383  0.00  0.00    +0.000 N 
ATOM     33  C   UNL     1      -3.705  11.759  18.599  0.00  0.00    +0.000 C 
ENDBRANCH  20  21
ENDBRANCH   5  20
TORSDOF 4
ENDMDL
MODEL 9
REMARK VINA RESULT:      -7.9      2.230      2.891
REMARK  Name = 
REMARK  8 active torsions:
REMARK  status: ('A' for Active; 'I' for Inactive)
REMARK    1  A    between atoms: C_1  and  C_2
REMARK    2  A    between atoms: C_5  and  S_6
REMARK    3  A    between atoms: S_6  and  N_9
REMARK    4  A    between atoms: C_13  and  C_15
REMARK    5  A    between atoms: C_15  and  N_16
REMARK    6  A    between atoms: N_23  and  C_24
REMARK    7  A    between atoms: N_27  and  C_28
REMARK    8  A    between atoms: C_32  and  C_33
REMARK                            x       y       z     vdW  Elec       q    Type
REMARK                         _______ _______ _______ _____ _____    ______ ____
ROOT
ATOM      1  N   UNL     1       2.007   3.961  18.978  0.00  0.00    +0.000 NA
ATOM      2  C   UNL     1       1.567   4.492  20.289  0.00  0.00    +0.000 C 
ATOM      3  C   UNL     1       2.192   5.863  20.560  0.00  0.00    +0.000 C 
ATOM      4  N   UNL     1       1.887   6.813  19.482  0.00  0.00    +0.000 N 
ATOM      5  C   UNL     1       1.682   8.143  19.831  0.00  0.00    +0.000 C 
ATOM      6  O   UNL     1       1.663   8.508  21.011  0.00  0.00    +0.000 OA
ATOM      7  C   UNL     1       2.228   6.339  18.133  0.00  0.00    +0.000 C 
ATOM      8  C   UNL     1       1.793   4.891  17.844  0.00  0.00    +0.000 C 
ENDROOT
BRANCH   1   9
ATOM      9  S   UNL     1       3.293   2.871  18.944  0.00  0.00    +0.000 S 
ATOM     10  O   UNL     1       3.011   1.905  17.903  0.00  0.00    +0.000 OA
ATOM     11  O   UNL     1       3.597   2.460  20.297  0.00  0.00    +0.000 OA
BRANCH   9  16
ATOM     12  C   UNL     1       7.833   6.489  17.076  0.00  0.00    +0.000 C 
ATOM     13  C   UNL     1       6.723   5.570  17.517  0.00  0.00    +0.000 A 
ATOM     14  C   UNL     1       6.382   5.509  18.879  0.00  0.00    +0.000 A 
ATOM     15  C   UNL     1       5.347   4.682  19.326  0.00  0.00    +0.000 A 
ATOM     16  C   UNL     1       4.646   3.904  18.406  0.00  0.00    +0.000 A 
ATOM     17  C   UNL     1       4.965   3.957  17.043  0.00  0.00    +0.000 A 
ATOM     18  C   UNL     1       6.003   4.790  16.588  0.00  0.00    +0.000 A 
ATOM     19  C   UNL     1       6.308   4.852  15.114  0.00  0.00    +0.000 C 
ENDBRANCH   9  16
ENDBRANCH   1   9
BRANCH   5  20
ATOM     20  C   UNL     1       1.378   9.157  18.744  0.00  0.00    +0.000 C 
BRANCH  20  21
ATOM     21  N   UNL     1       0.508  10.226  19.208  0.00  0.00    +0.000 N 
ATOM     22  C   UNL     1      -0.664  10.072  19.905  0.00  0.00    +0.000 A 
ATOM     23  N   UNL     1      -1.173  11.230  20.273  0.00  0.00    +0.000 NA
ATOM     24  C   UNL     1      -0.286  12.152  19.812  0.00  0.00    +0.000 A 
ATOM     25  C   UNL     1       0.746  11.575  19.136  0.00  0.00    +0.000 A 
ATOM     26  C   UNL     1       1.801  12.329  18.553  0.00  0.00    +0.000 A 
ATOM     27  O   UNL     1       2.720  11.810  17.926  0.00  0.00    +0.000 OA
ATOM     28  N   UNL     1       1.668  13.707  18.758  0.00  0.00    +0.000 N 
ATOM     29  C   UNL     1       2.681  14.584  18.207  0.00  0.00    +0.000 C 
ATOM     30  C   UNL     1       0.624  14.335  19.470  0.00  0.00    +0.000 A 
ATOM     31  O   UNL     1       0.602  15.560  19.615  0.00  0.00    +0.000 OA
ATOM     32  N   UNL     1      -0.371  13.512  19.996  0.00  0.00    +0.000 N 
ATOM     33  C   UNL     1      -1.466  14.074  20.766  0.00  0.00    +0.000 C 
ENDBRANCH  20  21
ENDBRANCH   5  20
TORSDOF 4
ENDMDL
