MODEL 1
REMARK VINA RESULT:      -8.1      0.000      0.000
REMARK  Name = 
REMARK  5 active torsions:
REMARK  status: ('A' for Active; 'I' for Inactive)
REMARK    1  A    between atoms: C_1  and  C_2
REMARK    2  A    between atoms: C_5  and  S_6
REMARK    3  A    between atoms: S_6  and  N_9
REMARK    4  A    between atoms: N_12  and  C_13
REMARK    5  A    between atoms: C_13  and  C_14
REMARK                            x       y       z     vdW  Elec       q    Type
REMARK                         _______ _______ _______ _____ _____    ______ ____
ROOT
ATOM      1  N   UNL     1       4.203   5.621  18.352  0.00  0.00    +0.000 NA
ATOM      2  C   UNL     1       4.199   5.553  16.877  0.00  0.00    +0.000 C 
ATOM      3  C   UNL     1       5.366   6.419  16.356  0.00  0.00    +0.000 C 
ATOM      4  N   UNL     1       6.701   6.026  16.884  0.00  0.00    +0.000 NA
ATOM      5  C   UNL     1       6.625   5.995  18.371  0.00  0.00    +0.000 C 
ATOM      6  C   UNL     1       5.469   5.146  18.955  0.00  0.00    +0.000 C 
ENDROOT
BRANCH   1   7
ATOM      7  S   UNL     1       2.763   5.491  19.177  0.00  0.00    +0.000 S 
ATOM      8  O   UNL     1       3.047   4.933  20.482  0.00  0.00    +0.000 OA
ATOM      9  O   UNL     1       1.786   4.873  18.305  0.00  0.00    +0.000 OA
BRANCH   7  14
ATOM     10  C   UNL     1      -0.047  10.767  19.670  0.00  0.00    +0.000 C 
ATOM     11  C   UNL     1       0.875   9.584  19.626  0.00  0.00    +0.000 A 
ATOM     12  C   UNL     1       1.583   9.273  18.459  0.00  0.00    +0.000 A 
ATOM     13  C   UNL     1       2.269   8.064  18.355  0.00  0.00    +0.000 A 
ATOM     14  C   UNL     1       2.262   7.179  19.434  0.00  0.00    +0.000 A 
ATOM     15  C   UNL     1       1.664   7.534  20.647  0.00  0.00    +0.000 A 
ATOM     16  C   UNL     1       0.984   8.747  20.745  0.00  0.00    +0.000 A 
ENDBRANCH   7  14
ENDBRANCH   1   7
BRANCH   4  17
ATOM     17  C   UNL     1       7.089   4.718  16.314  0.00  0.00    +0.000 C 
BRANCH  17  18
ATOM     18  C   UNL     1       7.049   4.626  14.809  0.00  0.00    +0.000 A 
ATOM     19  C   UNL     1       6.175   3.754  14.171  0.00  0.00    +0.000 A 
ATOM     20  C   UNL     1       6.218   3.655  12.783  0.00  0.00    +0.000 A 
ATOM     21  C   UNL     1       7.129   4.432  12.074  0.00  0.00    +0.000 A 
ATOM     22  C   UNL     1       7.947   5.294  12.783  0.00  0.00    +0.000 A 
ATOM     23  N   UNL     1       7.927   5.410  14.128  0.00  0.00    +0.000 NA
ENDBRANCH  17  18
ENDBRANCH   4  17
TORSDOF 4
ENDMDL
MODEL 2
REMARK VINA RESULT:      -7.6      3.094      7.470
REMARK  Name = 
REMARK  5 active torsions:
REMARK  status: ('A' for Active; 'I' for Inactive)
REMARK    1  A    between atoms: C_1  and  C_2
REMARK    2  A    between atoms: C_5  and  S_6
REMARK    3  A    between atoms: S_6  and  N_9
REMARK    4  A    between atoms: N_12  and  C_13
REMARK    5  A    between atoms: C_13  and  C_14
REMARK                            x       y       z     vdW  Elec       q    Type
REMARK                         _______ _______ _______ _____ _____    ______ ____
ROOT
ATOM      1  N   UNL     1       5.695   5.874  17.293  0.00  0.00    +0.000 NA
ATOM      2  C   UNL     1       5.153   4.878  18.239  0.00  0.00    +0.000 C 
ATOM      3  C   UNL     1       4.338   5.632  19.311  0.00  0.00    +0.000 C 
ATOM      4  N   UNL     1       3.237   6.470  18.763  0.00  0.00    +0.000 NA
ATOM      5  C   UNL     1       3.810   7.378  17.731  0.00  0.00    +0.000 C 
ATOM      6  C   UNL     1       4.646   6.680  16.630  0.00  0.00    +0.000 C 
ENDROOT
BRANCH   1   7
ATOM      7  S   UNL     1       7.147   5.573  16.537  0.00  0.00    +0.000 S 
ATOM      8  O   UNL     1       7.776   4.456  17.210  0.00  0.00    +0.000 OA
ATOM      9  O   UNL     1       7.850   6.828  16.372  0.00  0.00    +0.000 OA
BRANCH   7  14
ATOM     10  C   UNL     1       6.186   2.616  11.408  0.00  0.00    +0.000 C 
ATOM     11  C   UNL     1       6.288   3.556  12.573  0.00  0.00    +0.000 A 
ATOM     12  C   UNL     1       7.358   4.454  12.675  0.00  0.00    +0.000 A 
ATOM     13  C   UNL     1       7.563   5.172  13.853  0.00  0.00    +0.000 A 
ATOM     14  C   UNL     1       6.677   5.004  14.918  0.00  0.00    +0.000 A 
ATOM     15  C   UNL     1       5.537   4.206  14.782  0.00  0.00    +0.000 A 
ATOM     16  C   UNL     1       5.336   3.495  13.600  0.00  0.00    +0.000 A 
ENDBRANCH   7  14
ENDBRANCH   1   7
BRANCH   4  17
ATOM     17  C   UNL     1       2.178   5.594  18.215  0.00  0.00    +0.000 C 
BRANCH  17  18
ATOM     18  C   UNL     1       1.837   4.386  19.050  0.00  0.00    +0.000 A 
ATOM     19  C   UNL     1       1.473   4.522  20.385  0.00  0.00    +0.000 A 
ATOM     20  C   UNL     1       1.230   3.374  21.135  0.00  0.00    +0.000 A 
ATOM     21  C   UNL     1       1.353   2.127  20.530  0.00  0.00    +0.000 A 
ATOM     22  C   UNL     1       1.694   2.080  19.189  0.00  0.00    +0.000 A 
ATOM     23  N   UNL     1       1.935   3.176  18.439  0.00  0.00    +0.000 NA
ENDBRANCH  17  18
ENDBRANCH   4  17
TORSDOF 4
ENDMDL
MODEL 3
REMARK VINA RESULT:      -7.4      3.042      7.309
REMARK  Name = 
REMARK  5 active torsions:
REMARK  status: ('A' for Active; 'I' for Inactive)
REMARK    1  A    between atoms: C_1  and  C_2
REMARK    2  A    between atoms: C_5  and  S_6
REMARK    3  A    between atoms: S_6  and  N_9
REMARK    4  A    between atoms: N_12  and  C_13
REMARK    5  A    between atoms: C_13  and  C_14
REMARK                            x       y       z     vdW  Elec       q    Type
REMARK                         _______ _______ _______ _____ _____    ______ ____
ROOT
ATOM      1  N   UNL     1       5.633   5.941  17.625  0.00  0.00    +0.000 NA
ATOM      2  C   UNL     1       5.020   5.011  18.595  0.00  0.00    +0.000 C 
ATOM      3  C   UNL     1       4.062   5.822  19.494  0.00  0.00    +0.000 C 
ATOM      4  N   UNL     1       3.004   6.558  18.750  0.00  0.00    +0.000 NA
ATOM      5  C   UNL     1       3.660   7.394  17.707  0.00  0.00    +0.000 C 
ATOM      6  C   UNL     1       4.640   6.637  16.776  0.00  0.00    +0.000 C 
ENDROOT
BRANCH   1   7
ATOM      7  S   UNL     1       7.171   5.637  17.066  0.00  0.00    +0.000 S 
ATOM      8  O   UNL     1       7.817   4.744  18.005  0.00  0.00    +0.000 OA
ATOM      9  O   UNL     1       7.785   6.895  16.700  0.00  0.00    +0.000 OA
BRANCH   7  14
ATOM     10  C   UNL     1       5.344   3.329  11.840  0.00  0.00    +0.000 C 
ATOM     11  C   UNL     1       5.985   3.708  13.143  0.00  0.00    +0.000 A 
ATOM     12  C   UNL     1       5.528   3.162  14.349  0.00  0.00    +0.000 A 
ATOM     13  C   UNL     1       5.979   3.670  15.566  0.00  0.00    +0.000 A 
ATOM     14  C   UNL     1       6.908   4.711  15.569  0.00  0.00    +0.000 A 
ATOM     15  C   UNL     1       7.463   5.179  14.374  0.00  0.00    +0.000 A 
ATOM     16  C   UNL     1       7.011   4.662  13.161  0.00  0.00    +0.000 A 
ENDBRANCH   7  14
ENDBRANCH   1   7
BRANCH   4  17
ATOM     17  C   UNL     1       2.044   5.591  18.174  0.00  0.00    +0.000 C 
BRANCH  17  18
ATOM     18  C   UNL     1       1.775   4.365  19.010  0.00  0.00    +0.000 A 
ATOM     19  C   UNL     1       1.372   4.481  20.336  0.00  0.00    +0.000 A 
ATOM     20  C   UNL     1       1.197   3.323  21.088  0.00  0.00    +0.000 A 
ATOM     21  C   UNL     1       1.427   2.085  20.495  0.00  0.00    +0.000 A 
ATOM     22  C   UNL     1       1.802   2.056  19.163  0.00  0.00    +0.000 A 
ATOM     23  N   UNL     1       1.978   3.162  18.410  0.00  0.00    +0.000 NA
ENDBRANCH  17  18
ENDBRANCH   4  17
TORSDOF 4
ENDMDL
MODEL 4
REMARK VINA RESULT:      -7.4      3.124      7.424
REMARK  Name = 
REMARK  5 active torsions:
REMARK  status: ('A' for Active; 'I' for Inactive)
REMARK    1  A    between atoms: C_1  and  C_2
REMARK    2  A    between atoms: C_5  and  S_6
REMARK    3  A    between atoms: S_6  and  N_9
REMARK    4  A    between atoms: N_12  and  C_13
REMARK    5  A    between atoms: C_13  and  C_14
REMARK                            x       y       z     vdW  Elec       q    Type
REMARK                         _______ _______ _______ _____ _____    ______ ____
ROOT
ATOM      1  N   UNL     1       5.701   5.904  17.277  0.00  0.00    +0.000 NA
ATOM      2  C   UNL     1       5.110   4.890  18.172  0.00  0.00    +0.000 C 
ATOM      3  C   UNL     1       4.308   5.628  19.266  0.00  0.00    +0.000 C 
ATOM      4  N   UNL     1       3.246   6.529  18.741  0.00  0.00    +0.000 NA
ATOM      5  C   UNL     1       3.865   7.457  17.756  0.00  0.00    +0.000 C 
ATOM      6  C   UNL     1       4.691   6.776  16.636  0.00  0.00    +0.000 C 
ENDROOT
BRANCH   1   7
ATOM      7  S   UNL     1       7.151   5.582  16.526  0.00  0.00    +0.000 S 
ATOM      8  O   UNL     1       7.766   4.463  17.208  0.00  0.00    +0.000 OA
ATOM      9  O   UNL     1       7.867   6.828  16.354  0.00  0.00    +0.000 OA
BRANCH   7  14
ATOM     10  C   UNL     1       6.175   2.602  11.413  0.00  0.00    +0.000 C 
ATOM     11  C   UNL     1       6.281   3.548  12.573  0.00  0.00    +0.000 A 
ATOM     12  C   UNL     1       7.356   4.441  12.670  0.00  0.00    +0.000 A 
ATOM     13  C   UNL     1       7.564   5.164  13.844  0.00  0.00    +0.000 A 
ATOM     14  C   UNL     1       6.678   5.006  14.910  0.00  0.00    +0.000 A 
ATOM     15  C   UNL     1       5.534   4.213  14.779  0.00  0.00    +0.000 A 
ATOM     16  C   UNL     1       5.329   3.497  13.600  0.00  0.00    +0.000 A 
ENDBRANCH   7  14
ENDBRANCH   1   7
BRANCH   4  17
ATOM     17  C   UNL     1       2.163   5.716  18.144  0.00  0.00    +0.000 C 
BRANCH  17  18
ATOM     18  C   UNL     1       1.822   4.445  18.880  0.00  0.00    +0.000 A 
ATOM     19  C   UNL     1       1.771   3.227  18.213  0.00  0.00    +0.000 A 
ATOM     20  C   UNL     1       1.388   2.090  18.919  0.00  0.00    +0.000 A 
ATOM     21  C   UNL     1       1.071   2.202  20.270  0.00  0.00    +0.000 A 
ATOM     22  C   UNL     1       1.171   3.447  20.865  0.00  0.00    +0.000 A 
ATOM     23  N   UNL     1       1.540   4.566  20.205  0.00  0.00    +0.000 NA
ENDBRANCH  17  18
ENDBRANCH   4  17
TORSDOF 4
ENDMDL
MODEL 5
REMARK VINA RESULT:      -7.4      0.448      1.104
REMARK  Name = 
REMARK  5 active torsions:
REMARK  status: ('A' for Active; 'I' for Inactive)
REMARK    1  A    between atoms: C_1  and  C_2
REMARK    2  A    between atoms: C_5  and  S_6
REMARK    3  A    between atoms: S_6  and  N_9
REMARK    4  A    between atoms: N_12  and  C_13
REMARK    5  A    between atoms: C_13  and  C_14
REMARK                            x       y       z     vdW  Elec       q    Type
REMARK                         _______ _______ _______ _____ _____    ______ ____
ROOT
ATOM      1  N   UNL     1       4.314   5.530  18.287  0.00  0.00    +0.000 NA
ATOM      2  C   UNL     1       4.224   5.325  16.828  0.00  0.00    +0.000 C 
ATOM      3  C   UNL     1       5.172   6.334  16.144  0.00  0.00    +0.000 C 
ATOM      4  N   UNL     1       6.589   6.238  16.589  0.00  0.00    +0.000 NA
ATOM      5  C   UNL     1       6.621   6.333  18.075  0.00  0.00    +0.000 C 
ATOM      6  C   UNL     1       5.684   5.349  18.819  0.00  0.00    +0.000 C 
ENDROOT
BRANCH   1   7
ATOM      7  S   UNL     1       2.982   5.222  19.236  0.00  0.00    +0.000 S 
ATOM      8  O   UNL     1       3.445   4.971  20.585  0.00  0.00    +0.000 OA
ATOM      9  O   UNL     1       2.141   4.263  18.552  0.00  0.00    +0.000 OA
BRANCH   7  14
ATOM     10  C   UNL     1       1.168  10.925  19.653  0.00  0.00    +0.000 C 
ATOM     11  C   UNL     1       1.363   9.445  19.492  0.00  0.00    +0.000 A 
ATOM     12  C   UNL     1       1.221   8.582  20.585  0.00  0.00    +0.000 A 
ATOM     13  C   UNL     1       1.606   7.246  20.481  0.00  0.00    +0.000 A 
ATOM     14  C   UNL     1       2.111   6.774  19.269  0.00  0.00    +0.000 A 
ATOM     15  C   UNL     1       2.141   7.594  18.137  0.00  0.00    +0.000 A 
ATOM     16  C   UNL     1       1.749   8.927  18.248  0.00  0.00    +0.000 A 
ENDBRANCH   7  14
ENDBRANCH   1   7
BRANCH   4  17
ATOM     17  C   UNL     1       7.175   4.973  16.094  0.00  0.00    +0.000 C 
BRANCH  17  18
ATOM     18  C   UNL     1       7.096   4.758  14.604  0.00  0.00    +0.000 A 
ATOM     19  C   UNL     1       6.252   3.794  14.066  0.00  0.00    +0.000 A 
ATOM     20  C   UNL     1       6.260   3.586  12.689  0.00  0.00    +0.000 A 
ATOM     21  C   UNL     1       7.108   4.349  11.891  0.00  0.00    +0.000 A 
ATOM     22  C   UNL     1       7.898   5.307  12.503  0.00  0.00    +0.000 A 
ATOM     23  N   UNL     1       7.911   5.529  13.834  0.00  0.00    +0.000 NA
ENDBRANCH  17  18
ENDBRANCH   4  17
TORSDOF 4
ENDMDL
MODEL 6
REMARK VINA RESULT:      -7.3      0.912      1.366
REMARK  Name = 
REMARK  5 active torsions:
REMARK  status: ('A' for Active; 'I' for Inactive)
REMARK    1  A    between atoms: C_1  and  C_2
REMARK    2  A    between atoms: C_5  and  S_6
REMARK    3  A    between atoms: S_6  and  N_9
REMARK    4  A    between atoms: N_12  and  C_13
REMARK    5  A    between atoms: C_13  and  C_14
REMARK                            x       y       z     vdW  Elec       q    Type
REMARK                         _______ _______ _______ _____ _____    ______ ____
ROOT
ATOM      1  N   UNL     1       3.689   4.795  18.700  0.00  0.00    +0.000 NA
ATOM      2  C   UNL     1       4.930   5.576  18.868  0.00  0.00    +0.000 C 
ATOM      3  C   UNL     1       6.116   4.690  18.428  0.00  0.00    +0.000 C 
ATOM      4  N   UNL     1       6.014   4.183  17.033  0.00  0.00    +0.000 NA
ATOM      5  C   UNL     1       4.698   3.504  16.877  0.00  0.00    +0.000 C 
ATOM      6  C   UNL     1       3.469   4.341  17.309  0.00  0.00    +0.000 C 
ENDROOT
BRANCH   1   7
ATOM      7  S   UNL     1       2.404   5.079  19.720  0.00  0.00    +0.000 S 
ATOM      8  O   UNL     1       2.838   4.794  21.072  0.00  0.00    +0.000 OA
ATOM      9  O   UNL     1       1.229   4.438  19.170  0.00  0.00    +0.000 OA
BRANCH   7  14
ATOM     10  C   UNL     1       0.390  10.691  19.074  0.00  0.00    +0.000 C 
ATOM     11  C   UNL     1       1.131   9.404  19.289  0.00  0.00    +0.000 A 
ATOM     12  C   UNL     1       1.771   8.762  18.222  0.00  0.00    +0.000 A 
ATOM     13  C   UNL     1       2.275   7.471  18.379  0.00  0.00    +0.000 A 
ATOM     14  C   UNL     1       2.156   6.838  19.617  0.00  0.00    +0.000 A 
ATOM     15  C   UNL     1       1.631   7.516  20.721  0.00  0.00    +0.000 A 
ATOM     16  C   UNL     1       1.134   8.808  20.557  0.00  0.00    +0.000 A 
ENDBRANCH   7  14
ENDBRANCH   1   7
BRANCH   4  17
ATOM     17  C   UNL     1       6.182   5.308  16.087  0.00  0.00    +0.000 C 
BRANCH  17  18
ATOM     18  C   UNL     1       6.507   4.921  14.666  0.00  0.00    +0.000 A 
ATOM     19  C   UNL     1       5.718   4.006  13.979  0.00  0.00    +0.000 A 
ATOM     20  C   UNL     1       6.093   3.630  12.692  0.00  0.00    +0.000 A 
ATOM     21  C   UNL     1       7.240   4.180  12.129  0.00  0.00    +0.000 A 
ATOM     22  C   UNL     1       7.956   5.104  12.871  0.00  0.00    +0.000 A 
ATOM     23  N   UNL     1       7.616   5.487  14.120  0.00  0.00    +0.000 NA
ENDBRANCH  17  18
ENDBRANCH   4  17
TORSDOF 4
ENDMDL
MODEL 7
REMARK VINA RESULT:      -7.2      3.087      7.699
REMARK  Name = 
REMARK  5 active torsions:
REMARK  status: ('A' for Active; 'I' for Inactive)
REMARK    1  A    between atoms: C_1  and  C_2
REMARK    2  A    between atoms: C_5  and  S_6
REMARK    3  A    between atoms: S_6  and  N_9
REMARK    4  A    between atoms: N_12  and  C_13
REMARK    5  A    between atoms: C_13  and  C_14
REMARK                            x       y       z     vdW  Elec       q    Type
REMARK                         _______ _______ _______ _____ _____    ______ ____
ROOT
ATOM      1  N   UNL     1       5.570   5.581  17.019  0.00  0.00    +0.000 NA
ATOM      2  C   UNL     1       5.212   6.836  17.710  0.00  0.00    +0.000 C 
ATOM      3  C   UNL     1       3.692   7.052  17.551  0.00  0.00    +0.000 C 
ATOM      4  N   UNL     1       2.859   5.930  18.062  0.00  0.00    +0.000 NA
ATOM      5  C   UNL     1       3.332   4.669  17.426  0.00  0.00    +0.000 C 
ATOM      6  C   UNL     1       4.852   4.399  17.546  0.00  0.00    +0.000 C 
ENDROOT
BRANCH   1   7
ATOM      7  S   UNL     1       7.082   5.429  16.339  0.00  0.00    +0.000 S 
ATOM      8  O   UNL     1       7.754   4.325  16.992  0.00  0.00    +0.000 OA
ATOM      9  O   UNL     1       7.695   6.739  16.281  0.00  0.00    +0.000 OA
BRANCH   7  14
ATOM     10  C   UNL     1       6.570   2.658  11.044  0.00  0.00    +0.000 C 
ATOM     11  C   UNL     1       6.567   3.554  12.248  0.00  0.00    +0.000 A 
ATOM     12  C   UNL     1       7.615   4.458  12.468  0.00  0.00    +0.000 A 
ATOM     13  C   UNL     1       7.716   5.133  13.684  0.00  0.00    +0.000 A 
ATOM     14  C   UNL     1       6.750   4.917  14.667  0.00  0.00    +0.000 A 
ATOM     15  C   UNL     1       5.634   4.114  14.411  0.00  0.00    +0.000 A 
ATOM     16  C   UNL     1       5.537   3.446  13.192  0.00  0.00    +0.000 A 
ENDBRANCH   7  14
ENDBRANCH   1   7
BRANCH   4  17
ATOM     17  C   UNL     1       2.950   5.883  19.538  0.00  0.00    +0.000 C 
BRANCH  17  18
ATOM     18  C   UNL     1       2.462   4.609  20.180  0.00  0.00    +0.000 A 
ATOM     19  C   UNL     1       1.110   4.287  20.188  0.00  0.00    +0.000 A 
ATOM     20  C   UNL     1       0.698   3.133  20.849  0.00  0.00    +0.000 A 
ATOM     21  C   UNL     1       1.648   2.334  21.478  0.00  0.00    +0.000 A 
ATOM     22  C   UNL     1       2.977   2.712  21.401  0.00  0.00    +0.000 A 
ATOM     23  N   UNL     1       3.404   3.824  20.768  0.00  0.00    +0.000 NA
ENDBRANCH  17  18
ENDBRANCH   4  17
TORSDOF 4
ENDMDL
MODEL 8
REMARK VINA RESULT:      -7.2      0.607      1.008
REMARK  Name = 
REMARK  5 active torsions:
REMARK  status: ('A' for Active; 'I' for Inactive)
REMARK    1  A    between atoms: C_1  and  C_2
REMARK    2  A    between atoms: C_5  and  S_6
REMARK    3  A    between atoms: S_6  and  N_9
REMARK    4  A    between atoms: N_12  and  C_13
REMARK    5  A    between atoms: C_13  and  C_14
REMARK                            x       y       z     vdW  Elec       q    Type
REMARK                         _______ _______ _______ _____ _____    ______ ____
ROOT
ATOM      1  N   UNL     1       4.204   5.592  18.328  0.00  0.00    +0.000 NA
ATOM      2  C   UNL     1       4.189   5.499  16.855  0.00  0.00    +0.000 C 
ATOM      3  C   UNL     1       5.370   6.331  16.311  0.00  0.00    +0.000 C 
ATOM      4  N   UNL     1       6.700   5.918  16.836  0.00  0.00    +0.000 NA
ATOM      5  C   UNL     1       6.635   5.914  18.324  0.00  0.00    +0.000 C 
ATOM      6  C   UNL     1       5.464   5.101  18.930  0.00  0.00    +0.000 C 
ENDROOT
BRANCH   1   7
ATOM      7  S   UNL     1       2.768   5.508  19.165  0.00  0.00    +0.000 S 
ATOM      8  O   UNL     1       3.056   5.012  20.494  0.00  0.00    +0.000 OA
ATOM      9  O   UNL     1       1.785   4.852  18.328  0.00  0.00    +0.000 OA
BRANCH   7  14
ATOM     10  C   UNL     1      -0.032  10.804  19.463  0.00  0.00    +0.000 C 
ATOM     11  C   UNL     1       0.891   9.620  19.451  0.00  0.00    +0.000 A 
ATOM     12  C   UNL     1       1.549   9.240  18.274  0.00  0.00    +0.000 A 
ATOM     13  C   UNL     1       2.233   8.027  18.213  0.00  0.00    +0.000 A 
ATOM     14  C   UNL     1       2.275   7.208  19.342  0.00  0.00    +0.000 A 
ATOM     15  C   UNL     1       1.728   7.635  20.556  0.00  0.00    +0.000 A 
ATOM     16  C   UNL     1       1.050   8.851  20.612  0.00  0.00    +0.000 A 
ENDBRANCH   7  14
ENDBRANCH   1   7
BRANCH   4  17
ATOM     17  C   UNL     1       7.056   4.592  16.286  0.00  0.00    +0.000 C 
BRANCH  17  18
ATOM     18  C   UNL     1       7.052   4.489  14.781  0.00  0.00    +0.000 A 
ATOM     19  C   UNL     1       7.866   5.310  14.009  0.00  0.00    +0.000 A 
ATOM     20  C   UNL     1       7.782   5.225  12.622  0.00  0.00    +0.000 A 
ATOM     21  C   UNL     1       6.890   4.323  12.048  0.00  0.00    +0.000 A 
ATOM     22  C   UNL     1       6.134   3.525  12.888  0.00  0.00    +0.000 A 
ATOM     23  N   UNL     1       6.195   3.586  14.235  0.00  0.00    +0.000 NA
ENDBRANCH  17  18
ENDBRANCH   4  17
TORSDOF 4
ENDMDL
MODEL 9
REMARK VINA RESULT:      -7.2      3.093      7.292
REMARK  Name = 
REMARK  5 active torsions:
REMARK  status: ('A' for Active; 'I' for Inactive)
REMARK    1  A    between atoms: C_1  and  C_2
REMARK    2  A    between atoms: C_5  and  S_6
REMARK    3  A    between atoms: S_6  and  N_9
REMARK    4  A    between atoms: N_12  and  C_13
REMARK    5  A    between atoms: C_13  and  C_14
REMARK                            x       y       z     vdW  Elec       q    Type
REMARK                         _______ _______ _______ _____ _____    ______ ____
ROOT
ATOM      1  N   UNL     1       5.637   6.030  17.568  0.00  0.00    +0.000 NA
ATOM      2  C   UNL     1       5.042   5.072  18.521  0.00  0.00    +0.000 C 
ATOM      3  C   UNL     1       4.080   5.851  19.443  0.00  0.00    +0.000 C 
ATOM      4  N   UNL     1       3.008   6.590  18.723  0.00  0.00    +0.000 NA
ATOM      5  C   UNL     1       3.647   7.456  17.694  0.00  0.00    +0.000 C 
ATOM      6  C   UNL     1       4.630   6.732  16.741  0.00  0.00    +0.000 C 
ENDROOT
BRANCH   1   7
ATOM      7  S   UNL     1       7.175   5.758  16.992  0.00  0.00    +0.000 S 
ATOM      8  O   UNL     1       7.860   4.904  17.941  0.00  0.00    +0.000 OA
ATOM      9  O   UNL     1       7.747   7.025  16.591  0.00  0.00    +0.000 OA
BRANCH   7  14
ATOM     10  C   UNL     1       5.349   3.294  11.838  0.00  0.00    +0.000 C 
ATOM     11  C   UNL     1       5.993   3.715  13.126  0.00  0.00    +0.000 A 
ATOM     12  C   UNL     1       5.558   3.188  14.349  0.00  0.00    +0.000 A 
ATOM     13  C   UNL     1       6.010   3.734  15.550  0.00  0.00    +0.000 A 
ATOM     14  C   UNL     1       6.917   4.793  15.520  0.00  0.00    +0.000 A 
ATOM     15  C   UNL     1       7.453   5.243  14.309  0.00  0.00    +0.000 A 
ATOM     16  C   UNL     1       7.000   4.690  13.113  0.00  0.00    +0.000 A 
ENDBRANCH   7  14
ENDBRANCH   1   7
BRANCH   4  17
ATOM     17  C   UNL     1       2.057   5.623  18.132  0.00  0.00    +0.000 C 
BRANCH  17  18
ATOM     18  C   UNL     1       1.820   4.369  18.936  0.00  0.00    +0.000 A 
ATOM     19  C   UNL     1       1.949   3.114  18.352  0.00  0.00    +0.000 A 
ATOM     20  C   UNL     1       1.657   1.986  19.115  0.00  0.00    +0.000 A 
ATOM     21  C   UNL     1       1.250   2.144  20.436  0.00  0.00    +0.000 A 
ATOM     22  C   UNL     1       1.171   3.428  20.948  0.00  0.00    +0.000 A 
ATOM     23  N   UNL     1       1.448   4.538  20.233  0.00  0.00    +0.000 NA
ENDBRANCH  17  18
ENDBRANCH   4  17
TORSDOF 4
ENDMDL
