MODEL 1
REMARK VINA RESULT:      -7.8      0.000      0.000
REMARK  Name = 
REMARK  6 active torsions:
REMARK  status: ('A' for Active; 'I' for Inactive)
REMARK    1  A    between atoms: C_1  and  C_2
REMARK    2  A    between atoms: C_4  and  C_5
REMARK    3  A    between atoms: N_6  and  C_7
REMARK    4  A    between atoms: C_7  and  C_8
REMARK    5  A    between atoms: C_13  and  C_15
REMARK    6  A    between atoms: N_19  and  C_20
REMARK                            x       y       z     vdW  Elec       q    Type
REMARK                         _______ _______ _______ _____ _____    ______ ____
ROOT
ATOM      1  C   UNL     1       3.588   3.712  18.686  0.00  0.00    +0.000 C 
ATOM      2  C   UNL     1       2.731   2.710  17.897  0.00  0.00    +0.000 C 
ATOM      3  C   UNL     1       1.352   3.333  17.923  0.00  0.00    +0.000 C 
ATOM      4  C   UNL     1       1.636   4.823  17.854  0.00  0.00    +0.000 C 
ATOM      5  N   UNL     1       3.003   5.025  18.336  0.00  0.00    +0.000 N 
ATOM      6  C   UNL     1       3.518   6.232  18.819  0.00  0.00    +0.000 C 
ATOM      7  O   UNL     1       4.597   6.281  19.417  0.00  0.00    +0.000 OA
ENDROOT
BRANCH   6   8
ATOM      8  C   UNL     1       2.714   7.498  18.733  0.00  0.00    +0.000 A 
ATOM      9  C   UNL     1       1.890   7.871  19.797  0.00  0.00    +0.000 A 
ATOM     10  C   UNL     1       1.010   8.960  19.664  0.00  0.00    +0.000 A 
ATOM     11  C   UNL     1       0.966   9.656  18.465  0.00  0.00    +0.000 A 
ATOM     12  N   UNL     1       0.073  10.699  18.204  0.00  0.00    +0.000 N 
ATOM     13  N   UNL     1       1.829   9.381  17.468  0.00  0.00    +0.000 NA
ATOM     14  C   UNL     1       2.697   8.346  17.638  0.00  0.00    +0.000 A 
ATOM     15  H   UNL     1       0.181  10.929  17.218  0.00  0.00    +0.000 HD
BRANCH  12  16
ATOM     16  C   UNL     1      -1.269  10.765  18.774  0.00  0.00    +0.000 C 
ATOM     17  C   UNL     1      -2.329  11.655  18.191  0.00  0.00    +0.000 C 
ATOM     18  C   UNL     1      -2.409  10.173  17.981  0.00  0.00    +0.000 C 
ENDBRANCH  12  16
ENDBRANCH   6   8
BRANCH   1  19
ATOM     19  C   UNL     1       5.104   3.449  18.575  0.00  0.00    +0.000 C 
BRANCH  19  25
ATOM     20  C   UNL     1       5.857   4.054  13.861  0.00  0.00    +0.000 C 
ATOM     21  C   UNL     1       6.132   4.170  15.312  0.00  0.00    +0.000 A 
ATOM     22  C   UNL     1       7.110   4.941  15.972  0.00  0.00    +0.000 A 
ATOM     23  C   UNL     1       6.907   4.715  17.317  0.00  0.00    +0.000 A 
ATOM     24  C   UNL     1       7.662   5.186  18.503  0.00  0.00    +0.000 C 
ATOM     25  N   UNL     1       5.780   3.931  17.389  0.00  0.00    +0.000 N 
ATOM     26  N   UNL     1       5.398   3.475  16.181  0.00  0.00    +0.000 NA
ENDBRANCH  19  25
ENDBRANCH   1  19
TORSDOF 4
ENDMDL
MODEL 2
REMARK VINA RESULT:      -7.7      1.235      1.558
REMARK  Name = 
REMARK  6 active torsions:
REMARK  status: ('A' for Active; 'I' for Inactive)
REMARK    1  A    between atoms: C_1  and  C_2
REMARK    2  A    between atoms: C_4  and  C_5
REMARK    3  A    between atoms: N_6  and  C_7
REMARK    4  A    between atoms: C_7  and  C_8
REMARK    5  A    between atoms: C_13  and  C_15
REMARK    6  A    between atoms: N_19  and  C_20
REMARK                            x       y       z     vdW  Elec       q    Type
REMARK                         _______ _______ _______ _____ _____    ______ ____
ROOT
ATOM      1  C   UNL     1       3.711   3.657  18.640  0.00  0.00    +0.000 C 
ATOM      2  C   UNL     1       2.928   2.652  17.781  0.00  0.00    +0.000 C 
ATOM      3  C   UNL     1       1.499   3.134  17.893  0.00  0.00    +0.000 C 
ATOM      4  C   UNL     1       1.640   4.646  17.955  0.00  0.00    +0.000 C 
ATOM      5  N   UNL     1       2.996   4.934  18.425  0.00  0.00    +0.000 N 
ATOM      6  C   UNL     1       3.410   6.136  19.005  0.00  0.00    +0.000 C 
ATOM      7  O   UNL     1       4.496   6.236  19.582  0.00  0.00    +0.000 OA
ENDROOT
BRANCH   6   8
ATOM      8  C   UNL     1       2.488   7.322  19.052  0.00  0.00    +0.000 A 
ATOM      9  C   UNL     1       2.344   8.136  17.926  0.00  0.00    +0.000 A 
ATOM     10  C   UNL     1       1.617   9.336  18.007  0.00  0.00    +0.000 A 
ATOM     11  C   UNL     1       1.047   9.705  19.218  0.00  0.00    +0.000 A 
ATOM     12  N   UNL     1       0.374  10.913  19.424  0.00  0.00    +0.000 N 
ATOM     13  N   UNL     1       1.081   8.881  20.283  0.00  0.00    +0.000 NA
ATOM     14  C   UNL     1       1.760   7.707  20.165  0.00  0.00    +0.000 A 
ATOM     15  H   UNL     1       0.180  10.966  20.422  0.00  0.00    +0.000 HD
BRANCH  12  16
ATOM     16  C   UNL     1       0.721  12.150  18.732  0.00  0.00    +0.000 C 
ATOM     17  C   UNL     1      -0.329  13.139  18.312  0.00  0.00    +0.000 C 
ATOM     18  C   UNL     1       0.560  13.452  19.477  0.00  0.00    +0.000 C 
ENDBRANCH  12  16
ENDBRANCH   6   8
BRANCH   1  19
ATOM     19  C   UNL     1       5.241   3.551  18.473  0.00  0.00    +0.000 C 
BRANCH  19  25
ATOM     20  C   UNL     1       5.791   4.101  13.725  0.00  0.00    +0.000 C 
ATOM     21  C   UNL     1       6.084   4.297  15.163  0.00  0.00    +0.000 A 
ATOM     22  C   UNL     1       6.968   5.211  15.773  0.00  0.00    +0.000 A 
ATOM     23  C   UNL     1       6.829   5.003  17.130  0.00  0.00    +0.000 A 
ATOM     24  C   UNL     1       7.545   5.606  18.280  0.00  0.00    +0.000 C 
ATOM     25  N   UNL     1       5.818   4.080  17.256  0.00  0.00    +0.000 N 
ATOM     26  N   UNL     1       5.469   3.540  16.072  0.00  0.00    +0.000 NA
ENDBRANCH  19  25
ENDBRANCH   1  19
TORSDOF 4
ENDMDL
MODEL 3
REMARK VINA RESULT:      -7.5      1.717      2.656
REMARK  Name = 
REMARK  6 active torsions:
REMARK  status: ('A' for Active; 'I' for Inactive)
REMARK    1  A    between atoms: C_1  and  C_2
REMARK    2  A    between atoms: C_4  and  C_5
REMARK    3  A    between atoms: N_6  and  C_7
REMARK    4  A    between atoms: C_7  and  C_8
REMARK    5  A    between atoms: C_13  and  C_15
REMARK    6  A    between atoms: N_19  and  C_20
REMARK                            x       y       z     vdW  Elec       q    Type
REMARK                         _______ _______ _______ _____ _____    ______ ____
ROOT
ATOM      1  C   UNL     1       3.371   4.181  19.438  0.00  0.00    +0.000 C 
ATOM      2  C   UNL     1       2.536   3.066  20.088  0.00  0.00    +0.000 C 
ATOM      3  C   UNL     1       1.679   3.810  21.089  0.00  0.00    +0.000 C 
ATOM      4  C   UNL     1       1.391   5.131  20.395  0.00  0.00    +0.000 C 
ATOM      5  N   UNL     1       2.447   5.335  19.402  0.00  0.00    +0.000 N 
ATOM      6  C   UNL     1       2.801   6.567  18.844  0.00  0.00    +0.000 C 
ATOM      7  O   UNL     1       3.839   6.706  18.190  0.00  0.00    +0.000 OA
ENDROOT
BRANCH   6   8
ATOM      8  C   UNL     1       1.989   7.798  19.127  0.00  0.00    +0.000 A 
ATOM      9  C   UNL     1       1.630   8.650  18.080  0.00  0.00    +0.000 A 
ATOM     10  C   UNL     1       1.015   9.885  18.349  0.00  0.00    +0.000 A 
ATOM     11  C   UNL     1       0.772  10.251  19.665  0.00  0.00    +0.000 A 
ATOM     12  N   UNL     1       0.240  11.487  20.043  0.00  0.00    +0.000 N 
ATOM     13  N   UNL     1       1.009   9.397  20.680  0.00  0.00    +0.000 NA
ATOM     14  C   UNL     1       1.570   8.192  20.387  0.00  0.00    +0.000 A 
ATOM     15  H   UNL     1       0.293  11.523  21.059  0.00  0.00    +0.000 HD
BRANCH  12  16
ATOM     16  C   UNL     1       0.485  12.722  19.306  0.00  0.00    +0.000 C 
ATOM     17  C   UNL     1      -0.480  13.226  18.271  0.00  0.00    +0.000 C 
ATOM     18  C   UNL     1      -0.393  13.914  19.600  0.00  0.00    +0.000 C 
ENDBRANCH  12  16
ENDBRANCH   6   8
BRANCH   1  19
ATOM     19  C   UNL     1       4.139   3.722  18.181  0.00  0.00    +0.000 C 
BRANCH  19  25
ATOM     20  C   UNL     1       8.349   5.644  19.497  0.00  0.00    +0.000 C 
ATOM     21  C   UNL     1       7.325   5.108  18.572  0.00  0.00    +0.000 A 
ATOM     22  C   UNL     1       7.439   4.805  17.200  0.00  0.00    +0.000 A 
ATOM     23  C   UNL     1       6.209   4.301  16.834  0.00  0.00    +0.000 A 
ATOM     24  C   UNL     1       5.691   3.878  15.510  0.00  0.00    +0.000 C 
ATOM     25  N   UNL     1       5.482   4.230  17.998  0.00  0.00    +0.000 N 
ATOM     26  N   UNL     1       6.095   4.855  19.021  0.00  0.00    +0.000 NA
ENDBRANCH  19  25
ENDBRANCH   1  19
TORSDOF 4
ENDMDL
MODEL 4
REMARK VINA RESULT:      -7.4      2.094      7.805
REMARK  Name = 
REMARK  6 active torsions:
REMARK  status: ('A' for Active; 'I' for Inactive)
REMARK    1  A    between atoms: C_1  and  C_2
REMARK    2  A    between atoms: C_4  and  C_5
REMARK    3  A    between atoms: N_6  and  C_7
REMARK    4  A    between atoms: C_7  and  C_8
REMARK    5  A    between atoms: C_13  and  C_15
REMARK    6  A    between atoms: N_19  and  C_20
REMARK                            x       y       z     vdW  Elec       q    Type
REMARK                         _______ _______ _______ _____ _____    ______ ____
ROOT
ATOM      1  C   UNL     1       2.107   6.140  19.334  0.00  0.00    +0.000 C 
ATOM      2  C   UNL     1       1.356   4.986  20.017  0.00  0.00    +0.000 C 
ATOM      3  C   UNL     1       1.367   3.894  18.969  0.00  0.00    +0.000 C 
ATOM      4  C   UNL     1       2.711   4.074  18.285  0.00  0.00    +0.000 C 
ATOM      5  N   UNL     1       3.131   5.457  18.515  0.00  0.00    +0.000 N 
ATOM      6  C   UNL     1       4.070   6.153  17.748  0.00  0.00    +0.000 C 
ATOM      7  O   UNL     1       4.211   7.375  17.851  0.00  0.00    +0.000 OA
ENDROOT
BRANCH   6   8
ATOM      8  C   UNL     1       4.857   5.451  16.678  0.00  0.00    +0.000 A 
ATOM      9  C   UNL     1       5.060   6.072  15.444  0.00  0.00    +0.000 A 
ATOM     10  C   UNL     1       5.649   5.364  14.382  0.00  0.00    +0.000 A 
ATOM     11  C   UNL     1       6.023   4.041  14.571  0.00  0.00    +0.000 A 
ATOM     12  N   UNL     1       6.543   3.228  13.560  0.00  0.00    +0.000 N 
ATOM     13  N   UNL     1       5.937   3.461  15.784  0.00  0.00    +0.000 NA
ATOM     14  C   UNL     1       5.398   4.182  16.804  0.00  0.00    +0.000 A 
ATOM     15  H   UNL     1       6.603   2.289  13.950  0.00  0.00    +0.000 HD
BRANCH  12  16
ATOM     16  C   UNL     1       6.165   3.357  12.157  0.00  0.00    +0.000 C 
ATOM     17  C   UNL     1       5.810   2.159  11.323  0.00  0.00    +0.000 C 
ATOM     18  C   UNL     1       4.728   3.091  11.778  0.00  0.00    +0.000 C 
ENDBRANCH  12  16
ENDBRANCH   6   8
BRANCH   1  19
ATOM     19  C   UNL     1       2.476   7.290  20.294  0.00  0.00    +0.000 C 
BRANCH  19  25
ATOM     20  C   UNL     1      -0.688   9.935  22.773  0.00  0.00    +0.000 C 
ATOM     21  C   UNL     1       0.069   9.471  21.588  0.00  0.00    +0.000 A 
ATOM     22  C   UNL     1       0.134  10.036  20.298  0.00  0.00    +0.000 A 
ATOM     23  C   UNL     1       1.008   9.236  19.592  0.00  0.00    +0.000 A 
ATOM     24  C   UNL     1       1.423   9.276  18.169  0.00  0.00    +0.000 C 
ATOM     25  N   UNL     1       1.488   8.327  20.504  0.00  0.00    +0.000 N 
ATOM     26  N   UNL     1       0.814   8.368  21.670  0.00  0.00    +0.000 NA
ENDBRANCH  19  25
ENDBRANCH   1  19
TORSDOF 4
ENDMDL
MODEL 5
REMARK VINA RESULT:      -7.4      1.863      7.803
REMARK  Name = 
REMARK  6 active torsions:
REMARK  status: ('A' for Active; 'I' for Inactive)
REMARK    1  A    between atoms: C_1  and  C_2
REMARK    2  A    between atoms: C_4  and  C_5
REMARK    3  A    between atoms: N_6  and  C_7
REMARK    4  A    between atoms: C_7  and  C_8
REMARK    5  A    between atoms: C_13  and  C_15
REMARK    6  A    between atoms: N_19  and  C_20
REMARK                            x       y       z     vdW  Elec       q    Type
REMARK                         _______ _______ _______ _____ _____    ______ ____
ROOT
ATOM      1  C   UNL     1       1.860   6.791  19.836  0.00  0.00    +0.000 C 
ATOM      2  C   UNL     1       1.481   5.798  20.946  0.00  0.00    +0.000 C 
ATOM      3  C   UNL     1       1.652   4.449  20.281  0.00  0.00    +0.000 C 
ATOM      4  C   UNL     1       2.839   4.658  19.357  0.00  0.00    +0.000 C 
ATOM      5  N   UNL     1       2.933   6.095  19.094  0.00  0.00    +0.000 N 
ATOM      6  C   UNL     1       3.596   6.674  18.007  0.00  0.00    +0.000 C 
ATOM      7  O   UNL     1       3.447   7.866  17.720  0.00  0.00    +0.000 OA
ENDROOT
BRANCH   6   8
ATOM      8  C   UNL     1       4.419   5.833  17.075  0.00  0.00    +0.000 A 
ATOM      9  C   UNL     1       5.065   6.428  15.988  0.00  0.00    +0.000 A 
ATOM     10  C   UNL     1       5.700   5.632  15.018  0.00  0.00    +0.000 A 
ATOM     11  C   UNL     1       5.675   4.251  15.149  0.00  0.00    +0.000 A 
ATOM     12  N   UNL     1       6.206   3.371  14.203  0.00  0.00    +0.000 N 
ATOM     13  N   UNL     1       5.155   3.665  16.245  0.00  0.00    +0.000 NA
ATOM     14  C   UNL     1       4.581   4.462  17.188  0.00  0.00    +0.000 A 
ATOM     15  H   UNL     1       5.934   2.435  14.497  0.00  0.00    +0.000 HD
BRANCH  12  16
ATOM     16  C   UNL     1       6.226   3.653  12.771  0.00  0.00    +0.000 C 
ATOM     17  C   UNL     1       6.235   2.551  11.751  0.00  0.00    +0.000 C 
ATOM     18  C   UNL     1       4.985   3.349  11.967  0.00  0.00    +0.000 C 
ENDBRANCH  12  16
ENDBRANCH   6   8
BRANCH   1  19
ATOM     19  C   UNL     1       2.033   8.239  20.337  0.00  0.00    +0.000 C 
BRANCH  19  25
ATOM     20  C   UNL     1      -1.326  10.868  18.111  0.00  0.00    +0.000 C 
ATOM     21  C   UNL     1      -0.568  10.308  19.253  0.00  0.00    +0.000 A 
ATOM     22  C   UNL     1      -0.856  10.383  20.631  0.00  0.00    +0.000 A 
ATOM     23  C   UNL     1       0.144   9.663  21.253  0.00  0.00    +0.000 A 
ATOM     24  C   UNL     1       0.426   9.442  22.691  0.00  0.00    +0.000 C 
ATOM     25  N   UNL     1       0.891   9.123  20.233  0.00  0.00    +0.000 N 
ATOM     26  N   UNL     1       0.558   9.630  19.031  0.00  0.00    +0.000 NA
ENDBRANCH  19  25
ENDBRANCH   1  19
TORSDOF 4
ENDMDL
MODEL 6
REMARK VINA RESULT:      -7.1      2.733      3.510
REMARK  Name = 
REMARK  6 active torsions:
REMARK  status: ('A' for Active; 'I' for Inactive)
REMARK    1  A    between atoms: C_1  and  C_2
REMARK    2  A    between atoms: C_4  and  C_5
REMARK    3  A    between atoms: N_6  and  C_7
REMARK    4  A    between atoms: C_7  and  C_8
REMARK    5  A    between atoms: C_13  and  C_15
REMARK    6  A    between atoms: N_19  and  C_20
REMARK                            x       y       z     vdW  Elec       q    Type
REMARK                         _______ _______ _______ _____ _____    ______ ____
ROOT
ATOM      1  C   UNL     1       3.292   5.492  19.128  0.00  0.00    +0.000 C 
ATOM      2  C   UNL     1       2.947   4.066  19.583  0.00  0.00    +0.000 C 
ATOM      3  C   UNL     1       2.371   4.270  20.967  0.00  0.00    +0.000 C 
ATOM      4  C   UNL     1       1.631   5.591  20.850  0.00  0.00    +0.000 C 
ATOM      5  N   UNL     1       2.223   6.320  19.727  0.00  0.00    +0.000 N 
ATOM      6  C   UNL     1       2.136   7.701  19.526  0.00  0.00    +0.000 C 
ATOM      7  O   UNL     1       2.841   8.278  18.693  0.00  0.00    +0.000 OA
ENDROOT
BRANCH   6   8
ATOM      8  C   UNL     1       1.266   8.550  20.408  0.00  0.00    +0.000 A 
ATOM      9  C   UNL     1       0.264   9.341  19.841  0.00  0.00    +0.000 A 
ATOM     10  C   UNL     1      -0.446  10.262  20.631  0.00  0.00    +0.000 A 
ATOM     11  C   UNL     1      -0.137  10.379  21.979  0.00  0.00    +0.000 A 
ATOM     12  N   UNL     1      -0.727  11.317  22.833  0.00  0.00    +0.000 N 
ATOM     13  N   UNL     1       0.746   9.550  22.566  0.00  0.00    +0.000 NA
ATOM     14  C   UNL     1       1.391   8.641  21.784  0.00  0.00    +0.000 A 
ATOM     15  H   UNL     1      -0.223  11.258  23.715  0.00  0.00    +0.000 HD
BRANCH  12  16
ATOM     16  C   UNL     1      -1.168  12.635  22.389  0.00  0.00    +0.000 C 
ATOM     17  C   UNL     1      -2.625  12.968  22.238  0.00  0.00    +0.000 C 
ATOM     18  C   UNL     1      -1.852  13.532  23.392  0.00  0.00    +0.000 C 
ENDBRANCH  12  16
ENDBRANCH   6   8
BRANCH   1  19
ATOM     19  C   UNL     1       3.647   5.593  17.630  0.00  0.00    +0.000 C 
BRANCH  19  25
ATOM     20  C   UNL     1       7.832   7.966  17.644  0.00  0.00    +0.000 C 
ATOM     21  C   UNL     1       6.865   6.912  17.267  0.00  0.00    +0.000 A 
ATOM     22  C   UNL     1       7.084   5.727  16.534  0.00  0.00    +0.000 A 
ATOM     23  C   UNL     1       5.862   5.086  16.502  0.00  0.00    +0.000 A 
ATOM     24  C   UNL     1       5.441   3.839  15.821  0.00  0.00    +0.000 C 
ATOM     25  N   UNL     1       5.030   5.848  17.288  0.00  0.00    +0.000 N 
ATOM     26  N   UNL     1       5.587   7.027  17.627  0.00  0.00    +0.000 NA
ENDBRANCH  19  25
ENDBRANCH   1  19
TORSDOF 4
ENDMDL
MODEL 7
REMARK VINA RESULT:      -7.0      1.546      2.398
REMARK  Name = 
REMARK  6 active torsions:
REMARK  status: ('A' for Active; 'I' for Inactive)
REMARK    1  A    between atoms: C_1  and  C_2
REMARK    2  A    between atoms: C_4  and  C_5
REMARK    3  A    between atoms: N_6  and  C_7
REMARK    4  A    between atoms: C_7  and  C_8
REMARK    5  A    between atoms: C_13  and  C_15
REMARK    6  A    between atoms: N_19  and  C_20
REMARK                            x       y       z     vdW  Elec       q    Type
REMARK                         _______ _______ _______ _____ _____    ______ ____
ROOT
ATOM      1  C   UNL     1       3.282   4.190  19.364  0.00  0.00    +0.000 C 
ATOM      2  C   UNL     1       2.357   3.138  19.995  0.00  0.00    +0.000 C 
ATOM      3  C   UNL     1       1.509   3.948  20.952  0.00  0.00    +0.000 C 
ATOM      4  C   UNL     1       1.330   5.273  20.232  0.00  0.00    +0.000 C 
ATOM      5  N   UNL     1       2.433   5.398  19.277  0.00  0.00    +0.000 N 
ATOM      6  C   UNL     1       2.883   6.597  18.718  0.00  0.00    +0.000 C 
ATOM      7  O   UNL     1       3.952   6.663  18.103  0.00  0.00    +0.000 OA
ENDROOT
BRANCH   6   8
ATOM      8  C   UNL     1       2.138   7.880  18.953  0.00  0.00    +0.000 A 
ATOM      9  C   UNL     1       1.757   8.235  20.249  0.00  0.00    +0.000 A 
ATOM     10  C   UNL     1       0.919   9.344  20.464  0.00  0.00    +0.000 A 
ATOM     11  C   UNL     1       0.472  10.079  19.375  0.00  0.00    +0.000 A 
ATOM     12  N   UNL     1      -0.424  11.147  19.473  0.00  0.00    +0.000 N 
ATOM     13  N   UNL     1       0.917   9.820  18.130  0.00  0.00    +0.000 NA
ATOM     14  C   UNL     1       1.758   8.763  17.956  0.00  0.00    +0.000 A 
ATOM     15  H   UNL     1      -0.666  11.406  18.519  0.00  0.00    +0.000 HD
BRANCH  12  16
ATOM     16  C   UNL     1      -1.474  11.220  20.484  0.00  0.00    +0.000 C 
ATOM     17  C   UNL     1      -1.294  12.007  21.751  0.00  0.00    +0.000 C 
ATOM     18  C   UNL     1      -2.192  12.533  20.673  0.00  0.00    +0.000 C 
ENDBRANCH  12  16
ENDBRANCH   6   8
BRANCH   1  19
ATOM     19  C   UNL     1       4.069   3.667  18.144  0.00  0.00    +0.000 C 
BRANCH  19  25
ATOM     20  C   UNL     1       8.328   5.498  19.430  0.00  0.00    +0.000 C 
ATOM     21  C   UNL     1       7.275   5.013  18.510  0.00  0.00    +0.000 A 
ATOM     22  C   UNL     1       7.349   4.774  17.123  0.00  0.00    +0.000 A 
ATOM     23  C   UNL     1       6.105   4.295  16.768  0.00  0.00    +0.000 A 
ATOM     24  C   UNL     1       5.548   3.938  15.441  0.00  0.00    +0.000 C 
ATOM     25  N   UNL     1       5.410   4.174  17.947  0.00  0.00    +0.000 N 
ATOM     26  N   UNL     1       6.056   4.747  18.981  0.00  0.00    +0.000 NA
ENDBRANCH  19  25
ENDBRANCH   1  19
TORSDOF 4
ENDMDL
MODEL 8
REMARK VINA RESULT:      -7.0      3.338      9.816
REMARK  Name = 
REMARK  6 active torsions:
REMARK  status: ('A' for Active; 'I' for Inactive)
REMARK    1  A    between atoms: C_1  and  C_2
REMARK    2  A    between atoms: C_4  and  C_5
REMARK    3  A    between atoms: N_6  and  C_7
REMARK    4  A    between atoms: C_7  and  C_8
REMARK    5  A    between atoms: C_13  and  C_15
REMARK    6  A    between atoms: N_19  and  C_20
REMARK                            x       y       z     vdW  Elec       q    Type
REMARK                         _______ _______ _______ _____ _____    ______ ____
ROOT
ATOM      1  C   UNL     1      -1.422  12.369  19.615  0.00  0.00    +0.000 C 
ATOM      2  C   UNL     1      -2.888  12.144  19.210  0.00  0.00    +0.000 C 
ATOM      3  C   UNL     1      -2.798  11.054  18.164  0.00  0.00    +0.000 C 
ATOM      4  C   UNL     1      -1.651  10.187  18.655  0.00  0.00    +0.000 C 
ATOM      5  N   UNL     1      -0.823  11.020  19.528  0.00  0.00    +0.000 N 
ATOM      6  C   UNL     1       0.512  10.766  19.856  0.00  0.00    +0.000 C 
ATOM      7  O   UNL     1       1.216  11.617  20.407  0.00  0.00    +0.000 OA
ENDROOT
BRANCH   6   8
ATOM      8  C   UNL     1       1.174   9.484  19.435  0.00  0.00    +0.000 A 
ATOM      9  C   UNL     1       1.286   8.429  20.344  0.00  0.00    +0.000 A 
ATOM     10  C   UNL     1       2.045   7.291  20.019  0.00  0.00    +0.000 A 
ATOM     11  C   UNL     1       2.685   7.229  18.789  0.00  0.00    +0.000 A 
ATOM     12  N   UNL     1       3.525   6.181  18.402  0.00  0.00    +0.000 N 
ATOM     13  N   UNL     1       2.498   8.185  17.859  0.00  0.00    +0.000 NA
ATOM     14  C   UNL     1       1.727   9.258  18.186  0.00  0.00    +0.000 A 
ATOM     15  H   UNL     1       3.946   6.463  17.518  0.00  0.00    +0.000 HD
BRANCH  12  16
ATOM     16  C   UNL     1       4.353   5.432  19.341  0.00  0.00    +0.000 C 
ATOM     17  C   UNL     1       4.654   3.975  19.136  0.00  0.00    +0.000 C 
ATOM     18  C   UNL     1       5.725   4.994  18.888  0.00  0.00    +0.000 C 
ENDBRANCH  12  16
ENDBRANCH   6   8
BRANCH   1  19
ATOM     19  C   UNL     1      -1.258  13.246  20.873  0.00  0.00    +0.000 C 
BRANCH  19  25
ATOM     20  C   UNL     1      -5.177  14.236  23.483  0.00  0.00    +0.000 C 
ATOM     21  C   UNL     1      -3.931  13.529  23.109  0.00  0.00    +0.000 A 
ATOM     22  C   UNL     1      -3.389  12.342  23.642  0.00  0.00    +0.000 A 
ATOM     23  C   UNL     1      -2.243  12.103  22.912  0.00  0.00    +0.000 A 
ATOM     24  C   UNL     1      -1.209  11.050  23.050  0.00  0.00    +0.000 C 
ATOM     25  N   UNL     1      -2.223  13.073  21.938  0.00  0.00    +0.000 N 
ATOM     26  N   UNL     1      -3.154  14.024  22.144  0.00  0.00    +0.000 NA
ENDBRANCH  19  25
ENDBRANCH   1  19
TORSDOF 4
ENDMDL
MODEL 9
REMARK VINA RESULT:      -7.0      3.104      9.669
REMARK  Name = 
REMARK  6 active torsions:
REMARK  status: ('A' for Active; 'I' for Inactive)
REMARK    1  A    between atoms: C_1  and  C_2
REMARK    2  A    between atoms: C_4  and  C_5
REMARK    3  A    between atoms: N_6  and  C_7
REMARK    4  A    between atoms: C_7  and  C_8
REMARK    5  A    between atoms: C_13  and  C_15
REMARK    6  A    between atoms: N_19  and  C_20
REMARK                            x       y       z     vdW  Elec       q    Type
REMARK                         _______ _______ _______ _____ _____    ______ ____
ROOT
ATOM      1  C   UNL     1      -1.539  12.139  18.939  0.00  0.00    +0.000 C 
ATOM      2  C   UNL     1      -2.949  11.732  18.482  0.00  0.00    +0.000 C 
ATOM      3  C   UNL     1      -2.701  10.497  17.643  0.00  0.00    +0.000 C 
ATOM      4  C   UNL     1      -1.539   9.818  18.348  0.00  0.00    +0.000 C 
ATOM      5  N   UNL     1      -0.843  10.847  19.122  0.00  0.00    +0.000 N 
ATOM      6  C   UNL     1       0.477  10.760  19.576  0.00  0.00    +0.000 C 
ATOM      7  O   UNL     1       1.074  11.744  20.020  0.00  0.00    +0.000 OA
ENDROOT
BRANCH   6   8
ATOM      8  C   UNL     1       1.257   9.485  19.422  0.00  0.00    +0.000 A 
ATOM      9  C   UNL     1       1.862   9.183  18.200  0.00  0.00    +0.000 A 
ATOM     10  C   UNL     1       2.453   7.925  17.993  0.00  0.00    +0.000 A 
ATOM     11  C   UNL     1       2.425   6.984  19.013  0.00  0.00    +0.000 A 
ATOM     12  N   UNL     1       2.912   5.681  18.883  0.00  0.00    +0.000 N 
ATOM     13  N   UNL     1       1.946   7.295  20.233  0.00  0.00    +0.000 NA
ATOM     14  C   UNL     1       1.414   8.535  20.417  0.00  0.00    +0.000 A 
ATOM     15  H   UNL     1       2.646   5.189  19.734  0.00  0.00    +0.000 HD
BRANCH  12  16
ATOM     16  C   UNL     1       2.876   4.936  17.628  0.00  0.00    +0.000 C 
ATOM     17  C   UNL     1       4.016   4.056  17.202  0.00  0.00    +0.000 C 
ATOM     18  C   UNL     1       2.745   3.434  17.695  0.00  0.00    +0.000 C 
ENDBRANCH  12  16
ENDBRANCH   6   8
BRANCH   1  19
ATOM     19  C   UNL     1      -1.536  13.220  20.040  0.00  0.00    +0.000 C 
BRANCH  19  25
ATOM     20  C   UNL     1      -5.750  13.927  22.252  0.00  0.00    +0.000 C 
ATOM     21  C   UNL     1      -4.362  13.439  22.087  0.00  0.00    +0.000 A 
ATOM     22  C   UNL     1      -3.627  12.559  22.907  0.00  0.00    +0.000 A 
ATOM     23  C   UNL     1      -2.407  12.408  22.279  0.00  0.00    +0.000 A 
ATOM     24  C   UNL     1      -1.192  11.667  22.693  0.00  0.00    +0.000 C 
ATOM     25  N   UNL     1      -2.518  13.099  21.097  0.00  0.00    +0.000 N 
ATOM     26  N   UNL     1      -3.637  13.847  21.045  0.00  0.00    +0.000 NA
ENDBRANCH  19  25
ENDBRANCH   1  19
TORSDOF 4
ENDMDL
