MODEL 1
REMARK VINA RESULT:      -8.3      0.000      0.000
REMARK  Name = 
REMARK  3 active torsions:
REMARK  status: ('A' for Active; 'I' for Inactive)
REMARK    1  A    between atoms: O_1  and  C_2
REMARK    2  A    between atoms: C_2  and  C_3
REMARK    3  A    between atoms: C_3  and  C_4
REMARK                            x       y       z     vdW  Elec       q    Type
REMARK                         _______ _______ _______ _____ _____    ______ ____
ROOT
ATOM      1  C   UNL     1       3.897   4.308  19.126  0.00  0.00    +0.000 C 
ATOM      2  C   UNL     1       3.563   2.934  19.850  0.00  0.00    +0.000 C 
ATOM      3  C   UNL     1       2.658   3.158  21.104  0.00  0.00    +0.000 C 
ATOM      4  C   UNL     1       1.316   3.803  20.687  0.00  0.00    +0.000 C 
ATOM      5  C   UNL     1       0.585   2.878  19.685  0.00  0.00    +0.000 C 
ATOM      6  C   UNL     1       1.474   2.659  18.449  0.00  0.00    +0.000 C 
ATOM      7  C   UNL     1       2.798   1.998  18.887  0.00  0.00    +0.000 C 
ATOM      8  C   UNL     1       1.719   4.032  17.785  0.00  0.00    +0.000 C 
ATOM      9  C   UNL     1       2.503   4.944  18.765  0.00  0.00    +0.000 C 
ATOM     10  C   UNL     1       1.617   5.159  20.023  0.00  0.00    +0.000 C 
ENDROOT
BRANCH   1  11
ATOM     11  O   UNL     1       4.553   5.192  20.007  0.00  0.00    +0.000 OA
ATOM     12  H   UNL     1       3.908   5.517  20.686  0.00  0.00    +0.000 HD
ENDBRANCH   1  11
BRANCH   1  13
ATOM     13  C   UNL     1       4.758   4.247  17.769  0.00  0.00    +0.000 C 
BRANCH  13  14
ATOM     14  C   UNL     1       4.775   5.377  16.686  0.00  0.00    +0.000 C 
ATOM     15  C   UNL     1       5.537   6.664  17.073  0.00  0.00    +0.000 C 
ATOM     16  C   UNL     1       7.064   6.440  17.105  0.00  0.00    +0.000 C 
ATOM     17  N   UNL     1       7.543   5.992  15.790  0.00  0.00    +0.000 NA
ATOM     18  C   UNL     1       6.931   4.713  15.416  0.00  0.00    +0.000 C 
ATOM     19  C   UNL     1       5.399   4.867  15.347  0.00  0.00    +0.000 C 
ATOM     20  H   UNL     1       8.584   5.868  15.833  0.00  0.00    +0.000 HD
ENDBRANCH  13  14
ENDBRANCH   1  13
TORSDOF 3
ENDMDL
MODEL 2
REMARK VINA RESULT:      -8.3      1.202      2.098
REMARK  Name = 
REMARK  3 active torsions:
REMARK  status: ('A' for Active; 'I' for Inactive)
REMARK    1  A    between atoms: O_1  and  C_2
REMARK    2  A    between atoms: C_2  and  C_3
REMARK    3  A    between atoms: C_3  and  C_4
REMARK                            x       y       z     vdW  Elec       q    Type
REMARK                         _______ _______ _______ _____ _____    ______ ____
ROOT
ATOM      1  C   UNL     1       3.639   2.927  18.314  0.00  0.00    +0.000 C 
ATOM      2  C   UNL     1       2.167   3.256  17.813  0.00  0.00    +0.000 C 
ATOM      3  C   UNL     1       1.096   2.482  18.648  0.00  0.00    +0.000 C 
ATOM      4  C   UNL     1       1.183   2.888  20.137  0.00  0.00    +0.000 C 
ATOM      5  C   UNL     1       0.939   4.411  20.275  0.00  0.00    +0.000 C 
ATOM      6  C   UNL     1       1.994   5.173  19.456  0.00  0.00    +0.000 C 
ATOM      7  C   UNL     1       1.877   4.765  17.972  0.00  0.00    +0.000 C 
ATOM      8  C   UNL     1       3.387   4.829  20.028  0.00  0.00    +0.000 C 
ATOM      9  C   UNL     1       3.660   3.312  19.840  0.00  0.00    +0.000 C 
ATOM     10  C   UNL     1       2.589   2.535  20.654  0.00  0.00    +0.000 C 
ENDROOT
BRANCH   1  11
ATOM     11  O   UNL     1       3.902   1.544  18.221  0.00  0.00    +0.000 OA
ATOM     12  H   UNL     1       3.371   1.063  18.906  0.00  0.00    +0.000 HD
ENDBRANCH   1  11
BRANCH   1  13
ATOM     13  C   UNL     1       4.858   3.703  17.610  0.00  0.00    +0.000 C 
BRANCH  13  14
ATOM     14  C   UNL     1       4.687   4.770  16.478  0.00  0.00    +0.000 C 
ATOM     15  C   UNL     1       5.132   6.205  16.838  0.00  0.00    +0.000 C 
ATOM     16  C   UNL     1       6.667   6.321  16.946  0.00  0.00    +0.000 C 
ATOM     17  N   UNL     1       7.300   5.941  15.675  0.00  0.00    +0.000 NA
ATOM     18  C   UNL     1       6.998   4.547  15.334  0.00  0.00    +0.000 C 
ATOM     19  C   UNL     1       5.475   4.361  15.192  0.00  0.00    +0.000 C 
ATOM     20  H   UNL     1       8.339   6.049  15.767  0.00  0.00    +0.000 HD
ENDBRANCH  13  14
ENDBRANCH   1  13
TORSDOF 3
ENDMDL
MODEL 3
REMARK VINA RESULT:      -8.3      1.409      2.469
REMARK  Name = 
REMARK  3 active torsions:
REMARK  status: ('A' for Active; 'I' for Inactive)
REMARK    1  A    between atoms: O_1  and  C_2
REMARK    2  A    between atoms: C_2  and  C_3
REMARK    3  A    between atoms: C_3  and  C_4
REMARK                            x       y       z     vdW  Elec       q    Type
REMARK                         _______ _______ _______ _____ _____    ______ ____
ROOT
ATOM      1  C   UNL     1       4.530   3.576  19.172  0.00  0.00    +0.000 C 
ATOM      2  C   UNL     1       3.894   2.985  17.841  0.00  0.00    +0.000 C 
ATOM      3  C   UNL     1       2.908   1.814  18.154  0.00  0.00    +0.000 C 
ATOM      4  C   UNL     1       1.747   2.316  19.042  0.00  0.00    +0.000 C 
ATOM      5  C   UNL     1       0.985   3.447  18.310  0.00  0.00    +0.000 C 
ATOM      6  C   UNL     1       1.954   4.601  18.005  0.00  0.00    +0.000 C 
ATOM      7  C   UNL     1       3.094   4.082  17.103  0.00  0.00    +0.000 C 
ATOM      8  C   UNL     1       2.497   5.141  19.347  0.00  0.00    +0.000 C 
ATOM      9  C   UNL     1       3.310   4.027  20.058  0.00  0.00    +0.000 C 
ATOM     10  C   UNL     1       2.340   2.852  20.358  0.00  0.00    +0.000 C 
ENDROOT
BRANCH   1  11
ATOM     11  O   UNL     1       5.225   2.575  19.882  0.00  0.00    +0.000 OA
ATOM     12  H   UNL     1       6.005   2.276  19.349  0.00  0.00    +0.000 HD
ENDBRANCH   1  11
BRANCH   1  13
ATOM     13  C   UNL     1       5.511   4.842  19.033  0.00  0.00    +0.000 C 
BRANCH  13  14
ATOM     14  C   UNL     1       7.005   4.753  18.572  0.00  0.00    +0.000 C 
ATOM     15  C   UNL     1       7.226   4.419  17.080  0.00  0.00    +0.000 C 
ATOM     16  C   UNL     1       6.839   5.600  16.163  0.00  0.00    +0.000 C 
ATOM     17  N   UNL     1       7.633   6.790  16.498  0.00  0.00    +0.000 NA
ATOM     18  C   UNL     1       7.381   7.218  17.878  0.00  0.00    +0.000 C 
ATOM     19  C   UNL     1       7.764   6.089  18.854  0.00  0.00    +0.000 C 
ATOM     20  H   UNL     1       7.367   7.570  15.849  0.00  0.00    +0.000 HD
ENDBRANCH  13  14
ENDBRANCH   1  13
TORSDOF 3
ENDMDL
MODEL 4
REMARK VINA RESULT:      -8.2      0.684      1.370
REMARK  Name = 
REMARK  3 active torsions:
REMARK  status: ('A' for Active; 'I' for Inactive)
REMARK    1  A    between atoms: O_1  and  C_2
REMARK    2  A    between atoms: C_2  and  C_3
REMARK    3  A    between atoms: C_3  and  C_4
REMARK                            x       y       z     vdW  Elec       q    Type
REMARK                         _______ _______ _______ _____ _____    ______ ____
ROOT
ATOM      1  C   UNL     1       3.703   4.557  19.090  0.00  0.00    +0.000 C 
ATOM      2  C   UNL     1       3.624   3.065  19.630  0.00  0.00    +0.000 C 
ATOM      3  C   UNL     1       2.820   2.986  20.968  0.00  0.00    +0.000 C 
ATOM      4  C   UNL     1       1.372   3.482  20.752  0.00  0.00    +0.000 C 
ATOM      5  C   UNL     1       0.677   2.603  19.684  0.00  0.00    +0.000 C 
ATOM      6  C   UNL     1       1.465   2.682  18.366  0.00  0.00    +0.000 C 
ATOM      7  C   UNL     1       2.900   2.167  18.600  0.00  0.00    +0.000 C 
ATOM      8  C   UNL     1       1.463   4.153  17.892  0.00  0.00    +0.000 C 
ATOM      9  C   UNL     1       2.210   5.029  18.934  0.00  0.00    +0.000 C 
ATOM     10  C   UNL     1       1.426   4.943  20.272  0.00  0.00    +0.000 C 
ENDROOT
BRANCH   1  11
ATOM     11  O   UNL     1       4.318   5.400  20.039  0.00  0.00    +0.000 OA
ATOM     12  H   UNL     1       5.051   5.905  19.603  0.00  0.00    +0.000 HD
ENDBRANCH   1  11
BRANCH   1  13
ATOM     13  C   UNL     1       4.431   4.804  17.678  0.00  0.00    +0.000 C 
BRANCH  13  14
ATOM     14  C   UNL     1       5.740   4.076  17.223  0.00  0.00    +0.000 C 
ATOM     15  C   UNL     1       5.895   3.866  15.700  0.00  0.00    +0.000 C 
ATOM     16  C   UNL     1       6.176   5.193  14.962  0.00  0.00    +0.000 C 
ATOM     17  N   UNL     1       7.406   5.813  15.475  0.00  0.00    +0.000 NA
ATOM     18  C   UNL     1       7.277   6.134  16.901  0.00  0.00    +0.000 C 
ATOM     19  C   UNL     1       7.011   4.846  17.704  0.00  0.00    +0.000 C 
ATOM     20  H   UNL     1       7.586   6.700  14.945  0.00  0.00    +0.000 HD
ENDBRANCH  13  14
ENDBRANCH   1  13
TORSDOF 3
ENDMDL
MODEL 5
REMARK VINA RESULT:      -7.9      1.382      2.220
REMARK  Name = 
REMARK  3 active torsions:
REMARK  status: ('A' for Active; 'I' for Inactive)
REMARK    1  A    between atoms: O_1  and  C_2
REMARK    2  A    between atoms: C_2  and  C_3
REMARK    3  A    between atoms: C_3  and  C_4
REMARK                            x       y       z     vdW  Elec       q    Type
REMARK                         _______ _______ _______ _____ _____    ______ ____
ROOT
ATOM      1  C   UNL     1       2.481   3.948  17.890  0.00  0.00    +0.000 C 
ATOM      2  C   UNL     1       2.452   4.753  19.259  0.00  0.00    +0.000 C 
ATOM      3  C   UNL     1       1.101   4.538  20.016  0.00  0.00    +0.000 C 
ATOM      4  C   UNL     1       0.908   3.041  20.351  0.00  0.00    +0.000 C 
ATOM      5  C   UNL     1       2.078   2.554  21.240  0.00  0.00    +0.000 C 
ATOM      6  C   UNL     1       3.407   2.762  20.495  0.00  0.00    +0.000 C 
ATOM      7  C   UNL     1       3.587   4.264  20.187  0.00  0.00    +0.000 C 
ATOM      8  C   UNL     1       3.370   1.920  19.201  0.00  0.00    +0.000 C 
ATOM      9  C   UNL     1       2.234   2.443  18.280  0.00  0.00    +0.000 C 
ATOM     10  C   UNL     1       0.889   2.248  19.032  0.00  0.00    +0.000 C 
ENDROOT
BRANCH   1  11
ATOM     11  O   UNL     1       1.422   4.349  17.050  0.00  0.00    +0.000 OA
ATOM     12  H   UNL     1       0.945   5.112  17.466  0.00  0.00    +0.000 HD
ENDBRANCH   1  11
BRANCH   1  13
ATOM     13  C   UNL     1       3.835   3.998  17.023  0.00  0.00    +0.000 C 
BRANCH  13  14
ATOM     14  C   UNL     1       4.643   5.306  16.727  0.00  0.00    +0.000 C 
ATOM     15  C   UNL     1       5.723   5.675  17.768  0.00  0.00    +0.000 C 
ATOM     16  C   UNL     1       6.931   4.715  17.707  0.00  0.00    +0.000 C 
ATOM     17  N   UNL     1       7.541   4.743  16.371  0.00  0.00    +0.000 NA
ATOM     18  C   UNL     1       6.589   4.298  15.349  0.00  0.00    +0.000 C 
ATOM     19  C   UNL     1       5.359   5.227  15.341  0.00  0.00    +0.000 C 
ATOM     20  H   UNL     1       8.370   4.101  16.362  0.00  0.00    +0.000 HD
ENDBRANCH  13  14
ENDBRANCH   1  13
TORSDOF 3
ENDMDL
MODEL 6
REMARK VINA RESULT:      -7.9      1.351      2.212
REMARK  Name = 
REMARK  3 active torsions:
REMARK  status: ('A' for Active; 'I' for Inactive)
REMARK    1  A    between atoms: O_1  and  C_2
REMARK    2  A    between atoms: C_2  and  C_3
REMARK    3  A    between atoms: C_3  and  C_4
REMARK                            x       y       z     vdW  Elec       q    Type
REMARK                         _______ _______ _______ _____ _____    ______ ____
ROOT
ATOM      1  C   UNL     1       3.510   2.741  18.263  0.00  0.00    +0.000 C 
ATOM      2  C   UNL     1       1.950   2.863  17.986  0.00  0.00    +0.000 C 
ATOM      3  C   UNL     1       1.117   2.152  19.101  0.00  0.00    +0.000 C 
ATOM      4  C   UNL     1       1.399   2.802  20.475  0.00  0.00    +0.000 C 
ATOM      5  C   UNL     1       1.017   4.302  20.428  0.00  0.00    +0.000 C 
ATOM      6  C   UNL     1       1.839   5.003  19.333  0.00  0.00    +0.000 C 
ATOM      7  C   UNL     1       1.529   4.350  17.969  0.00  0.00    +0.000 C 
ATOM      8  C   UNL     1       3.335   4.871  19.695  0.00  0.00    +0.000 C 
ATOM      9  C   UNL     1       3.735   3.372  19.688  0.00  0.00    +0.000 C 
ATOM     10  C   UNL     1       2.899   2.654  20.783  0.00  0.00    +0.000 C 
ENDROOT
BRANCH   1  11
ATOM     11  O   UNL     1       3.902   1.388  18.330  0.00  0.00    +0.000 OA
ATOM     12  H   UNL     1       3.297   0.902  18.947  0.00  0.00    +0.000 HD
ENDBRANCH   1  11
BRANCH   1  13
ATOM     13  C   UNL     1       4.509   3.488  17.249  0.00  0.00    +0.000 C 
BRANCH  13  14
ATOM     14  C   UNL     1       5.145   4.894  17.514  0.00  0.00    +0.000 C 
ATOM     15  C   UNL     1       6.645   4.891  17.885  0.00  0.00    +0.000 C 
ATOM     16  C   UNL     1       7.535   4.531  16.675  0.00  0.00    +0.000 C 
ATOM     17  N   UNL     1       7.326   5.490  15.582  0.00  0.00    +0.000 NA
ATOM     18  C   UNL     1       5.936   5.460  15.115  0.00  0.00    +0.000 C 
ATOM     19  C   UNL     1       4.987   5.828  16.273  0.00  0.00    +0.000 C 
ATOM     20  H   UNL     1       7.956   5.236  14.782  0.00  0.00    +0.000 HD
ENDBRANCH  13  14
ENDBRANCH   1  13
TORSDOF 3
ENDMDL
MODEL 7
REMARK VINA RESULT:      -7.9      0.752      1.302
REMARK  Name = 
REMARK  3 active torsions:
REMARK  status: ('A' for Active; 'I' for Inactive)
REMARK    1  A    between atoms: O_1  and  C_2
REMARK    2  A    between atoms: C_2  and  C_3
REMARK    3  A    between atoms: C_3  and  C_4
REMARK                            x       y       z     vdW  Elec       q    Type
REMARK                         _______ _______ _______ _____ _____    ______ ____
ROOT
ATOM      1  C   UNL     1       3.916   4.245  19.263  0.00  0.00    +0.000 C 
ATOM      2  C   UNL     1       3.513   2.902  20.010  0.00  0.00    +0.000 C 
ATOM      3  C   UNL     1       2.424   3.162  21.100  0.00  0.00    +0.000 C 
ATOM      4  C   UNL     1       1.144   3.735  20.449  0.00  0.00    +0.000 C 
ATOM      5  C   UNL     1       0.597   2.730  19.406  0.00  0.00    +0.000 C 
ATOM      6  C   UNL     1       1.668   2.475  18.332  0.00  0.00    +0.000 C 
ATOM      7  C   UNL     1       2.928   1.888  19.001  0.00  0.00    +0.000 C 
ATOM      8  C   UNL     1       1.974   3.818  17.631  0.00  0.00    +0.000 C 
ATOM      9  C   UNL     1       2.576   4.811  18.661  0.00  0.00    +0.000 C 
ATOM     10  C   UNL     1       1.504   5.062  19.757  0.00  0.00    +0.000 C 
ENDROOT
BRANCH   1  11
ATOM     11  O   UNL     1       4.407   5.199  20.178  0.00  0.00    +0.000 OA
ATOM     12  H   UNL     1       3.647   5.603  20.669  0.00  0.00    +0.000 HD
ENDBRANCH   1  11
BRANCH   1  13
ATOM     13  C   UNL     1       4.973   4.141  18.056  0.00  0.00    +0.000 C 
BRANCH  13  14
ATOM     14  C   UNL     1       6.131   5.164  17.808  0.00  0.00    +0.000 C 
ATOM     15  C   UNL     1       7.316   4.643  16.964  0.00  0.00    +0.000 C 
ATOM     16  C   UNL     1       6.930   4.465  15.480  0.00  0.00    +0.000 C 
ATOM     17  N   UNL     1       6.478   5.743  14.912  0.00  0.00    +0.000 NA
ATOM     18  C   UNL     1       5.286   6.235  15.608  0.00  0.00    +0.000 C 
ATOM     19  C   UNL     1       5.605   6.453  17.100  0.00  0.00    +0.000 C 
ATOM     20  H   UNL     1       6.243   5.600  13.899  0.00  0.00    +0.000 HD
ENDBRANCH  13  14
ENDBRANCH   1  13
TORSDOF 3
ENDMDL
MODEL 8
REMARK VINA RESULT:      -7.9      1.412      2.493
REMARK  Name = 
REMARK  3 active torsions:
REMARK  status: ('A' for Active; 'I' for Inactive)
REMARK    1  A    between atoms: O_1  and  C_2
REMARK    2  A    between atoms: C_2  and  C_3
REMARK    3  A    between atoms: C_3  and  C_4
REMARK                            x       y       z     vdW  Elec       q    Type
REMARK                         _______ _______ _______ _____ _____    ______ ____
ROOT
ATOM      1  C   UNL     1       3.532   3.091  18.024  0.00  0.00    +0.000 C 
ATOM      2  C   UNL     1       1.957   3.225  17.864  0.00  0.00    +0.000 C 
ATOM      3  C   UNL     1       1.202   2.363  18.928  0.00  0.00    +0.000 C 
ATOM      4  C   UNL     1       1.568   2.835  20.354  0.00  0.00    +0.000 C 
ATOM      5  C   UNL     1       1.174   4.322  20.525  0.00  0.00    +0.000 C 
ATOM      6  C   UNL     1       1.918   5.171  19.481  0.00  0.00    +0.000 C 
ATOM      7  C   UNL     1       1.525   4.695  18.066  0.00  0.00    +0.000 C 
ATOM      8  C   UNL     1       3.435   5.016  19.728  0.00  0.00    +0.000 C 
ATOM      9  C   UNL     1       3.845   3.536  19.501  0.00  0.00    +0.000 C 
ATOM     10  C   UNL     1       3.086   2.671  20.544  0.00  0.00    +0.000 C 
ENDROOT
BRANCH   1  11
ATOM     11  O   UNL     1       3.937   1.747  17.889  0.00  0.00    +0.000 OA
ATOM     12  H   UNL     1       3.154   1.193  17.640  0.00  0.00    +0.000 HD
ENDBRANCH   1  11
BRANCH   1  13
ATOM     13  C   UNL     1       4.459   3.978  17.054  0.00  0.00    +0.000 C 
BRANCH  13  14
ATOM     14  C   UNL     1       5.914   3.588  16.628  0.00  0.00    +0.000 C 
ATOM     15  C   UNL     1       6.246   3.772  15.130  0.00  0.00    +0.000 C 
ATOM     16  C   UNL     1       6.353   5.264  14.746  0.00  0.00    +0.000 C 
ATOM     17  N   UNL     1       7.398   5.924  15.540  0.00  0.00    +0.000 NA
ATOM     18  C   UNL     1       7.081   5.873  16.971  0.00  0.00    +0.000 C 
ATOM     19  C   UNL     1       6.976   4.406  17.431  0.00  0.00    +0.000 C 
ATOM     20  H   UNL     1       7.466   6.928  15.246  0.00  0.00    +0.000 HD
ENDBRANCH  13  14
ENDBRANCH   1  13
TORSDOF 3
ENDMDL
MODEL 9
REMARK VINA RESULT:      -7.8      1.205      1.681
REMARK  Name = 
REMARK  3 active torsions:
REMARK  status: ('A' for Active; 'I' for Inactive)
REMARK    1  A    between atoms: O_1  and  C_2
REMARK    2  A    between atoms: C_2  and  C_3
REMARK    3  A    between atoms: C_3  and  C_4
REMARK                            x       y       z     vdW  Elec       q    Type
REMARK                         _______ _______ _______ _____ _____    ______ ____
ROOT
ATOM      1  C   UNL     1       2.951   4.789  18.123  0.00  0.00    +0.000 C 
ATOM      2  C   UNL     1       3.499   4.667  19.609  0.00  0.00    +0.000 C 
ATOM      3  C   UNL     1       2.338   4.743  20.652  0.00  0.00    +0.000 C 
ATOM      4  C   UNL     1       1.341   3.583  20.426  0.00  0.00    +0.000 C 
ATOM      5  C   UNL     1       2.077   2.230  20.576  0.00  0.00    +0.000 C 
ATOM      6  C   UNL     1       3.218   2.153  19.548  0.00  0.00    +0.000 C 
ATOM      7  C   UNL     1       4.209   3.308  19.803  0.00  0.00    +0.000 C 
ATOM      8  C   UNL     1       2.600   2.240  18.135  0.00  0.00    +0.000 C 
ATOM      9  C   UNL     1       1.909   3.619  17.961  0.00  0.00    +0.000 C 
ATOM     10  C   UNL     1       0.763   3.710  19.005  0.00  0.00    +0.000 C 
ENDROOT
BRANCH   1  11
ATOM     11  O   UNL     1       2.258   6.004  17.943  0.00  0.00    +0.000 OA
ATOM     12  H   UNL     1       2.023   6.108  16.985  0.00  0.00    +0.000 HD
ENDBRANCH   1  11
BRANCH   1  13
ATOM     13  C   UNL     1       4.011   4.651  16.921  0.00  0.00    +0.000 C 
BRANCH  13  14
ATOM     14  C   UNL     1       5.070   5.743  16.553  0.00  0.00    +0.000 C 
ATOM     15  C   UNL     1       6.255   5.885  17.536  0.00  0.00    +0.000 C 
ATOM     16  C   UNL     1       7.218   4.681  17.452  0.00  0.00    +0.000 C 
ATOM     17  N   UNL     1       7.755   4.549  16.090  0.00  0.00    +0.000 NA
ATOM     18  C   UNL     1       6.679   4.304  15.123  0.00  0.00    +0.000 C 
ATOM     19  C   UNL     1       5.684   5.481  15.140  0.00  0.00    +0.000 C 
ATOM     20  H   UNL     1       8.421   3.739  16.065  0.00  0.00    +0.000 HD
ENDBRANCH  13  14
ENDBRANCH   1  13
TORSDOF 3
ENDMDL
