MODEL 1
REMARK VINA RESULT:      -6.8      0.000      0.000
REMARK  Name = 
REMARK  11 active torsions:
REMARK  status: ('A' for Active; 'I' for Inactive)
REMARK    1  A    between atoms: C_1  and  C_2
REMARK    2  A    between atoms: C_2  and  N_3
REMARK    3  A    between atoms: N_3  and  C_4
REMARK    4  A    between atoms: N_3  and  C_6
REMARK    5  A    between atoms: C_4  and  C_5
REMARK    6  A    between atoms: C_6  and  C_7
REMARK    7  A    between atoms: C_7  and  C_8
REMARK    8  A    between atoms: C_8  and  N_9
REMARK    9  A    between atoms: C_10  and  C_12
REMARK   10  A    between atoms: C_17  and  N_18
REMARK   11  A    between atoms: C_19  and  C_21
REMARK                            x       y       z     vdW  Elec       q    Type
REMARK                         _______ _______ _______ _____ _____    ______ ____
ROOT
ATOM      1  C   UNL     1       6.872   5.046  16.025  0.00  0.00    +0.000 A 
ATOM      2  C   UNL     1       7.537   5.286  14.806  0.00  0.00    +0.000 A 
ATOM      3  C   UNL     1       7.095   4.700  13.623  0.00  0.00    +0.000 A 
ATOM      4  C   UNL     1       5.969   3.886  13.641  0.00  0.00    +0.000 A 
ATOM      5  C   UNL     1       5.297   3.651  14.840  0.00  0.00    +0.000 A 
ATOM      6  C   UNL     1       5.737   4.217  16.050  0.00  0.00    +0.000 A 
ENDROOT
BRANCH   1   8
ATOM      7  N   UNL     1       7.670   6.979  17.261  0.00  0.00    +0.000 N 
ATOM      8  C   UNL     1       7.423   5.616  17.284  0.00  0.00    +0.000 C 
ATOM      9  O   UNL     1       7.662   4.894  18.246  0.00  0.00    +0.000 OA
ATOM     10  H   UNL     1       7.649   7.471  16.377  0.00  0.00    +0.000 HD
BRANCH   7  11
ATOM     11  C   UNL     1       8.194   7.691  18.402  0.00  0.00    +0.000 C 
BRANCH  11  12
ATOM     12  C   UNL     1       8.299   9.192  18.157  0.00  0.00    +0.000 C 
BRANCH  12  13
ATOM     13  C   UNL     1       9.438   9.878  18.932  0.00  0.00    +0.000 C 
BRANCH  13  14
ATOM     14  N   UNL     1       9.153  11.248  19.408  0.00  0.00    +0.000 NA
BRANCH  14  16
ATOM     15  C   UNL     1       9.845  12.421  21.538  0.00  0.00    +0.000 C 
ATOM     16  C   UNL     1       9.039  11.306  20.876  0.00  0.00    +0.000 C 
ENDBRANCH  14  16
BRANCH  14  17
ATOM     17  C   UNL     1      10.115  12.218  18.848  0.00  0.00    +0.000 C 
ATOM     18  C   UNL     1      10.898  11.768  17.617  0.00  0.00    +0.000 C 
ENDBRANCH  14  17
ENDBRANCH  13  14
ENDBRANCH  12  13
ENDBRANCH  11  12
ENDBRANCH   7  11
ENDBRANCH   1   8
BRANCH   6  19
ATOM     19  N   UNL     1       5.036   3.943  17.256  0.00  0.00    +0.000 N 
ATOM     20  C   UNL     1       4.129   4.828  17.805  0.00  0.00    +0.000 C 
ATOM     21  O   UNL     1       3.780   5.872  17.251  0.00  0.00    +0.000 OA
ATOM     22  H   UNL     1       4.992   2.968  17.562  0.00  0.00    +0.000 HD
BRANCH  20  23
ATOM     23  C   UNL     1       3.547   4.435  19.142  0.00  0.00    +0.000 C 
ATOM     24  C   UNL     1       3.726   3.143  19.471  0.00  0.00    +0.000 C 
ATOM     25  S   UNL     1       3.078   2.354  20.857  0.00  0.00    +0.000 S 
ATOM     26  C   UNL     1       2.240   3.726  21.675  0.00  0.00    +0.000 C 
ATOM     27  C   UNL     1       1.818   4.837  20.723  0.00  0.00    +0.000 C 
ATOM     28  O   UNL     1       2.848   5.369  19.879  0.00  0.00    +0.000 OA
ENDBRANCH  20  23
ENDBRANCH   6  19
TORSDOF 9
ENDMDL
MODEL 2
REMARK VINA RESULT:      -6.8      2.533      3.048
REMARK  Name = 
REMARK  11 active torsions:
REMARK  status: ('A' for Active; 'I' for Inactive)
REMARK    1  A    between atoms: C_1  and  C_2
REMARK    2  A    between atoms: C_2  and  N_3
REMARK    3  A    between atoms: N_3  and  C_4
REMARK    4  A    between atoms: N_3  and  C_6
REMARK    5  A    between atoms: C_4  and  C_5
REMARK    6  A    between atoms: C_6  and  C_7
REMARK    7  A    between atoms: C_7  and  C_8
REMARK    8  A    between atoms: C_8  and  N_9
REMARK    9  A    between atoms: C_10  and  C_12
REMARK   10  A    between atoms: C_17  and  N_18
REMARK   11  A    between atoms: C_19  and  C_21
REMARK                            x       y       z     vdW  Elec       q    Type
REMARK                         _______ _______ _______ _____ _____    ______ ____
ROOT
ATOM      1  C   UNL     1       6.650   5.876  16.477  0.00  0.00    +0.000 A 
ATOM      2  C   UNL     1       7.489   5.039  15.714  0.00  0.00    +0.000 A 
ATOM      3  C   UNL     1       6.971   4.245  14.695  0.00  0.00    +0.000 A 
ATOM      4  C   UNL     1       5.611   4.296  14.411  0.00  0.00    +0.000 A 
ATOM      5  C   UNL     1       4.775   5.129  15.152  0.00  0.00    +0.000 A 
ATOM      6  C   UNL     1       5.273   5.925  16.200  0.00  0.00    +0.000 A 
ENDROOT
BRANCH   1   8
ATOM      7  N   UNL     1       7.839   7.837  17.279  0.00  0.00    +0.000 N 
ATOM      8  C   UNL     1       7.222   6.643  17.616  0.00  0.00    +0.000 C 
ATOM      9  O   UNL     1       7.164   6.203  18.759  0.00  0.00    +0.000 OA
ATOM     10  H   UNL     1       8.035   8.035  16.306  0.00  0.00    +0.000 HD
BRANCH   7  11
ATOM     11  C   UNL     1       8.435   8.707  18.264  0.00  0.00    +0.000 C 
BRANCH  11  12
ATOM     12  C   UNL     1       8.293  10.181  17.905  0.00  0.00    +0.000 C 
BRANCH  12  13
ATOM     13  C   UNL     1       9.252  11.111  18.669  0.00  0.00    +0.000 C 
BRANCH  13  14
ATOM     14  N   UNL     1      10.436  11.571  17.912  0.00  0.00    +0.000 NA
BRANCH  14  16
ATOM     15  C   UNL     1      11.441  13.484  16.599  0.00  0.00    +0.000 C 
ATOM     16  C   UNL     1      10.247  12.929  17.371  0.00  0.00    +0.000 C 
ENDBRANCH  14  16
BRANCH  14  17
ATOM     17  C   UNL     1      11.670  11.415  18.706  0.00  0.00    +0.000 C 
ATOM     18  C   UNL     1      11.628  11.933  20.142  0.00  0.00    +0.000 C 
ENDBRANCH  14  17
ENDBRANCH  13  14
ENDBRANCH  12  13
ENDBRANCH  11  12
ENDBRANCH   7  11
ENDBRANCH   1   8
BRANCH   6  19
ATOM     19  N   UNL     1       4.388   6.750  16.945  0.00  0.00    +0.000 N 
ATOM     20  C   UNL     1       3.551   6.248  17.923  0.00  0.00    +0.000 C 
ATOM     21  O   UNL     1       3.574   5.075  18.297  0.00  0.00    +0.000 OA
ATOM     22  H   UNL     1       4.578   7.755  16.954  0.00  0.00    +0.000 HD
BRANCH  20  23
ATOM     23  C   UNL     1       2.598   7.237  18.550  0.00  0.00    +0.000 C 
ATOM     24  C   UNL     1       2.376   8.342  17.815  0.00  0.00    +0.000 C 
ATOM     25  S   UNL     1       1.448   9.709  18.300  0.00  0.00    +0.000 S 
ATOM     26  C   UNL     1       0.867   9.174  19.921  0.00  0.00    +0.000 C 
ATOM     27  C   UNL     1       1.773   8.147  20.586  0.00  0.00    +0.000 C 
ATOM     28  O   UNL     1       2.087   6.984  19.806  0.00  0.00    +0.000 OA
ENDBRANCH  20  23
ENDBRANCH   6  19
TORSDOF 9
ENDMDL
MODEL 3
REMARK VINA RESULT:      -6.5      0.843      1.336
REMARK  Name = 
REMARK  11 active torsions:
REMARK  status: ('A' for Active; 'I' for Inactive)
REMARK    1  A    between atoms: C_1  and  C_2
REMARK    2  A    between atoms: C_2  and  N_3
REMARK    3  A    between atoms: N_3  and  C_4
REMARK    4  A    between atoms: N_3  and  C_6
REMARK    5  A    between atoms: C_4  and  C_5
REMARK    6  A    between atoms: C_6  and  C_7
REMARK    7  A    between atoms: C_7  and  C_8
REMARK    8  A    between atoms: C_8  and  N_9
REMARK    9  A    between atoms: C_10  and  C_12
REMARK   10  A    between atoms: C_17  and  N_18
REMARK   11  A    between atoms: C_19  and  C_21
REMARK                            x       y       z     vdW  Elec       q    Type
REMARK                         _______ _______ _______ _____ _____    ______ ____
ROOT
ATOM      1  C   UNL     1       6.761   5.055  15.531  0.00  0.00    +0.000 A 
ATOM      2  C   UNL     1       7.432   5.197  14.301  0.00  0.00    +0.000 A 
ATOM      3  C   UNL     1       6.961   4.567  13.152  0.00  0.00    +0.000 A 
ATOM      4  C   UNL     1       5.800   3.806  13.216  0.00  0.00    +0.000 A 
ATOM      5  C   UNL     1       5.122   3.668  14.427  0.00  0.00    +0.000 A 
ATOM      6  C   UNL     1       5.591   4.280  15.603  0.00  0.00    +0.000 A 
ENDROOT
BRANCH   1   8
ATOM      7  N   UNL     1       7.252   7.049  16.830  0.00  0.00    +0.000 N 
ATOM      8  C   UNL     1       7.342   5.668  16.756  0.00  0.00    +0.000 C 
ATOM      9  O   UNL     1       7.884   4.972  17.608  0.00  0.00    +0.000 OA
ATOM     10  H   UNL     1       6.984   7.572  16.006  0.00  0.00    +0.000 HD
BRANCH   7  11
ATOM     11  C   UNL     1       7.755   7.800  17.955  0.00  0.00    +0.000 C 
BRANCH  11  12
ATOM     12  C   UNL     1       8.556   9.025  17.529  0.00  0.00    +0.000 C 
BRANCH  12  13
ATOM     13  C   UNL     1       8.639  10.126  18.601  0.00  0.00    +0.000 C 
BRANCH  13  14
ATOM     14  N   UNL     1       9.412  11.329  18.223  0.00  0.00    +0.000 NA
BRANCH  14  16
ATOM     15  C   UNL     1       8.677  13.748  18.231  0.00  0.00    +0.000 C 
ATOM     16  C   UNL     1       8.557  12.359  17.607  0.00  0.00    +0.000 C 
ENDBRANCH  14  16
BRANCH  14  17
ATOM     17  C   UNL     1      10.215  11.824  19.358  0.00  0.00    +0.000 C 
ATOM     18  C   UNL     1       9.779  11.371  20.750  0.00  0.00    +0.000 C 
ENDBRANCH  14  17
ENDBRANCH  13  14
ENDBRANCH  12  13
ENDBRANCH  11  12
ENDBRANCH   7  11
ENDBRANCH   1   8
BRANCH   6  19
ATOM     19  N   UNL     1       4.883   4.104  16.823  0.00  0.00    +0.000 N 
ATOM     20  C   UNL     1       4.193   5.133  17.436  0.00  0.00    +0.000 C 
ATOM     21  O   UNL     1       4.053   6.248  16.933  0.00  0.00    +0.000 OA
ATOM     22  H   UNL     1       4.646   3.147  17.095  0.00  0.00    +0.000 HD
BRANCH  20  23
ATOM     23  C   UNL     1       3.581   4.811  18.779  0.00  0.00    +0.000 C 
ATOM     24  C   UNL     1       3.596   3.505  19.101  0.00  0.00    +0.000 C 
ATOM     25  S   UNL     1       2.868   2.798  20.492  0.00  0.00    +0.000 S 
ATOM     26  C   UNL     1       2.221   4.262  21.324  0.00  0.00    +0.000 C 
ATOM     27  C   UNL     1       1.934   5.423  20.381  0.00  0.00    +0.000 C 
ATOM     28  O   UNL     1       3.015   5.823  19.526  0.00  0.00    +0.000 OA
ENDBRANCH  20  23
ENDBRANCH   6  19
TORSDOF 9
ENDMDL
MODEL 4
REMARK VINA RESULT:      -6.4      4.476      6.757
REMARK  Name = 
REMARK  11 active torsions:
REMARK  status: ('A' for Active; 'I' for Inactive)
REMARK    1  A    between atoms: C_1  and  C_2
REMARK    2  A    between atoms: C_2  and  N_3
REMARK    3  A    between atoms: N_3  and  C_4
REMARK    4  A    between atoms: N_3  and  C_6
REMARK    5  A    between atoms: C_4  and  C_5
REMARK    6  A    between atoms: C_6  and  C_7
REMARK    7  A    between atoms: C_7  and  C_8
REMARK    8  A    between atoms: C_8  and  N_9
REMARK    9  A    between atoms: C_10  and  C_12
REMARK   10  A    between atoms: C_17  and  N_18
REMARK   11  A    between atoms: C_19  and  C_21
REMARK                            x       y       z     vdW  Elec       q    Type
REMARK                         _______ _______ _______ _____ _____    ______ ____
ROOT
ATOM      1  C   UNL     1       3.461   3.882  18.043  0.00  0.00    +0.000 A 
ATOM      2  C   UNL     1       3.575   2.483  17.922  0.00  0.00    +0.000 A 
ATOM      3  C   UNL     1       2.518   1.647  18.273  0.00  0.00    +0.000 A 
ATOM      4  C   UNL     1       1.327   2.203  18.727  0.00  0.00    +0.000 A 
ATOM      5  C   UNL     1       1.202   3.586  18.839  0.00  0.00    +0.000 A 
ATOM      6  C   UNL     1       2.263   4.449  18.509  0.00  0.00    +0.000 A 
ENDROOT
BRANCH   1   8
ATOM      7  N   UNL     1       5.856   4.078  17.679  0.00  0.00    +0.000 N 
ATOM      8  C   UNL     1       4.640   4.739  17.744  0.00  0.00    +0.000 C 
ATOM      9  O   UNL     1       4.513   5.951  17.603  0.00  0.00    +0.000 OA
ATOM     10  H   UNL     1       5.918   3.123  18.011  0.00  0.00    +0.000 HD
BRANCH   7  11
ATOM     11  C   UNL     1       7.095   4.758  17.389  0.00  0.00    +0.000 C 
BRANCH  11  12
ATOM     12  C   UNL     1       7.495   4.645  15.923  0.00  0.00    +0.000 C 
BRANCH  12  13
ATOM     13  C   UNL     1       6.393   4.078  15.011  0.00  0.00    +0.000 C 
BRANCH  13  14
ATOM     14  N   UNL     1       6.477   4.468  13.587  0.00  0.00    +0.000 NA
BRANCH  14  16
ATOM     15  C   UNL     1       7.833   5.756  11.886  0.00  0.00    +0.000 C 
ATOM     16  C   UNL     1       7.761   5.118  13.271  0.00  0.00    +0.000 C 
ENDBRANCH  14  16
BRANCH  14  17
ATOM     17  C   UNL     1       6.153   3.331  12.704  0.00  0.00    +0.000 C 
ATOM     18  C   UNL     1       4.845   3.427  11.921  0.00  0.00    +0.000 C 
ENDBRANCH  14  17
ENDBRANCH  13  14
ENDBRANCH  12  13
ENDBRANCH  11  12
ENDBRANCH   7  11
ENDBRANCH   1   8
BRANCH   6  19
ATOM     19  N   UNL     1       2.104   5.853  18.651  0.00  0.00    +0.000 N 
ATOM     20  C   UNL     1       2.016   6.470  19.885  0.00  0.00    +0.000 C 
ATOM     21  O   UNL     1       2.167   5.874  20.952  0.00  0.00    +0.000 OA
ATOM     22  H   UNL     1       2.342   6.437  17.846  0.00  0.00    +0.000 HD
BRANCH  20  23
ATOM     23  C   UNL     1       1.744   7.955  19.865  0.00  0.00    +0.000 C 
ATOM     24  C   UNL     1       1.228   8.444  21.007  0.00  0.00    +0.000 C 
ATOM     25  S   UNL     1       0.691  10.060  21.262  0.00  0.00    +0.000 S 
ATOM     26  C   UNL     1       1.095  10.814  19.674  0.00  0.00    +0.000 C 
ATOM     27  C   UNL     1       1.137   9.820  18.521  0.00  0.00    +0.000 C 
ATOM     28  O   UNL     1       1.976   8.671  18.709  0.00  0.00    +0.000 OA
ENDBRANCH  20  23
ENDBRANCH   6  19
TORSDOF 9
ENDMDL
MODEL 5
REMARK VINA RESULT:      -6.4      1.143      1.313
REMARK  Name = 
REMARK  11 active torsions:
REMARK  status: ('A' for Active; 'I' for Inactive)
REMARK    1  A    between atoms: C_1  and  C_2
REMARK    2  A    between atoms: C_2  and  N_3
REMARK    3  A    between atoms: N_3  and  C_4
REMARK    4  A    between atoms: N_3  and  C_6
REMARK    5  A    between atoms: C_4  and  C_5
REMARK    6  A    between atoms: C_6  and  C_7
REMARK    7  A    between atoms: C_7  and  C_8
REMARK    8  A    between atoms: C_8  and  N_9
REMARK    9  A    between atoms: C_10  and  C_12
REMARK   10  A    between atoms: C_17  and  N_18
REMARK   11  A    between atoms: C_19  and  C_21
REMARK                            x       y       z     vdW  Elec       q    Type
REMARK                         _______ _______ _______ _____ _____    ______ ____
ROOT
ATOM      1  C   UNL     1       6.806   5.329  15.999  0.00  0.00    +0.000 A 
ATOM      2  C   UNL     1       7.534   5.296  14.792  0.00  0.00    +0.000 A 
ATOM      3  C   UNL     1       7.031   4.641  13.672  0.00  0.00    +0.000 A 
ATOM      4  C   UNL     1       5.785   4.029  13.738  0.00  0.00    +0.000 A 
ATOM      5  C   UNL     1       5.052   4.066  14.923  0.00  0.00    +0.000 A 
ATOM      6  C   UNL     1       5.549   4.706  16.073  0.00  0.00    +0.000 A 
ENDROOT
BRANCH   1   8
ATOM      7  N   UNL     1       7.604   7.331  17.121  0.00  0.00    +0.000 N 
ATOM      8  C   UNL     1       7.412   5.961  17.202  0.00  0.00    +0.000 C 
ATOM      9  O   UNL     1       7.738   5.282  18.169  0.00  0.00    +0.000 OA
ATOM     10  H   UNL     1       7.510   7.792  16.224  0.00  0.00    +0.000 HD
BRANCH   7  11
ATOM     11  C   UNL     1       8.170   8.100  18.202  0.00  0.00    +0.000 C 
BRANCH  11  12
ATOM     12  C   UNL     1       8.245   9.589  17.886  0.00  0.00    +0.000 C 
BRANCH  12  13
ATOM     13  C   UNL     1       9.176  10.386  18.817  0.00  0.00    +0.000 C 
BRANCH  13  14
ATOM     14  N   UNL     1       9.552  11.735  18.344  0.00  0.00    +0.000 NA
BRANCH  14  16
ATOM     15  C   UNL     1       8.321  13.881  18.866  0.00  0.00    +0.000 C 
ATOM     16  C   UNL     1       9.253  12.771  19.348  0.00  0.00    +0.000 C 
ENDBRANCH  14  16
BRANCH  14  17
ATOM     17  C   UNL     1      10.946  11.760  17.861  0.00  0.00    +0.000 C 
ATOM     18  C   UNL     1      11.351  12.962  17.010  0.00  0.00    +0.000 C 
ENDBRANCH  14  17
ENDBRANCH  13  14
ENDBRANCH  12  13
ENDBRANCH  11  12
ENDBRANCH   7  11
ENDBRANCH   1   8
BRANCH   6  19
ATOM     19  N   UNL     1       4.781   4.708  17.269  0.00  0.00    +0.000 N 
ATOM     20  C   UNL     1       4.218   3.560  17.793  0.00  0.00    +0.000 C 
ATOM     21  O   UNL     1       4.416   2.437  17.329  0.00  0.00    +0.000 OA
ATOM     22  H   UNL     1       4.887   5.512  17.893  0.00  0.00    +0.000 HD
BRANCH  20  23
ATOM     23  C   UNL     1       3.345   3.748  19.011  0.00  0.00    +0.000 C 
ATOM     24  C   UNL     1       2.578   2.686  19.318  0.00  0.00    +0.000 C 
ATOM     25  S   UNL     1       1.388   2.624  20.561  0.00  0.00    +0.000 S 
ATOM     26  C   UNL     1       1.564   4.265  21.289  0.00  0.00    +0.000 C 
ATOM     27  C   UNL     1       2.117   5.304  20.323  0.00  0.00    +0.000 C 
ATOM     28  O   UNL     1       3.345   4.963  19.665  0.00  0.00    +0.000 OA
ENDBRANCH  20  23
ENDBRANCH   6  19
TORSDOF 9
ENDMDL
MODEL 6
REMARK VINA RESULT:      -6.4      4.236      6.355
REMARK  Name = 
REMARK  11 active torsions:
REMARK  status: ('A' for Active; 'I' for Inactive)
REMARK    1  A    between atoms: C_1  and  C_2
REMARK    2  A    between atoms: C_2  and  N_3
REMARK    3  A    between atoms: N_3  and  C_4
REMARK    4  A    between atoms: N_3  and  C_6
REMARK    5  A    between atoms: C_4  and  C_5
REMARK    6  A    between atoms: C_6  and  C_7
REMARK    7  A    between atoms: C_7  and  C_8
REMARK    8  A    between atoms: C_8  and  N_9
REMARK    9  A    between atoms: C_10  and  C_12
REMARK   10  A    between atoms: C_17  and  N_18
REMARK   11  A    between atoms: C_19  and  C_21
REMARK                            x       y       z     vdW  Elec       q    Type
REMARK                         _______ _______ _______ _____ _____    ______ ____
ROOT
ATOM      1  C   UNL     1       3.672   3.751  18.914  0.00  0.00    +0.000 A 
ATOM      2  C   UNL     1       3.714   2.344  18.977  0.00  0.00    +0.000 A 
ATOM      3  C   UNL     1       2.546   1.590  18.917  0.00  0.00    +0.000 A 
ATOM      4  C   UNL     1       1.323   2.234  18.771  0.00  0.00    +0.000 A 
ATOM      5  C   UNL     1       1.271   3.625  18.697  0.00  0.00    +0.000 A 
ATOM      6  C   UNL     1       2.437   4.407  18.774  0.00  0.00    +0.000 A 
ENDROOT
BRANCH   1   8
ATOM      7  N   UNL     1       6.019   4.049  18.359  0.00  0.00    +0.000 N 
ATOM      8  C   UNL     1       4.931   4.529  19.071  0.00  0.00    +0.000 C 
ATOM      9  O   UNL     1       4.976   5.504  19.812  0.00  0.00    +0.000 OA
ATOM     10  H   UNL     1       5.968   3.130  17.938  0.00  0.00    +0.000 HD
BRANCH   7  11
ATOM     11  C   UNL     1       7.311   4.691  18.391  0.00  0.00    +0.000 C 
BRANCH  11  12
ATOM     12  C   UNL     1       7.578   5.530  17.147  0.00  0.00    +0.000 C 
BRANCH  12  13
ATOM     13  C   UNL     1       7.552   4.733  15.831  0.00  0.00    +0.000 C 
BRANCH  13  14
ATOM     14  N   UNL     1       6.252   4.699  15.129  0.00  0.00    +0.000 NA
BRANCH  14  16
ATOM     15  C   UNL     1       4.717   6.428  16.153  0.00  0.00    +0.000 C 
ATOM     16  C   UNL     1       5.657   6.042  15.012  0.00  0.00    +0.000 C 
ENDBRANCH  14  16
BRANCH  14  17
ATOM     17  C   UNL     1       6.360   3.984  13.842  0.00  0.00    +0.000 C 
ATOM     18  C   UNL     1       5.068   3.816  13.045  0.00  0.00    +0.000 C 
ENDBRANCH  14  17
ENDBRANCH  13  14
ENDBRANCH  12  13
ENDBRANCH  11  12
ENDBRANCH   7  11
ENDBRANCH   1   8
BRANCH   6  19
ATOM     19  N   UNL     1       2.344   5.824  18.711  0.00  0.00    +0.000 N 
ATOM     20  C   UNL     1       1.977   6.593  19.799  0.00  0.00    +0.000 C 
ATOM     21  O   UNL     1       1.798   6.131  20.926  0.00  0.00    +0.000 OA
ATOM     22  H   UNL     1       2.827   6.293  17.941  0.00  0.00    +0.000 HD
BRANCH  20  23
ATOM     23  C   UNL     1       1.824   8.074  19.541  0.00  0.00    +0.000 C 
ATOM     24  C   UNL     1       1.138   8.738  20.489  0.00  0.00    +0.000 C 
ATOM     25  S   UNL     1       0.684  10.398  20.431  0.00  0.00    +0.000 S 
ATOM     26  C   UNL     1       1.435  10.907  18.872  0.00  0.00    +0.000 C 
ATOM     27  C   UNL     1       1.621   9.764  17.882  0.00  0.00    +0.000 C 
ATOM     28  O   UNL     1       2.322   8.613  18.373  0.00  0.00    +0.000 OA
ENDBRANCH  20  23
ENDBRANCH   6  19
TORSDOF 9
ENDMDL
MODEL 7
REMARK VINA RESULT:      -6.3      1.202      1.375
REMARK  Name = 
REMARK  11 active torsions:
REMARK  status: ('A' for Active; 'I' for Inactive)
REMARK    1  A    between atoms: C_1  and  C_2
REMARK    2  A    between atoms: C_2  and  N_3
REMARK    3  A    between atoms: N_3  and  C_4
REMARK    4  A    between atoms: N_3  and  C_6
REMARK    5  A    between atoms: C_4  and  C_5
REMARK    6  A    between atoms: C_6  and  C_7
REMARK    7  A    between atoms: C_7  and  C_8
REMARK    8  A    between atoms: C_8  and  N_9
REMARK    9  A    between atoms: C_10  and  C_12
REMARK   10  A    between atoms: C_17  and  N_18
REMARK   11  A    between atoms: C_19  and  C_21
REMARK                            x       y       z     vdW  Elec       q    Type
REMARK                         _______ _______ _______ _____ _____    ______ ____
ROOT
ATOM      1  C   UNL     1       6.864   5.034  15.740  0.00  0.00    +0.000 A 
ATOM      2  C   UNL     1       7.494   5.400  14.534  0.00  0.00    +0.000 A 
ATOM      3  C   UNL     1       7.165   4.772  13.336  0.00  0.00    +0.000 A 
ATOM      4  C   UNL     1       6.185   3.786  13.326  0.00  0.00    +0.000 A 
ATOM      5  C   UNL     1       5.548   3.424  14.512  0.00  0.00    +0.000 A 
ATOM      6  C   UNL     1       5.878   4.032  15.737  0.00  0.00    +0.000 A 
ENDROOT
BRANCH   1   8
ATOM      7  N   UNL     1       7.626   7.007  16.935  0.00  0.00    +0.000 N 
ATOM      8  C   UNL     1       7.303   5.662  17.015  0.00  0.00    +0.000 C 
ATOM      9  O   UNL     1       7.392   4.998  18.042  0.00  0.00    +0.000 OA
ATOM     10  H   UNL     1       7.731   7.437  16.024  0.00  0.00    +0.000 HD
BRANCH   7  11
ATOM     11  C   UNL     1       8.060   7.770  18.080  0.00  0.00    +0.000 C 
BRANCH  11  12
ATOM     12  C   UNL     1       7.768   9.259  17.936  0.00  0.00    +0.000 C 
BRANCH  12  13
ATOM     13  C   UNL     1       9.017  10.156  18.013  0.00  0.00    +0.000 C 
BRANCH  13  14
ATOM     14  N   UNL     1       9.103  11.032  19.201  0.00  0.00    +0.000 NA
BRANCH  14  16
ATOM     15  C   UNL     1      11.018  12.067  20.486  0.00  0.00    +0.000 C 
ATOM     16  C   UNL     1      10.342  10.801  19.964  0.00  0.00    +0.000 C 
ENDBRANCH  14  16
BRANCH  14  17
ATOM     17  C   UNL     1       8.884  12.445  18.837  0.00  0.00    +0.000 C 
ATOM     18  C   UNL     1       8.380  12.715  17.420  0.00  0.00    +0.000 C 
ENDBRANCH  14  17
ENDBRANCH  13  14
ENDBRANCH  12  13
ENDBRANCH  11  12
ENDBRANCH   7  11
ENDBRANCH   1   8
BRANCH   6  19
ATOM     19  N   UNL     1       5.219   3.626  16.928  0.00  0.00    +0.000 N 
ATOM     20  C   UNL     1       4.113   4.287  17.428  0.00  0.00    +0.000 C 
ATOM     21  O   UNL     1       3.552   5.211  16.837  0.00  0.00    +0.000 OA
ATOM     22  H   UNL     1       5.391   2.673  17.259  0.00  0.00    +0.000 HD
BRANCH  20  23
ATOM     23  C   UNL     1       3.593   3.795  18.757  0.00  0.00    +0.000 C 
ATOM     24  C   UNL     1       2.871   4.700  19.444  0.00  0.00    +0.000 C 
ATOM     25  S   UNL     1       2.249   4.498  21.037  0.00  0.00    +0.000 S 
ATOM     26  C   UNL     1       2.766   2.808  21.398  0.00  0.00    +0.000 C 
ATOM     27  C   UNL     1       3.995   2.365  20.613  0.00  0.00    +0.000 C 
ATOM     28  O   UNL     1       3.926   2.529  19.190  0.00  0.00    +0.000 OA
ENDBRANCH  20  23
ENDBRANCH   6  19
TORSDOF 9
ENDMDL
MODEL 8
REMARK VINA RESULT:      -6.3      1.105      1.576
REMARK  Name = 
REMARK  11 active torsions:
REMARK  status: ('A' for Active; 'I' for Inactive)
REMARK    1  A    between atoms: C_1  and  C_2
REMARK    2  A    between atoms: C_2  and  N_3
REMARK    3  A    between atoms: N_3  and  C_4
REMARK    4  A    between atoms: N_3  and  C_6
REMARK    5  A    between atoms: C_4  and  C_5
REMARK    6  A    between atoms: C_6  and  C_7
REMARK    7  A    between atoms: C_7  and  C_8
REMARK    8  A    between atoms: C_8  and  N_9
REMARK    9  A    between atoms: C_10  and  C_12
REMARK   10  A    between atoms: C_17  and  N_18
REMARK   11  A    between atoms: C_19  and  C_21
REMARK                            x       y       z     vdW  Elec       q    Type
REMARK                         _______ _______ _______ _____ _____    ______ ____
ROOT
ATOM      1  C   UNL     1       6.352   5.724  15.952  0.00  0.00    +0.000 A 
ATOM      2  C   UNL     1       7.204   5.752  14.829  0.00  0.00    +0.000 A 
ATOM      3  C   UNL     1       7.102   4.788  13.831  0.00  0.00    +0.000 A 
ATOM      4  C   UNL     1       6.133   3.797  13.932  0.00  0.00    +0.000 A 
ATOM      5  C   UNL     1       5.279   3.767  15.033  0.00  0.00    +0.000 A 
ATOM      6  C   UNL     1       5.376   4.720  16.063  0.00  0.00    +0.000 A 
ENDROOT
BRANCH   1   8
ATOM      7  N   UNL     1       7.848   6.848  17.503  0.00  0.00    +0.000 N 
ATOM      8  C   UNL     1       6.548   6.717  17.043  0.00  0.00    +0.000 C 
ATOM      9  O   UNL     1       5.595   7.338  17.502  0.00  0.00    +0.000 OA
ATOM     10  H   UNL     1       8.541   6.162  17.229  0.00  0.00    +0.000 HD
BRANCH   7  11
ATOM     11  C   UNL     1       8.212   7.773  18.548  0.00  0.00    +0.000 C 
BRANCH  11  12
ATOM     12  C   UNL     1       8.465   9.181  18.022  0.00  0.00    +0.000 C 
BRANCH  12  13
ATOM     13  C   UNL     1       8.959  10.173  19.090  0.00  0.00    +0.000 C 
BRANCH  13  14
ATOM     14  N   UNL     1      10.128  10.993  18.709  0.00  0.00    +0.000 NA
BRANCH  14  16
ATOM     15  C   UNL     1       8.914  13.161  18.246  0.00  0.00    +0.000 C 
ATOM     16  C   UNL     1       9.778  12.021  17.713  0.00  0.00    +0.000 C 
ENDBRANCH  14  16
BRANCH  14  17
ATOM     17  C   UNL     1      10.813  11.530  19.901  0.00  0.00    +0.000 C 
ATOM     18  C   UNL     1      12.282  11.912  19.730  0.00  0.00    +0.000 C 
ENDBRANCH  14  17
ENDBRANCH  13  14
ENDBRANCH  12  13
ENDBRANCH  11  12
ENDBRANCH   7  11
ENDBRANCH   1   8
BRANCH   6  19
ATOM     19  N   UNL     1       4.498   4.649  17.179  0.00  0.00    +0.000 N 
ATOM     20  C   UNL     1       4.885   4.117  18.395  0.00  0.00    +0.000 C 
ATOM     21  O   UNL     1       6.036   3.758  18.642  0.00  0.00    +0.000 OA
ATOM     22  H   UNL     1       3.673   5.252  17.166  0.00  0.00    +0.000 HD
BRANCH  20  23
ATOM     23  C   UNL     1       3.805   4.019  19.446  0.00  0.00    +0.000 C 
ATOM     24  C   UNL     1       3.793   2.858  20.127  0.00  0.00    +0.000 C 
ATOM     25  S   UNL     1       2.619   2.384  21.295  0.00  0.00    +0.000 S 
ATOM     26  C   UNL     1       1.573   3.852  21.348  0.00  0.00    +0.000 C 
ATOM     27  C   UNL     1       1.604   4.671  20.065  0.00  0.00    +0.000 C 
ATOM     28  O   UNL     1       2.903   5.053  19.592  0.00  0.00    +0.000 OA
ENDBRANCH  20  23
ENDBRANCH   6  19
TORSDOF 9
ENDMDL
MODEL 9
REMARK VINA RESULT:      -6.3      1.461      1.576
REMARK  Name = 
REMARK  11 active torsions:
REMARK  status: ('A' for Active; 'I' for Inactive)
REMARK    1  A    between atoms: C_1  and  C_2
REMARK    2  A    between atoms: C_2  and  N_3
REMARK    3  A    between atoms: N_3  and  C_4
REMARK    4  A    between atoms: N_3  and  C_6
REMARK    5  A    between atoms: C_4  and  C_5
REMARK    6  A    between atoms: C_6  and  C_7
REMARK    7  A    between atoms: C_7  and  C_8
REMARK    8  A    between atoms: C_8  and  N_9
REMARK    9  A    between atoms: C_10  and  C_12
REMARK   10  A    between atoms: C_17  and  N_18
REMARK   11  A    between atoms: C_19  and  C_21
REMARK                            x       y       z     vdW  Elec       q    Type
REMARK                         _______ _______ _______ _____ _____    ______ ____
ROOT
ATOM      1  C   UNL     1       6.722   5.123  15.586  0.00  0.00    +0.000 A 
ATOM      2  C   UNL     1       7.603   5.004  14.493  0.00  0.00    +0.000 A 
ATOM      3  C   UNL     1       7.201   4.381  13.315  0.00  0.00    +0.000 A 
ATOM      4  C   UNL     1       5.905   3.889  13.209  0.00  0.00    +0.000 A 
ATOM      5  C   UNL     1       5.022   4.012  14.280  0.00  0.00    +0.000 A 
ATOM      6  C   UNL     1       5.413   4.621  15.486  0.00  0.00    +0.000 A 
ENDROOT
BRANCH   1   8
ATOM      7  N   UNL     1       7.026   7.083  16.991  0.00  0.00    +0.000 N 
ATOM      8  C   UNL     1       7.212   5.715  16.860  0.00  0.00    +0.000 C 
ATOM      9  O   UNL     1       7.767   5.018  17.702  0.00  0.00    +0.000 OA
ATOM     10  H   UNL     1       6.755   7.625  16.181  0.00  0.00    +0.000 HD
BRANCH   7  11
ATOM     11  C   UNL     1       7.434   7.811  18.168  0.00  0.00    +0.000 C 
BRANCH  11  12
ATOM     12  C   UNL     1       8.289   9.028  17.836  0.00  0.00    +0.000 C 
BRANCH  12  13
ATOM     13  C   UNL     1       9.146   9.535  19.009  0.00  0.00    +0.000 C 
BRANCH  13  14
ATOM     14  N   UNL     1       9.075  10.988  19.272  0.00  0.00    +0.000 NA
BRANCH  14  16
ATOM     15  C   UNL     1      11.151  12.094  20.197  0.00  0.00    +0.000 C 
ATOM     16  C   UNL     1       9.838  11.367  20.474  0.00  0.00    +0.000 C 
ENDBRANCH  14  16
BRANCH  14  17
ATOM     17  C   UNL     1       9.437  11.764  18.070  0.00  0.00    +0.000 C 
ATOM     18  C   UNL     1       8.422  12.802  17.596  0.00  0.00    +0.000 C 
ENDBRANCH  14  17
ENDBRANCH  13  14
ENDBRANCH  12  13
ENDBRANCH  11  12
ENDBRANCH   7  11
ENDBRANCH   1   8
BRANCH   6  19
ATOM     19  N   UNL     1       4.491   4.714  16.563  0.00  0.00    +0.000 N 
ATOM     20  C   UNL     1       4.122   3.619  17.322  0.00  0.00    +0.000 C 
ATOM     21  O   UNL     1       4.631   2.505  17.195  0.00  0.00    +0.000 OA
ATOM     22  H   UNL     1       4.320   5.642  16.957  0.00  0.00    +0.000 HD
BRANCH  20  23
ATOM     23  C   UNL     1       3.054   3.865  18.362  0.00  0.00    +0.000 C 
ATOM     24  C   UNL     1       3.173   5.032  19.020  0.00  0.00    +0.000 C 
ATOM     25  S   UNL     1       2.199   5.550  20.342  0.00  0.00    +0.000 S 
ATOM     26  C   UNL     1       1.036   4.177  20.473  0.00  0.00    +0.000 C 
ATOM     27  C   UNL     1       1.583   2.861  19.937  0.00  0.00    +0.000 C 
ATOM     28  O   UNL     1       2.105   2.893  18.601  0.00  0.00    +0.000 OA
ENDBRANCH  20  23
ENDBRANCH   6  19
TORSDOF 9
ENDMDL
