MODEL 1
REMARK VINA RESULT:      -5.4      0.000      0.000
REMARK  Name = 
REMARK  10 active torsions:
REMARK  status: ('A' for Active; 'I' for Inactive)
REMARK    1  A    between atoms: N_1  and  C_2
REMARK    2  A    between atoms: C_2  and  C_3
REMARK    3  A    between atoms: C_3  and  C_4
REMARK    4  A    between atoms: C_4  and  C_5
REMARK    5  A    between atoms: C_5  and  O_6
REMARK    6  A    between atoms: C_5  and  P_7
REMARK    7  A    between atoms: C_5  and  P_11
REMARK    8  A    between atoms: P_7  and  O_10
REMARK    9  A    between atoms: P_11  and  O_13
REMARK   10  A    between atoms: P_11  and  O_14
REMARK                            x       y       z     vdW  Elec       q    Type
REMARK                         _______ _______ _______ _____ _____    ______ ____
ROOT
ATOM      1  C   UNL     1       5.762   5.518  17.577  0.00  0.00    +0.000 C 
ENDROOT
BRANCH   1   2
ATOM      2  P   UNL     1       6.939   5.474  18.978  0.00  0.00    +0.000 P 
ATOM      3  O   UNL     1       5.889   4.827  19.901  0.00  0.00    +0.000 OA
ATOM      4  O   UNL     1       7.903   4.532  18.218  0.00  0.00    +0.000 OA
BRANCH   2   5
ATOM      5  O   UNL     1       8.052   5.431  20.302  0.00  0.00    +0.000 OA
ATOM      6  H   UNL     1       8.103   4.464  20.432  0.00  0.00    +0.000 HD
ENDBRANCH   2   5
ENDBRANCH   1   2
BRANCH   1   7
ATOM      7  O   UNL     1       5.041   6.785  17.664  0.00  0.00    +0.000 OA
ATOM      8  H   UNL     1       5.721   7.344  18.114  0.00  0.00    +0.000 HD
ENDBRANCH   1   7
BRANCH   1   9
ATOM      9  P   UNL     1       6.683   5.382  16.001  0.00  0.00    +0.000 P 
ATOM     10  O   UNL     1       5.562   5.989  15.149  0.00  0.00    +0.000 OA
BRANCH   9  11
ATOM     11  O   UNL     1       7.707   6.615  16.329  0.00  0.00    +0.000 OA
ATOM     12  H   UNL     1       7.188   7.417  16.627  0.00  0.00    +0.000 HD
ENDBRANCH   9  11
BRANCH   9  13
ATOM     13  O   UNL     1       7.555   5.254  14.512  0.00  0.00    +0.000 OA
ATOM     14  H   UNL     1       6.836   5.106  13.864  0.00  0.00    +0.000 HD
ENDBRANCH   9  13
ENDBRANCH   1   9
BRANCH   1  15
ATOM     15  C   UNL     1       4.716   4.374  17.641  0.00  0.00    +0.000 C 
BRANCH  15  16
ATOM     16  C   UNL     1       3.257   4.875  17.631  0.00  0.00    +0.000 C 
BRANCH  16  17
ATOM     17  C   UNL     1       2.623   4.713  19.016  0.00  0.00    +0.000 C 
BRANCH  17  18
ATOM     18  N   UNL     1       3.094   5.740  19.925  0.00  0.00    +0.000 NA
ATOM     19  H   UNL     1       3.800   5.351  20.550  0.00  0.00    +0.000 HD
ATOM     20  H   UNL     1       2.322   6.045  20.538  0.00  0.00    +0.000 HD
ENDBRANCH  17  18
ENDBRANCH  16  17
ENDBRANCH  15  16
ENDBRANCH   1  15
TORSDOF 10
ENDMDL
MODEL 2
REMARK VINA RESULT:      -5.3      1.157      3.503
REMARK  Name = 
REMARK  10 active torsions:
REMARK  status: ('A' for Active; 'I' for Inactive)
REMARK    1  A    between atoms: N_1  and  C_2
REMARK    2  A    between atoms: C_2  and  C_3
REMARK    3  A    between atoms: C_3  and  C_4
REMARK    4  A    between atoms: C_4  and  C_5
REMARK    5  A    between atoms: C_5  and  O_6
REMARK    6  A    between atoms: C_5  and  P_7
REMARK    7  A    between atoms: C_5  and  P_11
REMARK    8  A    between atoms: P_7  and  O_10
REMARK    9  A    between atoms: P_11  and  O_13
REMARK   10  A    between atoms: P_11  and  O_14
REMARK                            x       y       z     vdW  Elec       q    Type
REMARK                         _______ _______ _______ _____ _____    ______ ____
ROOT
ATOM      1  C   UNL     1       5.661   5.127  17.389  0.00  0.00    +0.000 C 
ENDROOT
BRANCH   1   2
ATOM      2  P   UNL     1       6.638   5.221  15.844  0.00  0.00    +0.000 P 
ATOM      3  O   UNL     1       6.438   3.719  15.569  0.00  0.00    +0.000 OA
ATOM      4  O   UNL     1       5.637   6.208  15.198  0.00  0.00    +0.000 OA
BRANCH   2   5
ATOM      5  O   UNL     1       7.562   5.311  14.384  0.00  0.00    +0.000 OA
ATOM      6  H   UNL     1       7.847   6.244  14.436  0.00  0.00    +0.000 HD
ENDBRANCH   2   5
ENDBRANCH   1   2
BRANCH   1   7
ATOM      7  O   UNL     1       5.011   3.820  17.404  0.00  0.00    +0.000 OA
ATOM      8  H   UNL     1       5.442   3.417  18.198  0.00  0.00    +0.000 HD
ENDBRANCH   1   7
BRANCH   1   9
ATOM      9  P   UNL     1       6.772   5.336  18.828  0.00  0.00    +0.000 P 
ATOM     10  O   UNL     1       5.899   4.508  19.780  0.00  0.00    +0.000 OA
BRANCH   9  11
ATOM     11  O   UNL     1       7.917   4.309  18.273  0.00  0.00    +0.000 OA
ATOM     12  H   UNL     1       8.442   3.939  19.040  0.00  0.00    +0.000 HD
ENDBRANCH   9  11
BRANCH   9  13
ATOM     13  O   UNL     1       7.822   5.534  20.188  0.00  0.00    +0.000 OA
ATOM     14  H   UNL     1       7.430   4.921  20.843  0.00  0.00    +0.000 HD
ENDBRANCH   9  13
ENDBRANCH   1   9
BRANCH   1  15
ATOM     15  C   UNL     1       4.550   6.207  17.457  0.00  0.00    +0.000 C 
BRANCH  15  16
ATOM     16  C   UNL     1       3.175   5.648  17.876  0.00  0.00    +0.000 C 
BRANCH  16  17
ATOM     17  C   UNL     1       2.714   6.280  19.193  0.00  0.00    +0.000 C 
BRANCH  17  18
ATOM     18  N   UNL     1       3.090   5.453  20.324  0.00  0.00    +0.000 NA
ATOM     19  H   UNL     1       3.194   4.484  20.025  0.00  0.00    +0.000 HD
ATOM     20  H   UNL     1       2.328   5.446  21.020  0.00  0.00    +0.000 HD
ENDBRANCH  17  18
ENDBRANCH  16  17
ENDBRANCH  15  16
ENDBRANCH   1  15
TORSDOF 10
ENDMDL
MODEL 3
REMARK VINA RESULT:      -5.3      1.543      1.847
REMARK  Name = 
REMARK  10 active torsions:
REMARK  status: ('A' for Active; 'I' for Inactive)
REMARK    1  A    between atoms: N_1  and  C_2
REMARK    2  A    between atoms: C_2  and  C_3
REMARK    3  A    between atoms: C_3  and  C_4
REMARK    4  A    between atoms: C_4  and  C_5
REMARK    5  A    between atoms: C_5  and  O_6
REMARK    6  A    between atoms: C_5  and  P_7
REMARK    7  A    between atoms: C_5  and  P_11
REMARK    8  A    between atoms: P_7  and  O_10
REMARK    9  A    between atoms: P_11  and  O_13
REMARK   10  A    between atoms: P_11  and  O_14
REMARK                            x       y       z     vdW  Elec       q    Type
REMARK                         _______ _______ _______ _____ _____    ______ ____
ROOT
ATOM      1  C   UNL     1       5.880   5.676  17.401  0.00  0.00    +0.000 C 
ENDROOT
BRANCH   1   2
ATOM      2  P   UNL     1       7.225   5.501  18.631  0.00  0.00    +0.000 P 
ATOM      3  O   UNL     1       7.806   6.880  18.261  0.00  0.00    +0.000 OA
ATOM      4  O   UNL     1       6.224   5.437  19.808  0.00  0.00    +0.000 OA
BRANCH   2   5
ATOM      5  O   UNL     1       8.496   5.337  19.793  0.00  0.00    +0.000 OA
ATOM      6  H   UNL     1       8.326   4.419  20.082  0.00  0.00    +0.000 HD
ENDBRANCH   2   5
ENDBRANCH   1   2
BRANCH   1   7
ATOM      7  O   UNL     1       5.822   7.086  17.029  0.00  0.00    +0.000 OA
ATOM      8  H   UNL     1       5.461   7.012  16.111  0.00  0.00    +0.000 HD
ENDBRANCH   1   7
BRANCH   1   9
ATOM      9  P   UNL     1       6.238   4.618  15.951  0.00  0.00    +0.000 P 
ATOM     10  O   UNL     1       6.093   5.754  14.930  0.00  0.00    +0.000 OA
BRANCH   9  11
ATOM     11  O   UNL     1       7.841   4.499  16.255  0.00  0.00    +0.000 OA
ATOM     12  H   UNL     1       8.160   3.577  16.032  0.00  0.00    +0.000 HD
ENDBRANCH   9  11
BRANCH   9  13
ATOM     13  O   UNL     1       6.577   3.618  14.581  0.00  0.00    +0.000 OA
ATOM     14  H   UNL     1       5.721   3.622  14.105  0.00  0.00    +0.000 HD
ENDBRANCH   9  13
ENDBRANCH   1   9
BRANCH   1  15
ATOM     15  C   UNL     1       4.495   5.281  17.974  0.00  0.00    +0.000 C 
BRANCH  15  16
ATOM     16  C   UNL     1       3.984   3.918  17.461  0.00  0.00    +0.000 C 
BRANCH  16  17
ATOM     17  C   UNL     1       3.726   2.964  18.631  0.00  0.00    +0.000 C 
BRANCH  17  18
ATOM     18  N   UNL     1       4.949   2.704  19.367  0.00  0.00    +0.000 NA
ATOM     19  H   UNL     1       5.598   2.176  18.783  0.00  0.00    +0.000 HD
ATOM     20  H   UNL     1       4.747   2.095  20.175  0.00  0.00    +0.000 HD
ENDBRANCH  17  18
ENDBRANCH  16  17
ENDBRANCH  15  16
ENDBRANCH   1  15
TORSDOF 10
ENDMDL
MODEL 4
REMARK VINA RESULT:      -5.3      1.361      3.561
REMARK  Name = 
REMARK  10 active torsions:
REMARK  status: ('A' for Active; 'I' for Inactive)
REMARK    1  A    between atoms: N_1  and  C_2
REMARK    2  A    between atoms: C_2  and  C_3
REMARK    3  A    between atoms: C_3  and  C_4
REMARK    4  A    between atoms: C_4  and  C_5
REMARK    5  A    between atoms: C_5  and  O_6
REMARK    6  A    between atoms: C_5  and  P_7
REMARK    7  A    between atoms: C_5  and  P_11
REMARK    8  A    between atoms: P_7  and  O_10
REMARK    9  A    between atoms: P_11  and  O_13
REMARK   10  A    between atoms: P_11  and  O_14
REMARK                            x       y       z     vdW  Elec       q    Type
REMARK                         _______ _______ _______ _____ _____    ______ ____
ROOT
ATOM      1  C   UNL     1       5.644   4.585  16.918  0.00  0.00    +0.000 C 
ENDROOT
BRANCH   1   2
ATOM      2  P   UNL     1       6.748   4.997  15.517  0.00  0.00    +0.000 P 
ATOM      3  O   UNL     1       5.549   5.301  14.600  0.00  0.00    +0.000 OA
ATOM      4  O   UNL     1       7.382   6.181  16.285  0.00  0.00    +0.000 OA
BRANCH   2   5
ATOM      5  O   UNL     1       7.792   5.387  14.193  0.00  0.00    +0.000 OA
ATOM      6  H   UNL     1       8.313   6.099  14.610  0.00  0.00    +0.000 HD
ENDBRANCH   2   5
ENDBRANCH   1   2
BRANCH   1   7
ATOM      7  O   UNL     1       5.365   3.155  16.836  0.00  0.00    +0.000 OA
ATOM      8  H   UNL     1       6.184   2.840  16.380  0.00  0.00    +0.000 HD
ENDBRANCH   1   7
BRANCH   1   9
ATOM      9  P   UNL     1       6.472   5.013  18.493  0.00  0.00    +0.000 P 
ATOM     10  O   UNL     1       5.660   4.020  19.334  0.00  0.00    +0.000 OA
BRANCH   9  11
ATOM     11  O   UNL     1       7.870   4.246  18.132  0.00  0.00    +0.000 OA
ATOM     12  H   UNL     1       8.513   4.890  17.717  0.00  0.00    +0.000 HD
ENDBRANCH   9  11
BRANCH   9  13
ATOM     13  O   UNL     1       7.255   5.417  19.982  0.00  0.00    +0.000 OA
ATOM     14  H   UNL     1       7.487   6.358  19.845  0.00  0.00    +0.000 HD
ENDBRANCH   9  13
ENDBRANCH   1   9
BRANCH   1  15
ATOM     15  C   UNL     1       4.289   5.336  16.849  0.00  0.00    +0.000 C 
BRANCH  15  16
ATOM     16  C   UNL     1       4.253   6.617  17.709  0.00  0.00    +0.000 C 
BRANCH  16  17
ATOM     17  C   UNL     1       3.005   6.635  18.596  0.00  0.00    +0.000 C 
BRANCH  17  18
ATOM     18  N   UNL     1       2.722   5.312  19.120  0.00  0.00    +0.000 NA
ATOM     19  H   UNL     1       1.867   4.949  18.699  0.00  0.00    +0.000 HD
ATOM     20  H   UNL     1       2.527   5.371  20.131  0.00  0.00    +0.000 HD
ENDBRANCH  17  18
ENDBRANCH  16  17
ENDBRANCH  15  16
ENDBRANCH   1  15
TORSDOF 10
ENDMDL
MODEL 5
REMARK VINA RESULT:      -5.3      1.429      1.776
REMARK  Name = 
REMARK  10 active torsions:
REMARK  status: ('A' for Active; 'I' for Inactive)
REMARK    1  A    between atoms: N_1  and  C_2
REMARK    2  A    between atoms: C_2  and  C_3
REMARK    3  A    between atoms: C_3  and  C_4
REMARK    4  A    between atoms: C_4  and  C_5
REMARK    5  A    between atoms: C_5  and  O_6
REMARK    6  A    between atoms: C_5  and  P_7
REMARK    7  A    between atoms: C_5  and  P_11
REMARK    8  A    between atoms: P_7  and  O_10
REMARK    9  A    between atoms: P_11  and  O_13
REMARK   10  A    between atoms: P_11  and  O_14
REMARK                            x       y       z     vdW  Elec       q    Type
REMARK                         _______ _______ _______ _____ _____    ______ ____
ROOT
ATOM      1  C   UNL     1       6.334   6.100  17.323  0.00  0.00    +0.000 C 
ENDROOT
BRANCH   1   2
ATOM      2  P   UNL     1       7.382   5.691  18.768  0.00  0.00    +0.000 P 
ATOM      3  O   UNL     1       7.929   4.429  18.073  0.00  0.00    +0.000 OA
ATOM      4  O   UNL     1       8.196   6.998  18.624  0.00  0.00    +0.000 OA
BRANCH   2   5
ATOM      5  O   UNL     1       8.372   5.305  20.132  0.00  0.00    +0.000 OA
ATOM      6  H   UNL     1       9.104   4.851  19.671  0.00  0.00    +0.000 HD
ENDBRANCH   2   5
ENDBRANCH   1   2
BRANCH   1   7
ATOM      7  O   UNL     1       6.840   7.351  16.769  0.00  0.00    +0.000 OA
ATOM      8  H   UNL     1       6.398   7.344  15.884  0.00  0.00    +0.000 HD
ENDBRANCH   1   7
BRANCH   1   9
ATOM      9  P   UNL     1       6.426   4.742  16.099  0.00  0.00    +0.000 P 
ATOM     10  O   UNL     1       5.099   5.100  15.417  0.00  0.00    +0.000 OA
BRANCH   9  11
ATOM     11  O   UNL     1       7.592   5.446  15.195  0.00  0.00    +0.000 OA
ATOM     12  H   UNL     1       8.494   5.200  15.552  0.00  0.00    +0.000 HD
ENDBRANCH   9  11
BRANCH   9  13
ATOM     13  O   UNL     1       6.513   3.459  14.942  0.00  0.00    +0.000 OA
ATOM     14  H   UNL     1       6.199   3.896  14.124  0.00  0.00    +0.000 HD
ENDBRANCH   9  13
ENDBRANCH   1   9
BRANCH   1  15
ATOM     15  C   UNL     1       4.848   6.320  17.709  0.00  0.00    +0.000 C 
BRANCH  15  16
ATOM     16  C   UNL     1       4.405   5.501  18.939  0.00  0.00    +0.000 C 
BRANCH  16  17
ATOM     17  C   UNL     1       3.003   4.922  18.724  0.00  0.00    +0.000 C 
BRANCH  17  18
ATOM     18  N   UNL     1       2.926   4.201  17.468  0.00  0.00    +0.000 NA
ATOM     19  H   UNL     1       2.846   3.201  17.648  0.00  0.00    +0.000 HD
ATOM     20  H   UNL     1       3.808   4.318  16.944  0.00  0.00    +0.000 HD
ENDBRANCH  17  18
ENDBRANCH  16  17
ENDBRANCH  15  16
ENDBRANCH   1  15
TORSDOF 10
ENDMDL
MODEL 6
REMARK VINA RESULT:      -5.2      1.404      1.463
REMARK  Name = 
REMARK  10 active torsions:
REMARK  status: ('A' for Active; 'I' for Inactive)
REMARK    1  A    between atoms: N_1  and  C_2
REMARK    2  A    between atoms: C_2  and  C_3
REMARK    3  A    between atoms: C_3  and  C_4
REMARK    4  A    between atoms: C_4  and  C_5
REMARK    5  A    between atoms: C_5  and  O_6
REMARK    6  A    between atoms: C_5  and  P_7
REMARK    7  A    between atoms: C_5  and  P_11
REMARK    8  A    between atoms: P_7  and  O_10
REMARK    9  A    between atoms: P_11  and  O_13
REMARK   10  A    between atoms: P_11  and  O_14
REMARK                            x       y       z     vdW  Elec       q    Type
REMARK                         _______ _______ _______ _____ _____    ______ ____
ROOT
ATOM      1  C   UNL     1       5.818   5.716  17.308  0.00  0.00    +0.000 C 
ENDROOT
BRANCH   1   2
ATOM      2  P   UNL     1       7.142   5.585  18.565  0.00  0.00    +0.000 P 
ATOM      3  O   UNL     1       6.114   5.527  19.711  0.00  0.00    +0.000 OA
ATOM      4  O   UNL     1       7.646   4.242  17.984  0.00  0.00    +0.000 OA
BRANCH   2   5
ATOM      5  O   UNL     1       8.394   5.461  19.753  0.00  0.00    +0.000 OA
ATOM      6  H   UNL     1       8.708   6.386  19.746  0.00  0.00    +0.000 HD
ENDBRANCH   2   5
ENDBRANCH   1   2
BRANCH   1   7
ATOM      7  O   UNL     1       5.693   7.128  16.964  0.00  0.00    +0.000 OA
ATOM      8  H   UNL     1       6.625   7.427  17.101  0.00  0.00    +0.000 HD
ENDBRANCH   1   7
BRANCH   1   9
ATOM      9  P   UNL     1       6.264   4.710  15.845  0.00  0.00    +0.000 P 
ATOM     10  O   UNL     1       5.227   5.365  14.924  0.00  0.00    +0.000 OA
BRANCH   9  11
ATOM     11  O   UNL     1       7.670   5.494  15.557  0.00  0.00    +0.000 OA
ATOM     12  H   UNL     1       7.776   5.650  14.575  0.00  0.00    +0.000 HD
ENDBRANCH   9  11
BRANCH   9  13
ATOM     13  O   UNL     1       6.685   3.759  14.463  0.00  0.00    +0.000 OA
ATOM     14  H   UNL     1       6.225   4.231  13.739  0.00  0.00    +0.000 HD
ENDBRANCH   9  13
ENDBRANCH   1   9
BRANCH   1  15
ATOM     15  C   UNL     1       4.442   5.236  17.840  0.00  0.00    +0.000 C 
BRANCH  15  16
ATOM     16  C   UNL     1       4.124   3.769  17.483  0.00  0.00    +0.000 C 
BRANCH  16  17
ATOM     17  C   UNL     1       3.883   2.946  18.752  0.00  0.00    +0.000 C 
BRANCH  17  18
ATOM     18  N   UNL     1       5.130   2.686  19.447  0.00  0.00    +0.000 NA
ATOM     19  H   UNL     1       5.251   1.682  19.576  0.00  0.00    +0.000 HD
ATOM     20  H   UNL     1       5.089   3.084  20.398  0.00  0.00    +0.000 HD
ENDBRANCH  17  18
ENDBRANCH  16  17
ENDBRANCH  15  16
ENDBRANCH   1  15
TORSDOF 10
ENDMDL
MODEL 7
REMARK VINA RESULT:      -5.2      1.660      3.612
REMARK  Name = 
REMARK  10 active torsions:
REMARK  status: ('A' for Active; 'I' for Inactive)
REMARK    1  A    between atoms: N_1  and  C_2
REMARK    2  A    between atoms: C_2  and  C_3
REMARK    3  A    between atoms: C_3  and  C_4
REMARK    4  A    between atoms: C_4  and  C_5
REMARK    5  A    between atoms: C_5  and  O_6
REMARK    6  A    between atoms: C_5  and  P_7
REMARK    7  A    between atoms: C_5  and  P_11
REMARK    8  A    between atoms: P_7  and  O_10
REMARK    9  A    between atoms: P_11  and  O_13
REMARK   10  A    between atoms: P_11  and  O_14
REMARK                            x       y       z     vdW  Elec       q    Type
REMARK                         _______ _______ _______ _____ _____    ______ ____
ROOT
ATOM      1  C   UNL     1       5.643   4.641  17.056  0.00  0.00    +0.000 C 
ENDROOT
BRANCH   1   2
ATOM      2  P   UNL     1       6.677   5.001  15.589  0.00  0.00    +0.000 P 
ATOM      3  O   UNL     1       6.218   3.708  14.889  0.00  0.00    +0.000 OA
ATOM      4  O   UNL     1       5.895   6.300  15.280  0.00  0.00    +0.000 OA
BRANCH   2   5
ATOM      5  O   UNL     1       7.654   5.342  14.202  0.00  0.00    +0.000 OA
ATOM      6  H   UNL     1       8.135   4.494  14.138  0.00  0.00    +0.000 HD
ENDBRANCH   2   5
ENDBRANCH   1   2
BRANCH   1   7
ATOM      7  O   UNL     1       5.332   3.215  17.020  0.00  0.00    +0.000 OA
ATOM      8  H   UNL     1       5.516   2.970  17.960  0.00  0.00    +0.000 HD
ENDBRANCH   1   7
BRANCH   1   9
ATOM      9  P   UNL     1       6.563   5.084  18.574  0.00  0.00    +0.000 P 
ATOM     10  O   UNL     1       7.840   4.339  18.168  0.00  0.00    +0.000 OA
BRANCH   9  11
ATOM     11  O   UNL     1       6.804   6.643  18.144  0.00  0.00    +0.000 OA
ATOM     12  H   UNL     1       7.546   6.700  17.475  0.00  0.00    +0.000 HD
ENDBRANCH   9  11
BRANCH   9  13
ATOM     13  O   UNL     1       7.432   5.504  20.010  0.00  0.00    +0.000 OA
ATOM     14  H   UNL     1       6.836   5.180  20.715  0.00  0.00    +0.000 HD
ENDBRANCH   9  13
ENDBRANCH   1   9
BRANCH   1  15
ATOM     15  C   UNL     1       4.300   5.418  17.043  0.00  0.00    +0.000 C 
BRANCH  15  16
ATOM     16  C   UNL     1       3.392   5.094  18.247  0.00  0.00    +0.000 C 
BRANCH  16  17
ATOM     17  C   UNL     1       2.051   4.527  17.773  0.00  0.00    +0.000 C 
BRANCH  17  18
ATOM     18  N   UNL     1       2.227   3.228  17.153  0.00  0.00    +0.000 NA
ATOM     19  H   UNL     1       3.157   2.867  17.365  0.00  0.00    +0.000 HD
ATOM     20  H   UNL     1       2.196   3.324  16.126  0.00  0.00    +0.000 HD
ENDBRANCH  17  18
ENDBRANCH  16  17
ENDBRANCH  15  16
ENDBRANCH   1  15
TORSDOF 10
ENDMDL
MODEL 8
REMARK VINA RESULT:      -5.2      1.091      1.130
REMARK  Name = 
REMARK  10 active torsions:
REMARK  status: ('A' for Active; 'I' for Inactive)
REMARK    1  A    between atoms: N_1  and  C_2
REMARK    2  A    between atoms: C_2  and  C_3
REMARK    3  A    between atoms: C_3  and  C_4
REMARK    4  A    between atoms: C_4  and  C_5
REMARK    5  A    between atoms: C_5  and  O_6
REMARK    6  A    between atoms: C_5  and  P_7
REMARK    7  A    between atoms: C_5  and  P_11
REMARK    8  A    between atoms: P_7  and  O_10
REMARK    9  A    between atoms: P_11  and  O_13
REMARK   10  A    between atoms: P_11  and  O_14
REMARK                            x       y       z     vdW  Elec       q    Type
REMARK                         _______ _______ _______ _____ _____    ______ ____
ROOT
ATOM      1  C   UNL     1       5.855   5.449  17.511  0.00  0.00    +0.000 C 
ENDROOT
BRANCH   1   2
ATOM      2  P   UNL     1       7.014   5.433  18.929  0.00  0.00    +0.000 P 
ATOM      3  O   UNL     1       5.932   4.864  19.867  0.00  0.00    +0.000 OA
ATOM      4  O   UNL     1       7.956   4.427  18.227  0.00  0.00    +0.000 OA
BRANCH   2   5
ATOM      5  O   UNL     1       8.109   5.418  20.268  0.00  0.00    +0.000 OA
ATOM      6  H   UNL     1       8.952   5.360  19.780  0.00  0.00    +0.000 HD
ENDBRANCH   2   5
ENDBRANCH   1   2
BRANCH   1   7
ATOM      7  O   UNL     1       5.066   6.672  17.618  0.00  0.00    +0.000 OA
ATOM      8  H   UNL     1       5.789   7.343  17.694  0.00  0.00    +0.000 HD
ENDBRANCH   1   7
BRANCH   1   9
ATOM      9  P   UNL     1       6.804   5.401  15.947  0.00  0.00    +0.000 P 
ATOM     10  O   UNL     1       5.658   5.951  15.090  0.00  0.00    +0.000 OA
BRANCH   9  11
ATOM     11  O   UNL     1       7.742   6.691  16.311  0.00  0.00    +0.000 OA
ATOM     12  H   UNL     1       7.351   7.519  15.910  0.00  0.00    +0.000 HD
ENDBRANCH   9  11
BRANCH   9  13
ATOM     13  O   UNL     1       7.702   5.357  14.469  0.00  0.00    +0.000 OA
ATOM     14  H   UNL     1       7.564   4.434  14.171  0.00  0.00    +0.000 HD
ENDBRANCH   9  13
ENDBRANCH   1   9
BRANCH   1  15
ATOM     15  C   UNL     1       4.872   4.250  17.533  0.00  0.00    +0.000 C 
BRANCH  15  16
ATOM     16  C   UNL     1       3.389   4.671  17.484  0.00  0.00    +0.000 C 
BRANCH  16  17
ATOM     17  C   UNL     1       2.480   3.439  17.436  0.00  0.00    +0.000 C 
BRANCH  17  18
ATOM     18  N   UNL     1       1.084   3.820  17.532  0.00  0.00    +0.000 NA
ATOM     19  H   UNL     1       0.862   4.082  18.493  0.00  0.00    +0.000 HD
ATOM     20  H   UNL     1       0.485   3.007  17.323  0.00  0.00    +0.000 HD
ENDBRANCH  17  18
ENDBRANCH  16  17
ENDBRANCH  15  16
ENDBRANCH   1  15
TORSDOF 10
ENDMDL
MODEL 9
REMARK VINA RESULT:      -5.2      1.424      3.470
REMARK  Name = 
REMARK  10 active torsions:
REMARK  status: ('A' for Active; 'I' for Inactive)
REMARK    1  A    between atoms: N_1  and  C_2
REMARK    2  A    between atoms: C_2  and  C_3
REMARK    3  A    between atoms: C_3  and  C_4
REMARK    4  A    between atoms: C_4  and  C_5
REMARK    5  A    between atoms: C_5  and  O_6
REMARK    6  A    between atoms: C_5  and  P_7
REMARK    7  A    between atoms: C_5  and  P_11
REMARK    8  A    between atoms: P_7  and  O_10
REMARK    9  A    between atoms: P_11  and  O_13
REMARK   10  A    between atoms: P_11  and  O_14
REMARK                            x       y       z     vdW  Elec       q    Type
REMARK                         _______ _______ _______ _____ _____    ______ ____
ROOT
ATOM      1  C   UNL     1       5.187   4.664  17.251  0.00  0.00    +0.000 C 
ENDROOT
BRANCH   1   2
ATOM      2  P   UNL     1       6.007   5.127  15.681  0.00  0.00    +0.000 P 
ATOM      3  O   UNL     1       6.834   6.223  16.381  0.00  0.00    +0.000 OA
ATOM      4  O   UNL     1       6.651   3.728  15.533  0.00  0.00    +0.000 OA
BRANCH   2   5
ATOM      5  O   UNL     1       6.783   5.564  14.198  0.00  0.00    +0.000 OA
ATOM      6  H   UNL     1       7.229   4.718  13.999  0.00  0.00    +0.000 HD
ENDBRANCH   2   5
ENDBRANCH   1   2
BRANCH   1   7
ATOM      7  O   UNL     1       4.901   3.235  17.178  0.00  0.00    +0.000 OA
ATOM      8  H   UNL     1       5.584   2.886  17.802  0.00  0.00    +0.000 HD
ENDBRANCH   1   7
BRANCH   1   9
ATOM      9  P   UNL     1       6.294   5.052  18.655  0.00  0.00    +0.000 P 
ATOM     10  O   UNL     1       5.604   4.087  19.627  0.00  0.00    +0.000 OA
BRANCH   9  11
ATOM     11  O   UNL     1       7.577   4.234  18.055  0.00  0.00    +0.000 OA
ATOM     12  H   UNL     1       7.331   3.813  17.182  0.00  0.00    +0.000 HD
ENDBRANCH   9  11
BRANCH   9  13
ATOM     13  O   UNL     1       7.341   5.419  19.983  0.00  0.00    +0.000 OA
ATOM     14  H   UNL     1       6.716   5.451  20.736  0.00  0.00    +0.000 HD
ENDBRANCH   9  13
ENDBRANCH   1   9
BRANCH   1  15
ATOM     15  C   UNL     1       3.841   5.406  17.460  0.00  0.00    +0.000 C 
BRANCH  15  16
ATOM     16  C   UNL     1       2.628   4.458  17.565  0.00  0.00    +0.000 C 
BRANCH  16  17
ATOM     17  C   UNL     1       2.173   4.325  19.022  0.00  0.00    +0.000 C 
BRANCH  17  18
ATOM     18  N   UNL     1       2.807   3.187  19.660  0.00  0.00    +0.000 NA
ATOM     19  H   UNL     1       2.095   2.535  19.991  0.00  0.00    +0.000 HD
ATOM     20  H   UNL     1       3.311   3.496  20.505  0.00  0.00    +0.000 HD
ENDBRANCH  17  18
ENDBRANCH  16  17
ENDBRANCH  15  16
ENDBRANCH   1  15
TORSDOF 10
ENDMDL
