MODEL 1
REMARK VINA RESULT:      -6.1      0.000      0.000
REMARK  Name = 
REMARK  8 active torsions:
REMARK  status: ('A' for Active; 'I' for Inactive)
REMARK    1  A    between atoms: C_1  and  C_2
REMARK    2  A    between atoms: C_2  and  C_3
REMARK    3  A    between atoms: C_6  and  C_7
REMARK    4  A    between atoms: N_9  and  C_10
REMARK    5  A    between atoms: C_10  and  C_11
REMARK    6  A    between atoms: C_11  and  C_12
REMARK    7  A    between atoms: C_12  and  O_13
REMARK    8  A    between atoms: O_13  and  C_14
REMARK                            x       y       z     vdW  Elec       q    Type
REMARK                         _______ _______ _______ _____ _____    ______ ____
ROOT
ATOM      1  C   UNL     1       5.766   4.230  18.436  0.00  0.00    +0.000 C 
ATOM      2  O   UNL     1       6.381   4.897  19.263  0.00  0.00    +0.000 OA
ATOM      3  N   UNL     1       4.779   3.340  18.803  0.00  0.00    +0.000 N 
ATOM      4  H   UNL     1       4.379   2.767  18.071  0.00  0.00    +0.000 HD
ENDROOT
BRANCH   1   8
ATOM      5  C   UNL     1       5.862   4.267  14.525  0.00  0.00    +0.000 A 
ATOM      6  C   UNL     1       7.060   4.794  14.964  0.00  0.00    +0.000 A 
ATOM      7  C   UNL     1       7.148   4.825  16.386  0.00  0.00    +0.000 A 
ATOM      8  C   UNL     1       6.014   4.325  17.001  0.00  0.00    +0.000 A 
ATOM      9  S   UNL     1       4.860   3.819  15.837  0.00  0.00    +0.000 S 
BRANCH   5  11
ATOM     10  C   UNL     1       6.500   3.451  12.239  0.00  0.00    +0.000 C 
ATOM     11  C   UNL     1       5.407   4.052  13.112  0.00  0.00    +0.000 C 
ENDBRANCH   5  11
ENDBRANCH   1   8
BRANCH   3  12
ATOM     12  C   UNL     1       4.334   3.128  20.163  0.00  0.00    +0.000 C 
BRANCH  12  13
ATOM     13  C   UNL     1       2.909   3.681  20.291  0.00  0.00    +0.000 C 
ATOM     14  C   UNL     1       1.858   2.808  19.536  0.00  0.00    +0.000 C 
ATOM     15  C   UNL     1       0.936   2.920  20.764  0.00  0.00    +0.000 C 
ATOM     16  C   UNL     1       2.179   3.254  21.607  0.00  0.00    +0.000 C 
BRANCH  13  17
ATOM     17  C   UNL     1       2.799   5.188  20.018  0.00  0.00    +0.000 C 
BRANCH  17  18
ATOM     18  O   UNL     1       2.436   5.401  18.653  0.00  0.00    +0.000 OA
ATOM     19  C   UNL     1       2.921   6.652  18.176  0.00  0.00    +0.000 C 
ENDBRANCH  17  18
ENDBRANCH  13  17
ENDBRANCH  12  13
ENDBRANCH   3  12
TORSDOF 6
ENDMDL
MODEL 2
REMARK VINA RESULT:      -6.1      2.295      3.461
REMARK  Name = 
REMARK  8 active torsions:
REMARK  status: ('A' for Active; 'I' for Inactive)
REMARK    1  A    between atoms: C_1  and  C_2
REMARK    2  A    between atoms: C_2  and  C_3
REMARK    3  A    between atoms: C_6  and  C_7
REMARK    4  A    between atoms: N_9  and  C_10
REMARK    5  A    between atoms: C_10  and  C_11
REMARK    6  A    between atoms: C_11  and  C_12
REMARK    7  A    between atoms: C_12  and  O_13
REMARK    8  A    between atoms: O_13  and  C_14
REMARK                            x       y       z     vdW  Elec       q    Type
REMARK                         _______ _______ _______ _____ _____    ______ ____
ROOT
ATOM      1  C   UNL     1       6.579   5.639  15.454  0.00  0.00    +0.000 C 
ATOM      2  O   UNL     1       7.595   6.064  15.996  0.00  0.00    +0.000 OA
ATOM      3  N   UNL     1       5.322   5.871  15.972  0.00  0.00    +0.000 N 
ATOM      4  H   UNL     1       4.543   5.416  15.513  0.00  0.00    +0.000 HD
ENDROOT
BRANCH   1   8
ATOM      5  C   UNL     1       6.140   3.303  12.346  0.00  0.00    +0.000 A 
ATOM      6  C   UNL     1       7.250   4.088  12.108  0.00  0.00    +0.000 A 
ATOM      7  C   UNL     1       7.519   4.983  13.184  0.00  0.00    +0.000 A 
ATOM      8  C   UNL     1       6.607   4.864  14.217  0.00  0.00    +0.000 A 
ATOM      9  S   UNL     1       5.438   3.659  13.865  0.00  0.00    +0.000 S 
BRANCH   5  11
ATOM     10  C   UNL     1       6.602   1.238  10.997  0.00  0.00    +0.000 C 
ATOM     11  C   UNL     1       5.554   2.236  11.469  0.00  0.00    +0.000 C 
ENDBRANCH   5  11
ENDBRANCH   1   8
BRANCH   3  12
ATOM     12  C   UNL     1       5.059   6.660  17.156  0.00  0.00    +0.000 C 
BRANCH  12  13
ATOM     13  C   UNL     1       4.274   5.790  18.145  0.00  0.00    +0.000 C 
ATOM     14  C   UNL     1       2.896   6.413  18.529  0.00  0.00    +0.000 C 
ATOM     15  C   UNL     1       2.258   5.023  18.349  0.00  0.00    +0.000 C 
ATOM     16  C   UNL     1       3.460   4.638  17.469  0.00  0.00    +0.000 C 
BRANCH  13  17
ATOM     17  C   UNL     1       5.106   5.301  19.340  0.00  0.00    +0.000 C 
BRANCH  17  18
ATOM     18  O   UNL     1       6.376   4.837  18.881  0.00  0.00    +0.000 OA
ATOM     19  C   UNL     1       7.443   5.547  19.500  0.00  0.00    +0.000 C 
ENDBRANCH  17  18
ENDBRANCH  13  17
ENDBRANCH  12  13
ENDBRANCH   3  12
TORSDOF 6
ENDMDL
MODEL 3
REMARK VINA RESULT:      -6.0      2.549      3.571
REMARK  Name = 
REMARK  8 active torsions:
REMARK  status: ('A' for Active; 'I' for Inactive)
REMARK    1  A    between atoms: C_1  and  C_2
REMARK    2  A    between atoms: C_2  and  C_3
REMARK    3  A    between atoms: C_6  and  C_7
REMARK    4  A    between atoms: N_9  and  C_10
REMARK    5  A    between atoms: C_10  and  C_11
REMARK    6  A    between atoms: C_11  and  C_12
REMARK    7  A    between atoms: C_12  and  O_13
REMARK    8  A    between atoms: O_13  and  C_14
REMARK                            x       y       z     vdW  Elec       q    Type
REMARK                         _______ _______ _______ _____ _____    ______ ____
ROOT
ATOM      1  C   UNL     1       5.466   4.314  17.888  0.00  0.00    +0.000 C 
ATOM      2  O   UNL     1       5.039   3.944  16.797  0.00  0.00    +0.000 OA
ATOM      3  N   UNL     1       5.088   3.704  19.065  0.00  0.00    +0.000 N 
ATOM      4  H   UNL     1       5.417   4.121  19.927  0.00  0.00    +0.000 HD
ENDROOT
BRANCH   1   8
ATOM      5  C   UNL     1       7.622   7.578  17.905  0.00  0.00    +0.000 A 
ATOM      6  C   UNL     1       8.230   6.687  18.766  0.00  0.00    +0.000 A 
ATOM      7  C   UNL     1       7.535   5.446  18.838  0.00  0.00    +0.000 A 
ATOM      8  C   UNL     1       6.410   5.417  18.035  0.00  0.00    +0.000 A 
ATOM      9  S   UNL     1       6.219   6.902  17.197  0.00  0.00    +0.000 S 
BRANCH   5  11
ATOM     10  C   UNL     1       8.816   9.643  18.683  0.00  0.00    +0.000 C 
ATOM     11  C   UNL     1       8.059   8.968  17.548  0.00  0.00    +0.000 C 
ENDBRANCH   5  11
ENDBRANCH   1   8
BRANCH   3  12
ATOM     12  C   UNL     1       4.207   2.559  19.147  0.00  0.00    +0.000 C 
BRANCH  12  13
ATOM     13  C   UNL     1       2.772   3.071  19.319  0.00  0.00    +0.000 C 
ATOM     14  C   UNL     1       1.969   3.066  17.981  0.00  0.00    +0.000 C 
ATOM     15  C   UNL     1       0.776   2.458  18.741  0.00  0.00    +0.000 C 
ATOM     16  C   UNL     1       1.766   1.983  19.819  0.00  0.00    +0.000 C 
BRANCH  13  17
ATOM     17  C   UNL     1       2.669   4.380  20.117  0.00  0.00    +0.000 C 
BRANCH  17  18
ATOM     18  O   UNL     1       2.044   5.381  19.314  0.00  0.00    +0.000 OA
ATOM     19  C   UNL     1       2.855   6.546  19.212  0.00  0.00    +0.000 C 
ENDBRANCH  17  18
ENDBRANCH  13  17
ENDBRANCH  12  13
ENDBRANCH   3  12
TORSDOF 6
ENDMDL
MODEL 4
REMARK VINA RESULT:      -6.0      1.891      6.552
REMARK  Name = 
REMARK  8 active torsions:
REMARK  status: ('A' for Active; 'I' for Inactive)
REMARK    1  A    between atoms: C_1  and  C_2
REMARK    2  A    between atoms: C_2  and  C_3
REMARK    3  A    between atoms: C_6  and  C_7
REMARK    4  A    between atoms: N_9  and  C_10
REMARK    5  A    between atoms: C_10  and  C_11
REMARK    6  A    between atoms: C_11  and  C_12
REMARK    7  A    between atoms: C_12  and  O_13
REMARK    8  A    between atoms: O_13  and  C_14
REMARK                            x       y       z     vdW  Elec       q    Type
REMARK                         _______ _______ _______ _____ _____    ______ ____
ROOT
ATOM      1  C   UNL     1       3.834   6.531  17.506  0.00  0.00    +0.000 C 
ATOM      2  O   UNL     1       3.954   7.749  17.408  0.00  0.00    +0.000 OA
ATOM      3  N   UNL     1       4.470   5.663  16.644  0.00  0.00    +0.000 N 
ATOM      4  H   UNL     1       4.253   4.679  16.738  0.00  0.00    +0.000 HD
ENDROOT
BRANCH   1   8
ATOM      5  C   UNL     1       1.716   4.321  19.942  0.00  0.00    +0.000 A 
ATOM      6  C   UNL     1       1.809   5.575  20.511  0.00  0.00    +0.000 A 
ATOM      7  C   UNL     1       2.557   6.480  19.704  0.00  0.00    +0.000 A 
ATOM      8  C   UNL     1       3.023   5.897  18.540  0.00  0.00    +0.000 A 
ATOM      9  S   UNL     1       2.536   4.255  18.442  0.00  0.00    +0.000 S 
BRANCH   5  11
ATOM     10  C   UNL     1       1.645   2.570  21.738  0.00  0.00    +0.000 C 
ATOM     11  C   UNL     1       1.000   3.114  20.471  0.00  0.00    +0.000 C 
ENDBRANCH   5  11
ENDBRANCH   1   8
BRANCH   3  12
ATOM     12  C   UNL     1       5.364   6.073  15.583  0.00  0.00    +0.000 C 
BRANCH  12  13
ATOM     13  C   UNL     1       6.110   4.831  15.080  0.00  0.00    +0.000 C 
ATOM     14  C   UNL     1       5.294   4.031  14.016  0.00  0.00    +0.000 C 
ATOM     15  C   UNL     1       6.578   3.909  13.175  0.00  0.00    +0.000 C 
ATOM     16  C   UNL     1       7.134   5.126  13.936  0.00  0.00    +0.000 C 
BRANCH  13  17
ATOM     17  C   UNL     1       6.711   3.969  16.201  0.00  0.00    +0.000 C 
BRANCH  17  18
ATOM     18  O   UNL     1       7.799   4.666  16.809  0.00  0.00    +0.000 OA
ATOM     19  C   UNL     1       7.595   4.824  18.209  0.00  0.00    +0.000 C 
ENDBRANCH  17  18
ENDBRANCH  13  17
ENDBRANCH  12  13
ENDBRANCH   3  12
TORSDOF 6
ENDMDL
MODEL 5
REMARK VINA RESULT:      -5.9      2.335      6.432
REMARK  Name = 
REMARK  8 active torsions:
REMARK  status: ('A' for Active; 'I' for Inactive)
REMARK    1  A    between atoms: C_1  and  C_2
REMARK    2  A    between atoms: C_2  and  C_3
REMARK    3  A    between atoms: C_6  and  C_7
REMARK    4  A    between atoms: N_9  and  C_10
REMARK    5  A    between atoms: C_10  and  C_11
REMARK    6  A    between atoms: C_11  and  C_12
REMARK    7  A    between atoms: C_12  and  O_13
REMARK    8  A    between atoms: O_13  and  C_14
REMARK                            x       y       z     vdW  Elec       q    Type
REMARK                         _______ _______ _______ _____ _____    ______ ____
ROOT
ATOM      1  C   UNL     1       3.205   6.322  17.822  0.00  0.00    +0.000 C 
ATOM      2  O   UNL     1       2.834   7.491  17.881  0.00  0.00    +0.000 OA
ATOM      3  N   UNL     1       4.388   5.960  17.215  0.00  0.00    +0.000 N 
ATOM      4  H   UNL     1       4.581   4.970  17.133  0.00  0.00    +0.000 HD
ENDROOT
BRANCH   1   8
ATOM      5  C   UNL     1       1.332   3.582  19.894  0.00  0.00    +0.000 A 
ATOM      6  C   UNL     1       1.023   3.367  18.566  0.00  0.00    +0.000 A 
ATOM      7  C   UNL     1       1.659   4.306  17.704  0.00  0.00    +0.000 A 
ATOM      8  C   UNL     1       2.437   5.220  18.393  0.00  0.00    +0.000 A 
ATOM      9  S   UNL     1       2.386   4.917  20.080  0.00  0.00    +0.000 S 
BRANCH   5  11
ATOM     10  C   UNL     1       2.037   2.406  21.996  0.00  0.00    +0.000 C 
ATOM     11  C   UNL     1       0.879   2.799  21.090  0.00  0.00    +0.000 C 
ENDBRANCH   5  11
ENDBRANCH   1   8
BRANCH   3  12
ATOM     12  C   UNL     1       5.328   6.895  16.635  0.00  0.00    +0.000 C 
BRANCH  12  13
ATOM     13  C   UNL     1       6.744   6.451  17.023  0.00  0.00    +0.000 C 
ATOM     14  C   UNL     1       7.653   7.648  17.446  0.00  0.00    +0.000 C 
ATOM     15  C   UNL     1       8.144   6.808  18.638  0.00  0.00    +0.000 C 
ATOM     16  C   UNL     1       6.871   5.955  18.501  0.00  0.00    +0.000 C 
BRANCH  13  17
ATOM     17  C   UNL     1       7.392   5.485  16.020  0.00  0.00    +0.000 C 
BRANCH  17  18
ATOM     18  O   UNL     1       6.688   4.242  16.032  0.00  0.00    +0.000 OA
ATOM     19  C   UNL     1       6.214   3.902  14.733  0.00  0.00    +0.000 C 
ENDBRANCH  17  18
ENDBRANCH  13  17
ENDBRANCH  12  13
ENDBRANCH   3  12
TORSDOF 6
ENDMDL
MODEL 6
REMARK VINA RESULT:      -5.9      4.182      7.456
REMARK  Name = 
REMARK  8 active torsions:
REMARK  status: ('A' for Active; 'I' for Inactive)
REMARK    1  A    between atoms: C_1  and  C_2
REMARK    2  A    between atoms: C_2  and  C_3
REMARK    3  A    between atoms: C_6  and  C_7
REMARK    4  A    between atoms: N_9  and  C_10
REMARK    5  A    between atoms: C_10  and  C_11
REMARK    6  A    between atoms: C_11  and  C_12
REMARK    7  A    between atoms: C_12  and  O_13
REMARK    8  A    between atoms: O_13  and  C_14
REMARK                            x       y       z     vdW  Elec       q    Type
REMARK                         _______ _______ _______ _____ _____    ______ ____
ROOT
ATOM      1  C   UNL     1       2.004   8.406  18.344  0.00  0.00    +0.000 C 
ATOM      2  O   UNL     1       2.299   8.949  17.283  0.00  0.00    +0.000 OA
ATOM      3  N   UNL     1       2.421   7.129  18.652  0.00  0.00    +0.000 N 
ATOM      4  H   UNL     1       2.067   6.722  19.508  0.00  0.00    +0.000 HD
ENDROOT
BRANCH   1   8
ATOM      5  C   UNL     1       0.092   9.751  21.481  0.00  0.00    +0.000 A 
ATOM      6  C   UNL     1      -0.233  10.578  20.424  0.00  0.00    +0.000 A 
ATOM      7  C   UNL     1       0.402  10.180  19.212  0.00  0.00    +0.000 A 
ATOM      8  C   UNL     1       1.201   9.062  19.371  0.00  0.00    +0.000 A 
ATOM      9  S   UNL     1       1.161   8.508  20.994  0.00  0.00    +0.000 S 
BRANCH   5  11
ATOM     10  C   UNL     1      -1.313  11.015  23.131  0.00  0.00    +0.000 C 
ATOM     11  C   UNL     1      -0.387   9.830  22.900  0.00  0.00    +0.000 C 
ENDBRANCH   5  11
ENDBRANCH   1   8
BRANCH   3  12
ATOM     12  C   UNL     1       3.270   6.319  17.804  0.00  0.00    +0.000 C 
BRANCH  12  13
ATOM     13  C   UNL     1       3.108   4.854  18.227  0.00  0.00    +0.000 C 
ATOM     14  C   UNL     1       1.741   4.249  17.778  0.00  0.00    +0.000 C 
ATOM     15  C   UNL     1       2.492   2.987  17.315  0.00  0.00    +0.000 C 
ATOM     16  C   UNL     1       3.774   3.834  17.245  0.00  0.00    +0.000 C 
BRANCH  13  17
ATOM     17  C   UNL     1       3.473   4.584  19.694  0.00  0.00    +0.000 C 
BRANCH  17  18
ATOM     18  O   UNL     1       2.321   4.778  20.516  0.00  0.00    +0.000 OA
ATOM     19  C   UNL     1       2.176   3.725  21.463  0.00  0.00    +0.000 C 
ENDBRANCH  17  18
ENDBRANCH  13  17
ENDBRANCH  12  13
ENDBRANCH   3  12
TORSDOF 6
ENDMDL
MODEL 7
REMARK VINA RESULT:      -5.9      0.900      1.034
REMARK  Name = 
REMARK  8 active torsions:
REMARK  status: ('A' for Active; 'I' for Inactive)
REMARK    1  A    between atoms: C_1  and  C_2
REMARK    2  A    between atoms: C_2  and  C_3
REMARK    3  A    between atoms: C_6  and  C_7
REMARK    4  A    between atoms: N_9  and  C_10
REMARK    5  A    between atoms: C_10  and  C_11
REMARK    6  A    between atoms: C_11  and  C_12
REMARK    7  A    between atoms: C_12  and  O_13
REMARK    8  A    between atoms: O_13  and  C_14
REMARK                            x       y       z     vdW  Elec       q    Type
REMARK                         _______ _______ _______ _____ _____    ______ ____
ROOT
ATOM      1  C   UNL     1       5.872   4.334  17.950  0.00  0.00    +0.000 C 
ATOM      2  O   UNL     1       6.680   4.622  18.828  0.00  0.00    +0.000 OA
ATOM      3  N   UNL     1       4.589   3.923  18.243  0.00  0.00    +0.000 N 
ATOM      4  H   UNL     1       4.012   3.623  17.467  0.00  0.00    +0.000 HD
ENDROOT
BRANCH   1   8
ATOM      5  C   UNL     1       6.340   4.059  14.075  0.00  0.00    +0.000 A 
ATOM      6  C   UNL     1       7.091   5.138  14.498  0.00  0.00    +0.000 A 
ATOM      7  C   UNL     1       7.007   5.335  15.906  0.00  0.00    +0.000 A 
ATOM      8  C   UNL     1       6.191   4.407  16.527  0.00  0.00    +0.000 A 
ATOM      9  S   UNL     1       5.543   3.302  15.386  0.00  0.00    +0.000 S 
BRANCH   5  11
ATOM     10  C   UNL     1       4.744   3.550  12.207  0.00  0.00    +0.000 C 
ATOM     11  C   UNL     1       6.190   3.523  12.682  0.00  0.00    +0.000 C 
ENDBRANCH   5  11
ENDBRANCH   1   8
BRANCH   3  12
ATOM     12  C   UNL     1       4.045   3.833  19.581  0.00  0.00    +0.000 C 
BRANCH  12  13
ATOM     13  C   UNL     1       2.532   4.073  19.499  0.00  0.00    +0.000 C 
ATOM     14  C   UNL     1       1.885   3.393  18.251  0.00  0.00    +0.000 C 
ATOM     15  C   UNL     1       0.744   2.896  19.158  0.00  0.00    +0.000 C 
ATOM     16  C   UNL     1       1.685   3.080  20.362  0.00  0.00    +0.000 C 
BRANCH  13  17
ATOM     17  C   UNL     1       2.121   5.537  19.710  0.00  0.00    +0.000 C 
BRANCH  17  18
ATOM     18  O   UNL     1       3.109   6.397  19.141  0.00  0.00    +0.000 OA
ATOM     19  C   UNL     1       2.526   7.328  18.235  0.00  0.00    +0.000 C 
ENDBRANCH  17  18
ENDBRANCH  13  17
ENDBRANCH  12  13
ENDBRANCH   3  12
TORSDOF 6
ENDMDL
MODEL 8
REMARK VINA RESULT:      -5.9      3.014      6.855
REMARK  Name = 
REMARK  8 active torsions:
REMARK  status: ('A' for Active; 'I' for Inactive)
REMARK    1  A    between atoms: C_1  and  C_2
REMARK    2  A    between atoms: C_2  and  C_3
REMARK    3  A    between atoms: C_6  and  C_7
REMARK    4  A    between atoms: N_9  and  C_10
REMARK    5  A    between atoms: C_10  and  C_11
REMARK    6  A    between atoms: C_11  and  C_12
REMARK    7  A    between atoms: C_12  and  O_13
REMARK    8  A    between atoms: O_13  and  C_14
REMARK                            x       y       z     vdW  Elec       q    Type
REMARK                         _______ _______ _______ _____ _____    ______ ____
ROOT
ATOM      1  C   UNL     1       3.167   5.932  18.319  0.00  0.00    +0.000 C 
ATOM      2  O   UNL     1       2.589   4.960  17.840  0.00  0.00    +0.000 OA
ATOM      3  N   UNL     1       4.522   5.924  18.571  0.00  0.00    +0.000 N 
ATOM      4  H   UNL     1       4.908   6.731  19.044  0.00  0.00    +0.000 HD
ENDROOT
BRANCH   1   8
ATOM      5  C   UNL     1       1.287   9.035  19.782  0.00  0.00    +0.000 A 
ATOM      6  C   UNL     1       1.572   9.320  18.462  0.00  0.00    +0.000 A 
ATOM      7  C   UNL     1       2.255   8.251  17.813  0.00  0.00    +0.000 A 
ATOM      8  C   UNL     1       2.480   7.175  18.653  0.00  0.00    +0.000 A 
ATOM      9  S   UNL     1       1.851   7.480  20.219  0.00  0.00    +0.000 S 
BRANCH   5  11
ATOM     10  C   UNL     1       0.706   9.362  22.201  0.00  0.00    +0.000 C 
ATOM     11  C   UNL     1       0.567   9.892  20.781  0.00  0.00    +0.000 C 
ENDBRANCH   5  11
ENDBRANCH   1   8
BRANCH   3  12
ATOM     12  C   UNL     1       5.405   4.818  18.265  0.00  0.00    +0.000 C 
BRANCH  12  13
ATOM     13  C   UNL     1       6.754   5.393  17.816  0.00  0.00    +0.000 C 
ATOM     14  C   UNL     1       6.648   6.882  17.357  0.00  0.00    +0.000 C 
ATOM     15  C   UNL     1       7.923   7.184  18.165  0.00  0.00    +0.000 C 
ATOM     16  C   UNL     1       7.642   5.917  18.991  0.00  0.00    +0.000 C 
BRANCH  13  17
ATOM     17  C   UNL     1       7.529   4.484  16.851  0.00  0.00    +0.000 C 
BRANCH  17  18
ATOM     18  O   UNL     1       7.442   5.009  15.526  0.00  0.00    +0.000 OA
ATOM     19  C   UNL     1       6.553   4.242  14.721  0.00  0.00    +0.000 C 
ENDBRANCH  17  18
ENDBRANCH  13  17
ENDBRANCH  12  13
ENDBRANCH   3  12
TORSDOF 6
ENDMDL
MODEL 9
REMARK VINA RESULT:      -5.8      2.205      3.209
REMARK  Name = 
REMARK  8 active torsions:
REMARK  status: ('A' for Active; 'I' for Inactive)
REMARK    1  A    between atoms: C_1  and  C_2
REMARK    2  A    between atoms: C_2  and  C_3
REMARK    3  A    between atoms: C_6  and  C_7
REMARK    4  A    between atoms: N_9  and  C_10
REMARK    5  A    between atoms: C_10  and  C_11
REMARK    6  A    between atoms: C_11  and  C_12
REMARK    7  A    between atoms: C_12  and  O_13
REMARK    8  A    between atoms: O_13  and  C_14
REMARK                            x       y       z     vdW  Elec       q    Type
REMARK                         _______ _______ _______ _____ _____    ______ ____
ROOT
ATOM      1  C   UNL     1       6.523   5.578  15.740  0.00  0.00    +0.000 C 
ATOM      2  O   UNL     1       7.517   6.100  16.236  0.00  0.00    +0.000 OA
ATOM      3  N   UNL     1       5.293   5.608  16.363  0.00  0.00    +0.000 N 
ATOM      4  H   UNL     1       4.544   5.083  15.931  0.00  0.00    +0.000 HD
ENDROOT
BRANCH   1   8
ATOM      5  C   UNL     1       6.061   3.490  12.464  0.00  0.00    +0.000 A 
ATOM      6  C   UNL     1       7.217   4.230  12.312  0.00  0.00    +0.000 A 
ATOM      7  C   UNL     1       7.498   5.032  13.456  0.00  0.00    +0.000 A 
ATOM      8  C   UNL     1       6.550   4.891  14.453  0.00  0.00    +0.000 A 
ATOM      9  S   UNL     1       5.332   3.777  13.984  0.00  0.00    +0.000 S 
BRANCH   5  11
ATOM     10  C   UNL     1       4.040   2.925  11.088  0.00  0.00    +0.000 C 
ATOM     11  C   UNL     1       5.449   2.520  11.498  0.00  0.00    +0.000 C 
ENDBRANCH   5  11
ENDBRANCH   1   8
BRANCH   3  12
ATOM     12  C   UNL     1       5.028   6.281  17.617  0.00  0.00    +0.000 C 
BRANCH  12  13
ATOM     13  C   UNL     1       3.726   5.716  18.197  0.00  0.00    +0.000 C 
ATOM     14  C   UNL     1       3.776   5.568  19.750  0.00  0.00    +0.000 C 
ATOM     15  C   UNL     1       2.365   6.180  19.818  0.00  0.00    +0.000 C 
ATOM     16  C   UNL     1       2.616   6.793  18.429  0.00  0.00    +0.000 C 
BRANCH  13  17
ATOM     17  C   UNL     1       3.201   4.477  17.457  0.00  0.00    +0.000 C 
BRANCH  17  18
ATOM     18  O   UNL     1       3.774   3.300  18.028  0.00  0.00    +0.000 OA
ATOM     19  C   UNL     1       2.962   2.157  17.785  0.00  0.00    +0.000 C 
ENDBRANCH  17  18
ENDBRANCH  13  17
ENDBRANCH  12  13
ENDBRANCH   3  12
TORSDOF 6
ENDMDL
