MODEL 1
REMARK VINA RESULT:      -7.0      0.000      0.000
REMARK  Name = 
REMARK  14 active torsions:
REMARK  status: ('A' for Active; 'I' for Inactive)
REMARK    1  A    between atoms: C_1  and  O_2
REMARK    2  A    between atoms: O_2  and  C_3
REMARK    3  A    between atoms: C_3  and  C_5
REMARK    4  A    between atoms: C_5  and  C_6
REMARK    5  A    between atoms: C_5  and  N_7
REMARK    6  A    between atoms: N_7  and  P_8
REMARK    7  A    between atoms: P_8  and  O_10
REMARK    8  A    between atoms: P_8  and  C_17
REMARK    9  A    between atoms: O_10  and  C_11
REMARK   10  A    between atoms: C_17  and  C_20
REMARK   11  A    between atoms: C_20  and  C_21
REMARK   12  A    between atoms: C_22  and  C_23
REMARK   13  A    between atoms: C_22  and  C_24
REMARK   14  A    between atoms: C_24  and  O_25
REMARK                            x       y       z     vdW  Elec       q    Type
REMARK                         _______ _______ _______ _____ _____    ______ ____
ROOT
ATOM      1  P   UNL     1       3.983   6.543  18.355  0.00  0.00    +0.000 P 
ATOM      2  O   UNL     1       4.086   7.082  16.910  0.00  0.00    +0.000 OA
ENDROOT
BRANCH   1   3
ATOM      3  C   UNL     1       2.364   7.385  18.487  0.00  0.00    +0.000 C 
ATOM      4  F   UNL     1       1.638   6.649  17.600  0.00  0.00    +0.000 F 
ATOM      5  F   UNL     1       1.859   7.125  19.713  0.00  0.00    +0.000 F 
BRANCH   3   6
ATOM      6  C   UNL     1       2.358   8.860  18.102  0.00  0.00    +0.000 C 
BRANCH   6   7
ATOM      7  C   UNL     1       1.048   9.526  17.810  0.00  0.00    +0.000 C 
ATOM      8  C   UNL     1       0.305  10.127  18.764  0.00  0.00    +0.000 C 
ATOM      9  C   UNL     1       0.678  10.179  20.230  0.00  0.00    +0.000 C 
BRANCH   8  10
ATOM     10  C   UNL     1      -0.970  10.841  18.410  0.00  0.00    +0.000 C 
BRANCH  10  11
ATOM     11  O   UNL     1      -1.885   9.912  17.856  0.00  0.00    +0.000 OA
ATOM     12  H   UNL     1      -1.386   9.092  17.705  0.00  0.00    +0.000 HD
ENDBRANCH  10  11
ENDBRANCH   8  10
ENDBRANCH   6   7
ENDBRANCH   3   6
ENDBRANCH   1   3
BRANCH   1  13
ATOM     13  N   UNL     1       5.558   5.724  18.227  0.00  0.00    +0.000 NA
ATOM     14  H   UNL     1       6.068   5.725  19.106  0.00  0.00    +0.000 HD
BRANCH  13  15
ATOM     15  C   UNL     1       6.430   6.306  17.155  0.00  0.00    +0.000 C 
ATOM     16  C   UNL     1       7.555   7.165  17.740  0.00  0.00    +0.000 C 
BRANCH  15  17
ATOM     17  C   UNL     1       7.038   5.252  16.242  0.00  0.00    +0.000 C 
ATOM     18  O   UNL     1       7.872   4.416  16.571  0.00  0.00    +0.000 OA
BRANCH  17  20
ATOM     19  C   UNL     1       6.479   4.308  14.107  0.00  0.00    +0.000 C 
ATOM     20  O   UNL     1       6.552   5.440  14.975  0.00  0.00    +0.000 OA
ENDBRANCH  17  20
ENDBRANCH  15  17
ENDBRANCH  13  15
ENDBRANCH   1  13
BRANCH   1  21
ATOM     21  O   UNL     1       3.269   5.058  18.177  0.00  0.00    +0.000 OA
BRANCH  21  22
ATOM     22  C   UNL     1       2.654   4.298  19.127  0.00  0.00    +0.000 A 
ATOM     23  C   UNL     1       3.043   4.249  20.461  0.00  0.00    +0.000 A 
ATOM     24  C   UNL     1       2.296   3.472  21.353  0.00  0.00    +0.000 A 
ATOM     25  C   UNL     1       1.182   2.756  20.922  0.00  0.00    +0.000 A 
ATOM     26  C   UNL     1       0.803   2.802  19.583  0.00  0.00    +0.000 A 
ATOM     27  C   UNL     1       1.541   3.574  18.686  0.00  0.00    +0.000 A 
ENDBRANCH  21  22
ENDBRANCH   1  21
TORSDOF 11
ENDMDL
MODEL 2
REMARK VINA RESULT:      -6.8      2.368      6.653
REMARK  Name = 
REMARK  14 active torsions:
REMARK  status: ('A' for Active; 'I' for Inactive)
REMARK    1  A    between atoms: C_1  and  O_2
REMARK    2  A    between atoms: O_2  and  C_3
REMARK    3  A    between atoms: C_3  and  C_5
REMARK    4  A    between atoms: C_5  and  C_6
REMARK    5  A    between atoms: C_5  and  N_7
REMARK    6  A    between atoms: N_7  and  P_8
REMARK    7  A    between atoms: P_8  and  O_10
REMARK    8  A    between atoms: P_8  and  C_17
REMARK    9  A    between atoms: O_10  and  C_11
REMARK   10  A    between atoms: C_17  and  C_20
REMARK   11  A    between atoms: C_20  and  C_21
REMARK   12  A    between atoms: C_22  and  C_23
REMARK   13  A    between atoms: C_22  and  C_24
REMARK   14  A    between atoms: C_24  and  O_25
REMARK                            x       y       z     vdW  Elec       q    Type
REMARK                         _______ _______ _______ _____ _____    ______ ____
ROOT
ATOM      1  P   UNL     1       2.701   5.055  18.939  0.00  0.00    +0.000 P 
ATOM      2  O   UNL     1       1.829   5.361  17.700  0.00  0.00    +0.000 OA
ENDROOT
BRANCH   1   3
ATOM      3  C   UNL     1       4.175   5.261  17.874  0.00  0.00    +0.000 C 
ATOM      4  F   UNL     1       3.696   6.163  16.974  0.00  0.00    +0.000 F 
ATOM      5  F   UNL     1       5.123   5.897  18.597  0.00  0.00    +0.000 F 
BRANCH   3   6
ATOM      6  C   UNL     1       4.659   3.997  17.173  0.00  0.00    +0.000 C 
BRANCH   6   7
ATOM      7  C   UNL     1       5.126   4.092  15.752  0.00  0.00    +0.000 C 
ATOM      8  C   UNL     1       6.385   4.452  15.419  0.00  0.00    +0.000 C 
ATOM      9  C   UNL     1       7.458   4.827  16.418  0.00  0.00    +0.000 C 
BRANCH   8  10
ATOM     10  C   UNL     1       6.825   4.467  13.982  0.00  0.00    +0.000 C 
BRANCH  10  11
ATOM     11  O   UNL     1       6.313   3.321  13.324  0.00  0.00    +0.000 OA
ATOM     12  H   UNL     1       6.204   2.640  14.009  0.00  0.00    +0.000 HD
ENDBRANCH  10  11
ENDBRANCH   8  10
ENDBRANCH   6   7
ENDBRANCH   3   6
ENDBRANCH   1   3
BRANCH   1  13
ATOM     13  N   UNL     1       1.267   4.855  19.974  0.00  0.00    +0.000 NA
ATOM     14  H   UNL     1       1.313   5.425  20.813  0.00  0.00    +0.000 HD
BRANCH  13  15
ATOM     15  C   UNL     1       1.028   3.426  20.364  0.00  0.00    +0.000 C 
ATOM     16  C   UNL     1       0.731   2.547  19.146  0.00  0.00    +0.000 C 
BRANCH  15  17
ATOM     17  C   UNL     1       2.186   2.818  21.140  0.00  0.00    +0.000 C 
ATOM     18  O   UNL     1       2.444   3.025  22.321  0.00  0.00    +0.000 OA
BRANCH  17  20
ATOM     19  C   UNL     1       4.357   2.128  20.384  0.00  0.00    +0.000 C 
ATOM     20  O   UNL     1       2.934   2.057  20.281  0.00  0.00    +0.000 OA
ENDBRANCH  17  20
ENDBRANCH  15  17
ENDBRANCH  13  15
ENDBRANCH   1  13
BRANCH   1  21
ATOM     21  O   UNL     1       2.925   6.537  19.646  0.00  0.00    +0.000 OA
BRANCH  21  22
ATOM     22  C   UNL     1       2.188   7.671  19.479  0.00  0.00    +0.000 A 
ATOM     23  C   UNL     1       2.083   8.366  18.281  0.00  0.00    +0.000 A 
ATOM     24  C   UNL     1       1.249   9.489  18.221  0.00  0.00    +0.000 A 
ATOM     25  C   UNL     1       0.535   9.910  19.340  0.00  0.00    +0.000 A 
ATOM     26  C   UNL     1       0.651   9.215  20.541  0.00  0.00    +0.000 A 
ATOM     27  C   UNL     1       1.479   8.095  20.609  0.00  0.00    +0.000 A 
ENDBRANCH  21  22
ENDBRANCH   1  21
TORSDOF 11
ENDMDL
MODEL 3
REMARK VINA RESULT:      -6.8      2.365      3.871
REMARK  Name = 
REMARK  14 active torsions:
REMARK  status: ('A' for Active; 'I' for Inactive)
REMARK    1  A    between atoms: C_1  and  O_2
REMARK    2  A    between atoms: O_2  and  C_3
REMARK    3  A    between atoms: C_3  and  C_5
REMARK    4  A    between atoms: C_5  and  C_6
REMARK    5  A    between atoms: C_5  and  N_7
REMARK    6  A    between atoms: N_7  and  P_8
REMARK    7  A    between atoms: P_8  and  O_10
REMARK    8  A    between atoms: P_8  and  C_17
REMARK    9  A    between atoms: O_10  and  C_11
REMARK   10  A    between atoms: C_17  and  C_20
REMARK   11  A    between atoms: C_20  and  C_21
REMARK   12  A    between atoms: C_22  and  C_23
REMARK   13  A    between atoms: C_22  and  C_24
REMARK   14  A    between atoms: C_24  and  O_25
REMARK                            x       y       z     vdW  Elec       q    Type
REMARK                         _______ _______ _______ _____ _____    ______ ____
ROOT
ATOM      1  P   UNL     1       4.182   6.303  18.534  0.00  0.00    +0.000 P 
ATOM      2  O   UNL     1       4.216   7.455  17.503  0.00  0.00    +0.000 OA
ENDROOT
BRANCH   1   3
ATOM      3  C   UNL     1       2.375   6.557  18.664  0.00  0.00    +0.000 C 
ATOM      4  F   UNL     1       2.278   7.834  18.201  0.00  0.00    +0.000 F 
ATOM      5  F   UNL     1       1.778   5.765  17.747  0.00  0.00    +0.000 F 
BRANCH   3   6
ATOM      6  C   UNL     1       1.796   6.442  20.070  0.00  0.00    +0.000 C 
BRANCH   6   7
ATOM      7  C   UNL     1       2.240   5.311  20.945  0.00  0.00    +0.000 C 
ATOM      8  C   UNL     1       1.685   4.081  20.888  0.00  0.00    +0.000 C 
ATOM      9  C   UNL     1       0.543   3.701  19.971  0.00  0.00    +0.000 C 
BRANCH   8  10
ATOM     10  C   UNL     1       2.211   2.960  21.741  0.00  0.00    +0.000 C 
BRANCH  10  11
ATOM     11  O   UNL     1       1.145   2.401  22.487  0.00  0.00    +0.000 OA
ATOM     12  H   UNL     1       0.603   1.898  21.855  0.00  0.00    +0.000 HD
ENDBRANCH  10  11
ENDBRANCH   8  10
ENDBRANCH   6   7
ENDBRANCH   3   6
ENDBRANCH   1   3
BRANCH   1  13
ATOM     13  N   UNL     1       5.941   6.057  18.408  0.00  0.00    +0.000 NA
ATOM     14  H   UNL     1       6.449   6.497  19.168  0.00  0.00    +0.000 HD
BRANCH  13  15
ATOM     15  C   UNL     1       6.501   6.535  17.101  0.00  0.00    +0.000 C 
ATOM     16  C   UNL     1       7.616   7.566  17.305  0.00  0.00    +0.000 C 
BRANCH  15  17
ATOM     17  C   UNL     1       7.028   5.406  16.229  0.00  0.00    +0.000 C 
ATOM     18  O   UNL     1       7.836   4.551  16.576  0.00  0.00    +0.000 OA
BRANCH  17  20
ATOM     19  C   UNL     1       6.490   4.403  14.116  0.00  0.00    +0.000 C 
ATOM     20  O   UNL     1       6.504   5.546  14.971  0.00  0.00    +0.000 OA
ENDBRANCH  17  20
ENDBRANCH  15  17
ENDBRANCH  13  15
ENDBRANCH   1  13
BRANCH   1  21
ATOM     21  O   UNL     1       3.990   4.943  17.607  0.00  0.00    +0.000 OA
BRANCH  21  22
ATOM     22  C   UNL     1       3.826   3.655  18.022  0.00  0.00    +0.000 A 
ATOM     23  C   UNL     1       2.922   2.762  17.460  0.00  0.00    +0.000 A 
ATOM     24  C   UNL     1       2.886   1.447  17.938  0.00  0.00    +0.000 A 
ATOM     25  C   UNL     1       3.736   1.033  18.960  0.00  0.00    +0.000 A 
ATOM     26  C   UNL     1       4.633   1.935  19.526  0.00  0.00    +0.000 A 
ATOM     27  C   UNL     1       4.676   3.247  19.055  0.00  0.00    +0.000 A 
ENDBRANCH  21  22
ENDBRANCH   1  21
TORSDOF 11
ENDMDL
MODEL 4
REMARK VINA RESULT:      -6.7      1.147      1.370
REMARK  Name = 
REMARK  14 active torsions:
REMARK  status: ('A' for Active; 'I' for Inactive)
REMARK    1  A    between atoms: C_1  and  O_2
REMARK    2  A    between atoms: O_2  and  C_3
REMARK    3  A    between atoms: C_3  and  C_5
REMARK    4  A    between atoms: C_5  and  C_6
REMARK    5  A    between atoms: C_5  and  N_7
REMARK    6  A    between atoms: N_7  and  P_8
REMARK    7  A    between atoms: P_8  and  O_10
REMARK    8  A    between atoms: P_8  and  C_17
REMARK    9  A    between atoms: O_10  and  C_11
REMARK   10  A    between atoms: C_17  and  C_20
REMARK   11  A    between atoms: C_20  and  C_21
REMARK   12  A    between atoms: C_22  and  C_23
REMARK   13  A    between atoms: C_22  and  C_24
REMARK   14  A    between atoms: C_24  and  O_25
REMARK                            x       y       z     vdW  Elec       q    Type
REMARK                         _______ _______ _______ _____ _____    ______ ____
ROOT
ATOM      1  P   UNL     1       3.942   6.526  18.125  0.00  0.00    +0.000 P 
ATOM      2  O   UNL     1       4.156   6.917  16.644  0.00  0.00    +0.000 OA
ENDROOT
BRANCH   1   3
ATOM      3  C   UNL     1       2.510   7.665  18.153  0.00  0.00    +0.000 C 
ATOM      4  F   UNL     1       3.050   8.746  17.524  0.00  0.00    +0.000 F 
ATOM      5  F   UNL     1       1.566   7.165  17.325  0.00  0.00    +0.000 F 
BRANCH   3   6
ATOM      6  C   UNL     1       1.999   8.042  19.539  0.00  0.00    +0.000 C 
BRANCH   6   7
ATOM      7  C   UNL     1       1.217   9.311  19.701  0.00  0.00    +0.000 C 
ATOM      8  C   UNL     1       0.247   9.457  20.629  0.00  0.00    +0.000 C 
ATOM      9  C   UNL     1      -0.188   8.371  21.589  0.00  0.00    +0.000 C 
BRANCH   8  10
ATOM     10  C   UNL     1      -0.463  10.772  20.797  0.00  0.00    +0.000 C 
BRANCH  10  11
ATOM     11  O   UNL     1      -0.660  11.362  19.525  0.00  0.00    +0.000 OA
ATOM     12  H   UNL     1      -1.493  10.997  19.180  0.00  0.00    +0.000 HD
ENDBRANCH  10  11
ENDBRANCH   8  10
ENDBRANCH   6   7
ENDBRANCH   3   6
ENDBRANCH   1   3
BRANCH   1  13
ATOM     13  N   UNL     1       5.335   5.419  18.097  0.00  0.00    +0.000 NA
ATOM     14  H   UNL     1       5.719   5.257  19.023  0.00  0.00    +0.000 HD
BRANCH  13  15
ATOM     15  C   UNL     1       6.430   5.886  17.186  0.00  0.00    +0.000 C 
ATOM     16  C   UNL     1       7.186   7.083  17.774  0.00  0.00    +0.000 C 
BRANCH  15  17
ATOM     17  C   UNL     1       7.430   4.792  16.844  0.00  0.00    +0.000 C 
ATOM     18  O   UNL     1       8.091   4.148  17.652  0.00  0.00    +0.000 OA
BRANCH  17  20
ATOM     19  C   UNL     1       6.366   4.269  14.757  0.00  0.00    +0.000 C 
ATOM     20  O   UNL     1       7.521   4.696  15.480  0.00  0.00    +0.000 OA
ENDBRANCH  17  20
ENDBRANCH  15  17
ENDBRANCH  13  15
ENDBRANCH   1  13
BRANCH   1  21
ATOM     21  O   UNL     1       2.961   5.192  18.048  0.00  0.00    +0.000 OA
BRANCH  21  22
ATOM     22  C   UNL     1       2.492   4.430  19.075  0.00  0.00    +0.000 A 
ATOM     23  C   UNL     1       2.714   4.707  20.419  0.00  0.00    +0.000 A 
ATOM     24  C   UNL     1       2.132   3.879  21.385  0.00  0.00    +0.000 A 
ATOM     25  C   UNL     1       1.343   2.792  21.015  0.00  0.00    +0.000 A 
ATOM     26  C   UNL     1       1.131   2.514  19.667  0.00  0.00    +0.000 A 
ATOM     27  C   UNL     1       1.708   3.335  18.698  0.00  0.00    +0.000 A 
ENDBRANCH  21  22
ENDBRANCH   1  21
TORSDOF 11
ENDMDL
MODEL 5
REMARK VINA RESULT:      -6.7      1.611      1.886
REMARK  Name = 
REMARK  14 active torsions:
REMARK  status: ('A' for Active; 'I' for Inactive)
REMARK    1  A    between atoms: C_1  and  O_2
REMARK    2  A    between atoms: O_2  and  C_3
REMARK    3  A    between atoms: C_3  and  C_5
REMARK    4  A    between atoms: C_5  and  C_6
REMARK    5  A    between atoms: C_5  and  N_7
REMARK    6  A    between atoms: N_7  and  P_8
REMARK    7  A    between atoms: P_8  and  O_10
REMARK    8  A    between atoms: P_8  and  C_17
REMARK    9  A    between atoms: O_10  and  C_11
REMARK   10  A    between atoms: C_17  and  C_20
REMARK   11  A    between atoms: C_20  and  C_21
REMARK   12  A    between atoms: C_22  and  C_23
REMARK   13  A    between atoms: C_22  and  C_24
REMARK   14  A    between atoms: C_24  and  O_25
REMARK                            x       y       z     vdW  Elec       q    Type
REMARK                         _______ _______ _______ _____ _____    ______ ____
ROOT
ATOM      1  P   UNL     1       4.205   6.349  18.486  0.00  0.00    +0.000 P 
ATOM      2  O   UNL     1       3.874   5.658  17.143  0.00  0.00    +0.000 OA
ENDROOT
BRANCH   1   3
ATOM      3  C   UNL     1       2.564   7.155  18.404  0.00  0.00    +0.000 C 
ATOM      4  F   UNL     1       2.845   8.186  17.559  0.00  0.00    +0.000 F 
ATOM      5  F   UNL     1       1.728   6.327  17.741  0.00  0.00    +0.000 F 
BRANCH   3   6
ATOM      6  C   UNL     1       2.020   7.672  19.731  0.00  0.00    +0.000 C 
BRANCH   6   7
ATOM      7  C   UNL     1       1.261   8.964  19.747  0.00  0.00    +0.000 C 
ATOM      8  C   UNL     1       0.931   9.603  20.890  0.00  0.00    +0.000 C 
ATOM      9  C   UNL     1       1.252   9.091  22.278  0.00  0.00    +0.000 C 
BRANCH   8  10
ATOM     10  C   UNL     1       0.228  10.931  20.853  0.00  0.00    +0.000 C 
BRANCH  10  11
ATOM     11  O   UNL     1       0.009  11.381  22.178  0.00  0.00    +0.000 OA
ATOM     12  H   UNL     1      -0.860  11.034  22.445  0.00  0.00    +0.000 HD
ENDBRANCH  10  11
ENDBRANCH   8  10
ENDBRANCH   6   7
ENDBRANCH   3   6
ENDBRANCH   1   3
BRANCH   1  13
ATOM     13  N   UNL     1       5.801   5.566  18.566  0.00  0.00    +0.000 NA
ATOM     14  H   UNL     1       6.308   5.806  19.412  0.00  0.00    +0.000 HD
BRANCH  13  15
ATOM     15  C   UNL     1       6.659   5.874  17.375  0.00  0.00    +0.000 C 
ATOM     16  C   UNL     1       7.485   7.148  17.585  0.00  0.00    +0.000 C 
BRANCH  15  17
ATOM     17  C   UNL     1       7.597   4.735  17.005  0.00  0.00    +0.000 C 
ATOM     18  O   UNL     1       8.311   4.114  17.784  0.00  0.00    +0.000 OA
BRANCH  17  20
ATOM     19  C   UNL     1       6.319   4.220  15.039  0.00  0.00    +0.000 C 
ATOM     20  O   UNL     1       7.564   4.570  15.645  0.00  0.00    +0.000 OA
ENDBRANCH  17  20
ENDBRANCH  15  17
ENDBRANCH  13  15
ENDBRANCH   1  13
BRANCH   1  21
ATOM     21  O   UNL     1       3.688   5.267  19.630  0.00  0.00    +0.000 OA
BRANCH  21  22
ATOM     22  C   UNL     1       2.803   4.241  19.481  0.00  0.00    +0.000 A 
ATOM     23  C   UNL     1       1.612   4.128  20.189  0.00  0.00    +0.000 A 
ATOM     24  C   UNL     1       0.759   3.055  19.908  0.00  0.00    +0.000 A 
ATOM     25  C   UNL     1       1.089   2.112  18.937  0.00  0.00    +0.000 A 
ATOM     26  C   UNL     1       2.288   2.226  18.238  0.00  0.00    +0.000 A 
ATOM     27  C   UNL     1       3.144   3.292  18.512  0.00  0.00    +0.000 A 
ENDBRANCH  21  22
ENDBRANCH   1  21
TORSDOF 11
ENDMDL
MODEL 6
REMARK VINA RESULT:      -6.7      2.519      6.349
REMARK  Name = 
REMARK  14 active torsions:
REMARK  status: ('A' for Active; 'I' for Inactive)
REMARK    1  A    between atoms: C_1  and  O_2
REMARK    2  A    between atoms: O_2  and  C_3
REMARK    3  A    between atoms: C_3  and  C_5
REMARK    4  A    between atoms: C_5  and  C_6
REMARK    5  A    between atoms: C_5  and  N_7
REMARK    6  A    between atoms: N_7  and  P_8
REMARK    7  A    between atoms: P_8  and  O_10
REMARK    8  A    between atoms: P_8  and  C_17
REMARK    9  A    between atoms: O_10  and  C_11
REMARK   10  A    between atoms: C_17  and  C_20
REMARK   11  A    between atoms: C_20  and  C_21
REMARK   12  A    between atoms: C_22  and  C_23
REMARK   13  A    between atoms: C_22  and  C_24
REMARK   14  A    between atoms: C_24  and  O_25
REMARK                            x       y       z     vdW  Elec       q    Type
REMARK                         _______ _______ _______ _____ _____    ______ ____
ROOT
ATOM      1  P   UNL     1       3.376   4.566  17.996  0.00  0.00    +0.000 P 
ATOM      2  O   UNL     1       3.804   3.942  16.647  0.00  0.00    +0.000 OA
ENDROOT
BRANCH   1   3
ATOM      3  C   UNL     1       5.145   4.889  18.336  0.00  0.00    +0.000 C 
ATOM      4  F   UNL     1       5.035   5.873  19.271  0.00  0.00    +0.000 F 
ATOM      5  F   UNL     1       5.651   3.807  18.967  0.00  0.00    +0.000 F 
BRANCH   3   6
ATOM      6  C   UNL     1       5.967   5.364  17.143  0.00  0.00    +0.000 C 
BRANCH   6   7
ATOM      7  C   UNL     1       6.506   6.762  17.146  0.00  0.00    +0.000 C 
ATOM      8  C   UNL     1       7.528   7.149  17.939  0.00  0.00    +0.000 C 
ATOM      9  C   UNL     1       8.229   6.246  18.932  0.00  0.00    +0.000 C 
BRANCH   8  10
ATOM     10  C   UNL     1       8.078   8.546  17.858  0.00  0.00    +0.000 C 
BRANCH  10  11
ATOM     11  O   UNL     1       8.846   8.814  19.018  0.00  0.00    +0.000 OA
ATOM     12  H   UNL     1       8.215   9.078  19.709  0.00  0.00    +0.000 HD
ENDBRANCH  10  11
ENDBRANCH   8  10
ENDBRANCH   6   7
ENDBRANCH   3   6
ENDBRANCH   1   3
BRANCH   1  13
ATOM     13  N   UNL     1       1.656   4.253  17.665  0.00  0.00    +0.000 NA
ATOM     14  H   UNL     1       1.075   5.070  17.827  0.00  0.00    +0.000 HD
BRANCH  13  15
ATOM     15  C   UNL     1       1.113   3.101  18.458  0.00  0.00    +0.000 C 
ATOM     16  C   UNL     1       1.944   1.830  18.254  0.00  0.00    +0.000 C 
BRANCH  15  17
ATOM     17  C   UNL     1       1.019   3.394  19.948  0.00  0.00    +0.000 C 
ATOM     18  O   UNL     1       0.528   4.399  20.450  0.00  0.00    +0.000 OA
BRANCH  17  20
ATOM     19  C   UNL     1       2.498   2.727  21.717  0.00  0.00    +0.000 C 
ATOM     20  O   UNL     1       1.638   2.380  20.631  0.00  0.00    +0.000 OA
ENDBRANCH  17  20
ENDBRANCH  15  17
ENDBRANCH  13  15
ENDBRANCH   1  13
BRANCH   1  21
ATOM     21  O   UNL     1       3.091   6.157  17.627  0.00  0.00    +0.000 OA
BRANCH  21  22
ATOM     22  C   UNL     1       2.467   7.100  18.386  0.00  0.00    +0.000 A 
ATOM     23  C   UNL     1       2.255   6.987  19.755  0.00  0.00    +0.000 A 
ATOM     24  C   UNL     1       1.650   8.050  20.435  0.00  0.00    +0.000 A 
ATOM     25  C   UNL     1       1.261   9.204  19.760  0.00  0.00    +0.000 A 
ATOM     26  C   UNL     1       1.467   9.308  18.387  0.00  0.00    +0.000 A 
ATOM     27  C   UNL     1       2.070   8.254  17.701  0.00  0.00    +0.000 A 
ENDBRANCH  21  22
ENDBRANCH   1  21
TORSDOF 11
ENDMDL
MODEL 7
REMARK VINA RESULT:      -6.7      2.865      6.556
REMARK  Name = 
REMARK  14 active torsions:
REMARK  status: ('A' for Active; 'I' for Inactive)
REMARK    1  A    between atoms: C_1  and  O_2
REMARK    2  A    between atoms: O_2  and  C_3
REMARK    3  A    between atoms: C_3  and  C_5
REMARK    4  A    between atoms: C_5  and  C_6
REMARK    5  A    between atoms: C_5  and  N_7
REMARK    6  A    between atoms: N_7  and  P_8
REMARK    7  A    between atoms: P_8  and  O_10
REMARK    8  A    between atoms: P_8  and  C_17
REMARK    9  A    between atoms: O_10  and  C_11
REMARK   10  A    between atoms: C_17  and  C_20
REMARK   11  A    between atoms: C_20  and  C_21
REMARK   12  A    between atoms: C_22  and  C_23
REMARK   13  A    between atoms: C_22  and  C_24
REMARK   14  A    between atoms: C_24  and  O_25
REMARK                            x       y       z     vdW  Elec       q    Type
REMARK                         _______ _______ _______ _____ _____    ______ ____
ROOT
ATOM      1  P   UNL     1       5.515   5.353  18.719  0.00  0.00    +0.000 P 
ATOM      2  O   UNL     1       6.564   5.254  19.851  0.00  0.00    +0.000 OA
ENDROOT
BRANCH   1   3
ATOM      3  C   UNL     1       6.867   5.044  17.525  0.00  0.00    +0.000 C 
ATOM      4  F   UNL     1       7.456   6.272  17.506  0.00  0.00    +0.000 F 
ATOM      5  F   UNL     1       7.748   4.199  18.106  0.00  0.00    +0.000 F 
BRANCH   3   6
ATOM      6  C   UNL     1       6.425   4.630  16.126  0.00  0.00    +0.000 C 
BRANCH   6   7
ATOM      7  C   UNL     1       7.213   5.113  14.946  0.00  0.00    +0.000 C 
ATOM      8  C   UNL     1       6.982   4.682  13.687  0.00  0.00    +0.000 C 
ATOM      9  C   UNL     1       5.938   3.652  13.315  0.00  0.00    +0.000 C 
BRANCH   8  10
ATOM     10  C   UNL     1       7.755   5.246  12.528  0.00  0.00    +0.000 C 
BRANCH  10  11
ATOM     11  O   UNL     1       8.865   5.977  13.019  0.00  0.00    +0.000 OA
ATOM     12  H   UNL     1       8.867   5.857  13.983  0.00  0.00    +0.000 HD
ENDBRANCH  10  11
ENDBRANCH   8  10
ENDBRANCH   6   7
ENDBRANCH   3   6
ENDBRANCH   1   3
BRANCH   1  13
ATOM     13  N   UNL     1       4.200   5.655  19.880  0.00  0.00    +0.000 NA
ATOM     14  H   UNL     1       3.612   4.839  20.019  0.00  0.00    +0.000 HD
BRANCH  13  15
ATOM     15  C   UNL     1       3.339   6.819  19.492  0.00  0.00    +0.000 C 
ATOM     16  C   UNL     1       3.045   6.832  17.989  0.00  0.00    +0.000 C 
BRANCH  15  17
ATOM     17  C   UNL     1       2.023   6.868  20.252  0.00  0.00    +0.000 C 
ATOM     18  O   UNL     1       1.388   5.896  20.647  0.00  0.00    +0.000 OA
BRANCH  17  20
ATOM     19  C   UNL     1       0.602   8.495  21.298  0.00  0.00    +0.000 C 
ATOM     20  O   UNL     1       1.629   8.176  20.359  0.00  0.00    +0.000 OA
ENDBRANCH  17  20
ENDBRANCH  15  17
ENDBRANCH  13  15
ENDBRANCH   1  13
BRANCH   1  21
ATOM     21  O   UNL     1       4.942   3.805  18.570  0.00  0.00    +0.000 OA
BRANCH  21  22
ATOM     22  C   UNL     1       3.715   3.323  18.913  0.00  0.00    +0.000 A 
ATOM     23  C   UNL     1       3.384   2.859  20.180  0.00  0.00    +0.000 A 
ATOM     24  C   UNL     1       2.071   2.440  20.424  0.00  0.00    +0.000 A 
ATOM     25  C   UNL     1       1.107   2.482  19.420  0.00  0.00    +0.000 A 
ATOM     26  C   UNL     1       1.447   2.939  18.150  0.00  0.00    +0.000 A 
ATOM     27  C   UNL     1       2.753   3.359  17.898  0.00  0.00    +0.000 A 
ENDBRANCH  21  22
ENDBRANCH   1  21
TORSDOF 11
ENDMDL
MODEL 8
REMARK VINA RESULT:      -6.7      1.125      1.654
REMARK  Name = 
REMARK  14 active torsions:
REMARK  status: ('A' for Active; 'I' for Inactive)
REMARK    1  A    between atoms: C_1  and  O_2
REMARK    2  A    between atoms: O_2  and  C_3
REMARK    3  A    between atoms: C_3  and  C_5
REMARK    4  A    between atoms: C_5  and  C_6
REMARK    5  A    between atoms: C_5  and  N_7
REMARK    6  A    between atoms: N_7  and  P_8
REMARK    7  A    between atoms: P_8  and  O_10
REMARK    8  A    between atoms: P_8  and  C_17
REMARK    9  A    between atoms: O_10  and  C_11
REMARK   10  A    between atoms: C_17  and  C_20
REMARK   11  A    between atoms: C_20  and  C_21
REMARK   12  A    between atoms: C_22  and  C_23
REMARK   13  A    between atoms: C_22  and  C_24
REMARK   14  A    between atoms: C_24  and  O_25
REMARK                            x       y       z     vdW  Elec       q    Type
REMARK                         _______ _______ _______ _____ _____    ______ ____
ROOT
ATOM      1  P   UNL     1       4.005   6.269  18.291  0.00  0.00    +0.000 P 
ATOM      2  O   UNL     1       4.051   6.786  16.835  0.00  0.00    +0.000 OA
ENDROOT
BRANCH   1   3
ATOM      3  C   UNL     1       2.440   7.194  18.503  0.00  0.00    +0.000 C 
ATOM      4  F   UNL     1       1.624   6.477  17.681  0.00  0.00    +0.000 F 
ATOM      5  F   UNL     1       2.002   6.986  19.764  0.00  0.00    +0.000 F 
BRANCH   3   6
ATOM      6  C   UNL     1       2.482   8.659  18.083  0.00  0.00    +0.000 C 
BRANCH   6   7
ATOM      7  C   UNL     1       1.196   9.356  17.758  0.00  0.00    +0.000 C 
ATOM      8  C   UNL     1       0.458  10.000  18.688  0.00  0.00    +0.000 C 
ATOM      9  C   UNL     1       0.813  10.076  20.157  0.00  0.00    +0.000 C 
BRANCH   8  10
ATOM     10  C   UNL     1      -0.791  10.741  18.299  0.00  0.00    +0.000 C 
BRANCH  10  11
ATOM     11  O   UNL     1      -1.503  11.100  19.470  0.00  0.00    +0.000 OA
ATOM     12  H   UNL     1      -2.188  10.420  19.593  0.00  0.00    +0.000 HD
ENDBRANCH  10  11
ENDBRANCH   8  10
ENDBRANCH   6   7
ENDBRANCH   3   6
ENDBRANCH   1   3
BRANCH   1  13
ATOM     13  N   UNL     1       5.527   5.369  18.085  0.00  0.00    +0.000 NA
ATOM     14  H   UNL     1       5.583   4.560  18.696  0.00  0.00    +0.000 HD
BRANCH  13  15
ATOM     15  C   UNL     1       6.740   6.226  18.292  0.00  0.00    +0.000 C 
ATOM     16  C   UNL     1       7.858   5.464  19.011  0.00  0.00    +0.000 C 
BRANCH  15  17
ATOM     17  C   UNL     1       7.291   6.804  16.997  0.00  0.00    +0.000 C 
ATOM     18  O   UNL     1       7.712   6.155  16.047  0.00  0.00    +0.000 OA
BRANCH  17  20
ATOM     19  C   UNL     1       8.218   8.767  18.021  0.00  0.00    +0.000 C 
ATOM     20  O   UNL     1       7.303   8.170  17.101  0.00  0.00    +0.000 OA
ENDBRANCH  17  20
ENDBRANCH  15  17
ENDBRANCH  13  15
ENDBRANCH   1  13
BRANCH   1  21
ATOM     21  O   UNL     1       3.207   4.821  18.175  0.00  0.00    +0.000 OA
BRANCH  21  22
ATOM     22  C   UNL     1       2.628   4.094  19.172  0.00  0.00    +0.000 A 
ATOM     23  C   UNL     1       3.139   3.988  20.460  0.00  0.00    +0.000 A 
ATOM     24  C   UNL     1       2.422   3.256  21.413  0.00  0.00    +0.000 A 
ATOM     25  C   UNL     1       1.217   2.639  21.084  0.00  0.00    +0.000 A 
ATOM     26  C   UNL     1       0.715   2.741  19.790  0.00  0.00    +0.000 A 
ATOM     27  C   UNL     1       1.423   3.469  18.834  0.00  0.00    +0.000 A 
ENDBRANCH  21  22
ENDBRANCH   1  21
TORSDOF 11
ENDMDL
MODEL 9
REMARK VINA RESULT:      -6.6      1.075      1.603
REMARK  Name = 
REMARK  14 active torsions:
REMARK  status: ('A' for Active; 'I' for Inactive)
REMARK    1  A    between atoms: C_1  and  O_2
REMARK    2  A    between atoms: O_2  and  C_3
REMARK    3  A    between atoms: C_3  and  C_5
REMARK    4  A    between atoms: C_5  and  C_6
REMARK    5  A    between atoms: C_5  and  N_7
REMARK    6  A    between atoms: N_7  and  P_8
REMARK    7  A    between atoms: P_8  and  O_10
REMARK    8  A    between atoms: P_8  and  C_17
REMARK    9  A    between atoms: O_10  and  C_11
REMARK   10  A    between atoms: C_17  and  C_20
REMARK   11  A    between atoms: C_20  and  C_21
REMARK   12  A    between atoms: C_22  and  C_23
REMARK   13  A    between atoms: C_22  and  C_24
REMARK   14  A    between atoms: C_24  and  O_25
REMARK                            x       y       z     vdW  Elec       q    Type
REMARK                         _______ _______ _______ _____ _____    ______ ____
ROOT
ATOM      1  P   UNL     1       3.893   6.621  18.226  0.00  0.00    +0.000 P 
ATOM      2  O   UNL     1       4.301   7.033  16.792  0.00  0.00    +0.000 OA
ENDROOT
BRANCH   1   3
ATOM      3  C   UNL     1       2.346   7.570  17.990  0.00  0.00    +0.000 C 
ATOM      4  F   UNL     1       2.777   8.517  17.111  0.00  0.00    +0.000 F 
ATOM      5  F   UNL     1       1.475   6.785  17.319  0.00  0.00    +0.000 F 
BRANCH   3   6
ATOM      6  C   UNL     1       1.774   8.216  19.247  0.00  0.00    +0.000 C 
BRANCH   6   7
ATOM      7  C   UNL     1       1.667   9.710  19.309  0.00  0.00    +0.000 C 
ATOM      8  C   UNL     1       0.649  10.393  18.743  0.00  0.00    +0.000 C 
ATOM      9  C   UNL     1      -0.480   9.754  17.962  0.00  0.00    +0.000 C 
BRANCH   8  10
ATOM     10  C   UNL     1       0.550  11.886  18.890  0.00  0.00    +0.000 C 
BRANCH  10  11
ATOM     11  O   UNL     1      -0.360  12.390  17.928  0.00  0.00    +0.000 OA
ATOM     12  H   UNL     1       0.163  12.584  17.132  0.00  0.00    +0.000 HD
ENDBRANCH  10  11
ENDBRANCH   8  10
ENDBRANCH   6   7
ENDBRANCH   3   6
ENDBRANCH   1   3
BRANCH   1  13
ATOM     13  N   UNL     1       5.397   5.698  18.455  0.00  0.00    +0.000 NA
ATOM     14  H   UNL     1       5.845   5.903  19.343  0.00  0.00    +0.000 HD
BRANCH  13  15
ATOM     15  C   UNL     1       6.384   5.912  17.346  0.00  0.00    +0.000 C 
ATOM     16  C   UNL     1       7.466   6.924  17.736  0.00  0.00    +0.000 C 
BRANCH  15  17
ATOM     17  C   UNL     1       7.054   4.626  16.887  0.00  0.00    +0.000 C 
ATOM     18  O   UNL     1       8.146   4.214  17.264  0.00  0.00    +0.000 OA
BRANCH  17  20
ATOM     19  C   UNL     1       5.999   4.781  14.736  0.00  0.00    +0.000 C 
ATOM     20  O   UNL     1       6.267   4.043  15.929  0.00  0.00    +0.000 OA
ENDBRANCH  17  20
ENDBRANCH  15  17
ENDBRANCH  13  15
ENDBRANCH   1  13
BRANCH   1  21
ATOM     21  O   UNL     1       3.112   5.174  18.018  0.00  0.00    +0.000 OA
BRANCH  21  22
ATOM     22  C   UNL     1       2.404   4.458  18.936  0.00  0.00    +0.000 A 
ATOM     23  C   UNL     1       1.434   3.516  18.614  0.00  0.00    +0.000 A 
ATOM     24  C   UNL     1       0.814   2.804  19.647  0.00  0.00    +0.000 A 
ATOM     25  C   UNL     1       1.155   3.031  20.978  0.00  0.00    +0.000 A 
ATOM     26  C   UNL     1       2.121   3.983  21.295  0.00  0.00    +0.000 A 
ATOM     27  C   UNL     1       2.744   4.696  20.272  0.00  0.00    +0.000 A 
ENDBRANCH  21  22
ENDBRANCH   1  21
TORSDOF 11
ENDMDL
