MODEL 1
REMARK VINA RESULT:      -9.3      0.000      0.000
REMARK  Name = 
REMARK  4 active torsions:
REMARK  status: ('A' for Active; 'I' for Inactive)
REMARK    1  A    between atoms: C_2  and  O_3
REMARK    2  A    between atoms: C_2  and  C_4
REMARK    3  A    between atoms: C_4  and  C_5
REMARK    4  A    between atoms: C_8  and  C_9
REMARK                            x       y       z     vdW  Elec       q    Type
REMARK                         _______ _______ _______ _____ _____    ______ ____
ROOT
ATOM      1  C   UNL     1       2.907   4.570  18.764  0.00  0.00    +0.000 C 
ATOM      2  C   UNL     1       2.340   5.769  18.999  0.00  0.00    +0.000 C 
ATOM      3  C   UNL     1       2.929   6.776  18.135  0.00  0.00    +0.000 C 
ATOM      4  C   UNL     1       2.697   8.084  18.119  0.00  0.00    +0.000 C 
ATOM      5  C   UNL     1       3.905   6.091  17.282  0.00  0.00    +0.000 A 
ATOM      6  C   UNL     1       4.725   6.536  16.245  0.00  0.00    +0.000 A 
ATOM      7  C   UNL     1       5.574   5.609  15.639  0.00  0.00    +0.000 A 
ATOM      8  C   UNL     1       5.572   4.279  16.068  0.00  0.00    +0.000 A 
ATOM      9  F   UNL     1       6.401   3.407  15.479  0.00  0.00    +0.000 F 
ATOM     10  C   UNL     1       4.736   3.830  17.089  0.00  0.00    +0.000 A 
ATOM     11  C   UNL     1       3.901   4.751  17.694  0.00  0.00    +0.000 A 
ENDROOT
BRANCH   4  12
ATOM     12  C   UNL     1       1.711   8.783  18.960  0.00  0.00    +0.000 A 
ATOM     13  C   UNL     1       0.763   9.598  18.352  0.00  0.00    +0.000 A 
ATOM     14  C   UNL     1      -0.007  10.448  19.136  0.00  0.00    +0.000 A 
ATOM     15  C   UNL     1       0.078  10.377  20.534  0.00  0.00    +0.000 A 
ATOM     16  C   UNL     1      -0.620  11.264  21.350  0.00  0.00    +0.000 A 
ATOM     17  C   UNL     1      -1.004  10.852  22.610  0.00  0.00    +0.000 A 
ATOM     18  C   UNL     1      -0.354   9.750  23.124  0.00  0.00    +0.000 A 
ATOM     19  N   UNL     1       0.631   9.084  22.469  0.00  0.00    +0.000 NA
ATOM     20  C   UNL     1       0.814   9.364  21.161  0.00  0.00    +0.000 A 
ATOM     21  C   UNL     1       1.712   8.654  20.363  0.00  0.00    +0.000 A 
ENDBRANCH   4  12
BRANCH   1  22
ATOM     22  C   UNL     1       2.645   3.277  19.464  0.00  0.00    +0.000 C 
BRANCH  22  24
ATOM     23  O   UNL     1       0.535   2.383  18.676  0.00  0.00    +0.000 OA
ATOM     24  C   UNL     1       1.179   2.876  19.594  0.00  0.00    +0.000 C 
BRANCH  24  25
ATOM     25  O   UNL     1       0.649   3.009  20.830  0.00  0.00    +0.000 OA
ATOM     26  H   UNL     1      -0.301   3.235  20.839  0.00  0.00    +0.000 HD
ENDBRANCH  24  25
ENDBRANCH  22  24
ENDBRANCH   1  22
TORSDOF 4
ENDMDL
MODEL 2
REMARK VINA RESULT:      -9.1      0.917      1.131
REMARK  Name = 
REMARK  4 active torsions:
REMARK  status: ('A' for Active; 'I' for Inactive)
REMARK    1  A    between atoms: C_2  and  O_3
REMARK    2  A    between atoms: C_2  and  C_4
REMARK    3  A    between atoms: C_4  and  C_5
REMARK    4  A    between atoms: C_8  and  C_9
REMARK                            x       y       z     vdW  Elec       q    Type
REMARK                         _______ _______ _______ _____ _____    ______ ____
ROOT
ATOM      1  C   UNL     1       2.731   4.484  18.517  0.00  0.00    +0.000 C 
ATOM      2  C   UNL     1       2.218   5.694  18.812  0.00  0.00    +0.000 C 
ATOM      3  C   UNL     1       2.912   6.725  18.062  0.00  0.00    +0.000 C 
ATOM      4  C   UNL     1       2.754   8.043  18.135  0.00  0.00    +0.000 C 
ATOM      5  C   UNL     1       3.897   6.049  17.214  0.00  0.00    +0.000 A 
ATOM      6  C   UNL     1       4.801   6.519  16.262  0.00  0.00    +0.000 A 
ATOM      7  C   UNL     1       5.632   5.590  15.633  0.00  0.00    +0.000 A 
ATOM      8  C   UNL     1       5.531   4.234  15.958  0.00  0.00    +0.000 A 
ATOM      9  F   UNL     1       6.344   3.361  15.351  0.00  0.00    +0.000 F 
ATOM     10  C   UNL     1       4.612   3.762  16.894  0.00  0.00    +0.000 A 
ATOM     11  C   UNL     1       3.795   4.684  17.521  0.00  0.00    +0.000 A 
ENDROOT
BRANCH   4  12
ATOM     12  C   UNL     1       1.759   8.735  18.971  0.00  0.00    +0.000 A 
ATOM     13  C   UNL     1       0.810   9.546  18.359  0.00  0.00    +0.000 A 
ATOM     14  C   UNL     1       0.032  10.391  19.140  0.00  0.00    +0.000 A 
ATOM     15  C   UNL     1       0.110  10.319  20.538  0.00  0.00    +0.000 A 
ATOM     16  C   UNL     1      -0.598  11.200  21.351  0.00  0.00    +0.000 A 
ATOM     17  C   UNL     1      -0.985  10.784  22.609  0.00  0.00    +0.000 A 
ATOM     18  C   UNL     1      -0.333   9.686  23.125  0.00  0.00    +0.000 A 
ATOM     19  N   UNL     1       0.659   9.026  22.475  0.00  0.00    +0.000 NA
ATOM     20  C   UNL     1       0.848   9.309  21.168  0.00  0.00    +0.000 A 
ATOM     21  C   UNL     1       1.754   8.605  20.374  0.00  0.00    +0.000 A 
ENDBRANCH   4  12
BRANCH   1  22
ATOM     22  C   UNL     1       2.356   3.161  19.099  0.00  0.00    +0.000 C 
BRANCH  22  24
ATOM     23  O   UNL     1       2.601   2.734  21.472  0.00  0.00    +0.000 OA
ATOM     24  C   UNL     1       3.112   2.750  20.359  0.00  0.00    +0.000 C 
BRANCH  24  25
ATOM     25  O   UNL     1       4.373   2.305  20.160  0.00  0.00    +0.000 OA
ATOM     26  H   UNL     1       4.924   2.281  20.966  0.00  0.00    +0.000 HD
ENDBRANCH  24  25
ENDBRANCH  22  24
ENDBRANCH   1  22
TORSDOF 4
ENDMDL
MODEL 3
REMARK VINA RESULT:      -8.6      1.108      1.242
REMARK  Name = 
REMARK  4 active torsions:
REMARK  status: ('A' for Active; 'I' for Inactive)
REMARK    1  A    between atoms: C_2  and  O_3
REMARK    2  A    between atoms: C_2  and  C_4
REMARK    3  A    between atoms: C_4  and  C_5
REMARK    4  A    between atoms: C_8  and  C_9
REMARK                            x       y       z     vdW  Elec       q    Type
REMARK                         _______ _______ _______ _____ _____    ______ ____
ROOT
ATOM      1  C   UNL     1       2.815   5.432  19.552  0.00  0.00    +0.000 C 
ATOM      2  C   UNL     1       2.113   6.581  19.499  0.00  0.00    +0.000 C 
ATOM      3  C   UNL     1       2.616   7.424  18.430  0.00  0.00    +0.000 C 
ATOM      4  C   UNL     1       2.244   8.658  18.110  0.00  0.00    +0.000 C 
ATOM      5  C   UNL     1       3.689   6.677  17.765  0.00  0.00    +0.000 A 
ATOM      6  C   UNL     1       4.489   6.963  16.659  0.00  0.00    +0.000 A 
ATOM      7  C   UNL     1       5.454   6.024  16.290  0.00  0.00    +0.000 A 
ATOM      8  C   UNL     1       5.583   4.836  17.015  0.00  0.00    +0.000 A 
ATOM      9  F   UNL     1       6.521   3.954  16.650  0.00  0.00    +0.000 F 
ATOM     10  C   UNL     1       4.768   4.542  18.107  0.00  0.00    +0.000 A 
ATOM     11  C   UNL     1       3.818   5.476  18.476  0.00  0.00    +0.000 A 
ENDROOT
BRANCH   4  12
ATOM     12  C   UNL     1       1.160   9.414  18.759  0.00  0.00    +0.000 A 
ATOM     13  C   UNL     1       0.009   9.702  18.034  0.00  0.00    +0.000 A 
ATOM     14  C   UNL     1      -0.906  10.614  18.543  0.00  0.00    +0.000 A 
ATOM     15  C   UNL     1      -0.734  11.129  19.836  0.00  0.00    +0.000 A 
ATOM     16  C   UNL     1      -1.587  12.102  20.350  0.00  0.00    +0.000 A 
ATOM     17  C   UNL     1      -1.790  12.160  21.714  0.00  0.00    +0.000 A 
ATOM     18  C   UNL     1      -0.862  11.517  22.504  0.00  0.00    +0.000 A 
ATOM     19  N   UNL     1       0.222  10.865  22.013  0.00  0.00    +0.000 NA
ATOM     20  C   UNL     1       0.263  10.629  20.684  0.00  0.00    +0.000 A 
ATOM     21  C   UNL     1       1.266   9.862  20.091  0.00  0.00    +0.000 A 
ENDBRANCH   4  12
BRANCH   1  22
ATOM     22  C   UNL     1       2.673   4.313  20.530  0.00  0.00    +0.000 C 
BRANCH  22  24
ATOM     23  O   UNL     1       2.220   2.176  19.482  0.00  0.00    +0.000 OA
ATOM     24  C   UNL     1       1.790   3.150  20.087  0.00  0.00    +0.000 C 
BRANCH  24  25
ATOM     25  O   UNL     1       0.502   3.212  20.493  0.00  0.00    +0.000 OA
ATOM     26  H   UNL     1       0.034   2.356  20.478  0.00  0.00    +0.000 HD
ENDBRANCH  24  25
ENDBRANCH  22  24
ENDBRANCH   1  22
TORSDOF 4
ENDMDL
MODEL 4
REMARK VINA RESULT:      -8.6      1.551      2.308
REMARK  Name = 
REMARK  4 active torsions:
REMARK  status: ('A' for Active; 'I' for Inactive)
REMARK    1  A    between atoms: C_2  and  O_3
REMARK    2  A    between atoms: C_2  and  C_4
REMARK    3  A    between atoms: C_4  and  C_5
REMARK    4  A    between atoms: C_8  and  C_9
REMARK                            x       y       z     vdW  Elec       q    Type
REMARK                         _______ _______ _______ _____ _____    ______ ____
ROOT
ATOM      1  C   UNL     1       1.634   4.644  19.838  0.00  0.00    +0.000 C 
ATOM      2  C   UNL     1       1.331   5.896  20.234  0.00  0.00    +0.000 C 
ATOM      3  C   UNL     1       2.148   6.857  19.514  0.00  0.00    +0.000 C 
ATOM      4  C   UNL     1       2.203   8.174  19.676  0.00  0.00    +0.000 C 
ATOM      5  C   UNL     1       2.976   6.096  18.574  0.00  0.00    +0.000 A 
ATOM      6  C   UNL     1       3.902   6.485  17.606  0.00  0.00    +0.000 A 
ATOM      7  C   UNL     1       4.548   5.485  16.879  0.00  0.00    +0.000 A 
ATOM      8  C   UNL     1       4.247   4.142  17.123  0.00  0.00    +0.000 A 
ATOM      9  F   UNL     1       4.886   3.198  16.421  0.00  0.00    +0.000 F 
ATOM     10  C   UNL     1       3.306   3.754  18.075  0.00  0.00    +0.000 A 
ATOM     11  C   UNL     1       2.673   4.746  18.801  0.00  0.00    +0.000 A 
ENDROOT
BRANCH   4  12
ATOM     12  C   UNL     1       1.367   8.953  20.605  0.00  0.00    +0.000 A 
ATOM     13  C   UNL     1       1.536   8.779  21.974  0.00  0.00    +0.000 A 
ATOM     14  C   UNL     1       0.598   9.312  22.849  0.00  0.00    +0.000 A 
ATOM     15  C   UNL     1      -0.426  10.135  22.359  0.00  0.00    +0.000 A 
ATOM     16  C   UNL     1      -1.426  10.625  23.193  0.00  0.00    +0.000 A 
ATOM     17  C   UNL     1      -2.028  11.827  22.881  0.00  0.00    +0.000 A 
ATOM     18  C   UNL     1      -1.880  12.274  21.586  0.00  0.00    +0.000 A 
ATOM     19  N   UNL     1      -1.203  11.592  20.628  0.00  0.00    +0.000 NA
ATOM     20  C   UNL     1      -0.438  10.551  21.021  0.00  0.00    +0.000 A 
ATOM     21  C   UNL     1       0.394   9.860  20.140  0.00  0.00    +0.000 A 
ENDBRANCH   4  12
BRANCH   1  22
ATOM     22  C   UNL     1       1.080   3.358  20.356  0.00  0.00    +0.000 C 
BRANCH  22  24
ATOM     23  O   UNL     1       1.143   2.425  22.591  0.00  0.00    +0.000 OA
ATOM     24  C   UNL     1       1.760   2.793  21.599  0.00  0.00    +0.000 C 
BRANCH  24  25
ATOM     25  O   UNL     1       3.099   2.630  21.504  0.00  0.00    +0.000 OA
ATOM     26  H   UNL     1       3.615   3.154  22.146  0.00  0.00    +0.000 HD
ENDBRANCH  24  25
ENDBRANCH  22  24
ENDBRANCH   1  22
TORSDOF 4
ENDMDL
MODEL 5
REMARK VINA RESULT:      -8.5      1.966      2.445
REMARK  Name = 
REMARK  4 active torsions:
REMARK  status: ('A' for Active; 'I' for Inactive)
REMARK    1  A    between atoms: C_2  and  O_3
REMARK    2  A    between atoms: C_2  and  C_4
REMARK    3  A    between atoms: C_4  and  C_5
REMARK    4  A    between atoms: C_8  and  C_9
REMARK                            x       y       z     vdW  Elec       q    Type
REMARK                         _______ _______ _______ _____ _____    ______ ____
ROOT
ATOM      1  C   UNL     1       2.485   5.926  19.641  0.00  0.00    +0.000 C 
ATOM      2  C   UNL     1       1.873   7.103  19.401  0.00  0.00    +0.000 C 
ATOM      3  C   UNL     1       2.519   7.782  18.292  0.00  0.00    +0.000 C 
ATOM      4  C   UNL     1       2.262   8.992  17.807  0.00  0.00    +0.000 C 
ATOM      5  C   UNL     1       3.583   6.898  17.809  0.00  0.00    +0.000 A 
ATOM      6  C   UNL     1       4.486   7.002  16.752  0.00  0.00    +0.000 A 
ATOM      7  C   UNL     1       5.407   5.968  16.573  0.00  0.00    +0.000 A 
ATOM      8  C   UNL     1       5.393   4.867  17.433  0.00  0.00    +0.000 A 
ATOM      9  F   UNL     1       6.291   3.891  17.250  0.00  0.00    +0.000 F 
ATOM     10  C   UNL     1       4.475   4.753  18.476  0.00  0.00    +0.000 A 
ATOM     11  C   UNL     1       3.570   5.781  18.657  0.00  0.00    +0.000 A 
ENDROOT
BRANCH   4  12
ATOM     12  C   UNL     1       1.188   9.885  18.273  0.00  0.00    +0.000 A 
ATOM     13  C   UNL     1       1.504  10.932  19.130  0.00  0.00    +0.000 A 
ATOM     14  C   UNL     1       0.481  11.623  19.768  0.00  0.00    +0.000 A 
ATOM     15  C   UNL     1      -0.855  11.353  19.438  0.00  0.00    +0.000 A 
ATOM     16  C   UNL     1      -1.907  11.970  20.109  0.00  0.00    +0.000 A 
ATOM     17  C   UNL     1      -3.099  12.170  19.443  0.00  0.00    +0.000 A 
ATOM     18  C   UNL     1      -3.304  11.420  18.305  0.00  0.00    +0.000 A 
ATOM     19  N   UNL     1      -2.417  10.506  17.836  0.00  0.00    +0.000 NA
ATOM     20  C   UNL     1      -1.177  10.505  18.370  0.00  0.00    +0.000 A 
ATOM     21  C   UNL     1      -0.152   9.695  17.881  0.00  0.00    +0.000 A 
ENDBRANCH   4  12
BRANCH   1  22
ATOM     22  C   UNL     1       2.186   4.939  20.721  0.00  0.00    +0.000 C 
BRANCH  22  24
ATOM     23  O   UNL     1       0.976   3.528  19.167  0.00  0.00    +0.000 OA
ATOM     24  C   UNL     1       1.285   3.773  20.326  0.00  0.00    +0.000 C 
BRANCH  24  25
ATOM     25  O   UNL     1       0.920   2.954  21.338  0.00  0.00    +0.000 OA
ATOM     26  H   UNL     1       0.377   3.383  22.027  0.00  0.00    +0.000 HD
ENDBRANCH  24  25
ENDBRANCH  22  24
ENDBRANCH   1  22
TORSDOF 4
ENDMDL
MODEL 6
REMARK VINA RESULT:      -8.4      1.222      1.745
REMARK  Name = 
REMARK  4 active torsions:
REMARK  status: ('A' for Active; 'I' for Inactive)
REMARK    1  A    between atoms: C_2  and  O_3
REMARK    2  A    between atoms: C_2  and  C_4
REMARK    3  A    between atoms: C_4  and  C_5
REMARK    4  A    between atoms: C_8  and  C_9
REMARK                            x       y       z     vdW  Elec       q    Type
REMARK                         _______ _______ _______ _____ _____    ______ ____
ROOT
ATOM      1  C   UNL     1       2.909   4.583  18.567  0.00  0.00    +0.000 C 
ATOM      2  C   UNL     1       2.422   5.820  18.789  0.00  0.00    +0.000 C 
ATOM      3  C   UNL     1       3.095   6.780  17.932  0.00  0.00    +0.000 C 
ATOM      4  C   UNL     1       2.954   8.102  17.909  0.00  0.00    +0.000 C 
ATOM      5  C   UNL     1       4.035   6.027  17.098  0.00  0.00    +0.000 A 
ATOM      6  C   UNL     1       4.902   6.409  16.075  0.00  0.00    +0.000 A 
ATOM      7  C   UNL     1       5.695   5.423  15.486  0.00  0.00    +0.000 A 
ATOM      8  C   UNL     1       5.593   4.098  15.919  0.00  0.00    +0.000 A 
ATOM      9  F   UNL     1       6.371   3.170  15.347  0.00  0.00    +0.000 F 
ATOM     10  C   UNL     1       4.711   3.712  16.926  0.00  0.00    +0.000 A 
ATOM     11  C   UNL     1       3.932   4.691  17.514  0.00  0.00    +0.000 A 
ENDROOT
BRANCH   4  12
ATOM     12  C   UNL     1       2.004   8.870  18.730  0.00  0.00    +0.000 A 
ATOM     13  C   UNL     1       1.752   8.460  20.034  0.00  0.00    +0.000 A 
ATOM     14  C   UNL     1       0.687   9.018  20.730  0.00  0.00    +0.000 A 
ATOM     15  C   UNL     1      -0.033  10.081  20.169  0.00  0.00    +0.000 A 
ATOM     16  C   UNL     1      -1.152  10.615  20.802  0.00  0.00    +0.000 A 
ATOM     17  C   UNL     1      -1.470  11.942  20.592  0.00  0.00    +0.000 A 
ATOM     18  C   UNL     1      -0.901  12.547  19.492  0.00  0.00    +0.000 A 
ATOM     19  N   UNL     1      -0.080  11.906  18.622  0.00  0.00    +0.000 NA
ATOM     20  C   UNL     1       0.392  10.693  18.982  0.00  0.00    +0.000 A 
ATOM     21  C   UNL     1       1.336  10.002  18.223  0.00  0.00    +0.000 A 
ENDBRANCH   4  12
BRANCH   1  22
ATOM     22  C   UNL     1       2.547   3.314  19.265  0.00  0.00    +0.000 C 
BRANCH  22  24
ATOM     23  O   UNL     1       0.529   2.330  18.353  0.00  0.00    +0.000 OA
ATOM     24  C   UNL     1       1.064   2.953  19.262  0.00  0.00    +0.000 C 
BRANCH  24  25
ATOM     25  O   UNL     1       0.385   3.282  20.383  0.00  0.00    +0.000 OA
ATOM     26  H   UNL     1       0.410   2.601  21.083  0.00  0.00    +0.000 HD
ENDBRANCH  24  25
ENDBRANCH  22  24
ENDBRANCH   1  22
TORSDOF 4
ENDMDL
MODEL 7
REMARK VINA RESULT:      -8.3      4.436      8.311
REMARK  Name = 
REMARK  4 active torsions:
REMARK  status: ('A' for Active; 'I' for Inactive)
REMARK    1  A    between atoms: C_2  and  O_3
REMARK    2  A    between atoms: C_2  and  C_4
REMARK    3  A    between atoms: C_4  and  C_5
REMARK    4  A    between atoms: C_8  and  C_9
REMARK                            x       y       z     vdW  Elec       q    Type
REMARK                         _______ _______ _______ _____ _____    ______ ____
ROOT
ATOM      1  C   UNL     1       0.842  10.384  19.192  0.00  0.00    +0.000 C 
ATOM      2  C   UNL     1       1.376   9.186  18.882  0.00  0.00    +0.000 C 
ATOM      3  C   UNL     1       1.322   8.303  20.033  0.00  0.00    +0.000 C 
ATOM      4  C   UNL     1       1.815   7.075  20.152  0.00  0.00    +0.000 C 
ATOM      5  C   UNL     1       0.651   9.041  21.108  0.00  0.00    +0.000 A 
ATOM      6  C   UNL     1       0.282   8.687  22.405  0.00  0.00    +0.000 A 
ATOM      7  C   UNL     1      -0.337   9.655  23.197  0.00  0.00    +0.000 A 
ATOM      8  C   UNL     1      -0.582  10.928  22.675  0.00  0.00    +0.000 A 
ATOM      9  F   UNL     1      -1.169  11.845  23.455  0.00  0.00    +0.000 F 
ATOM     10  C   UNL     1      -0.233  11.275  21.371  0.00  0.00    +0.000 A 
ATOM     11  C   UNL     1       0.389  10.318  20.591  0.00  0.00    +0.000 A 
ENDROOT
BRANCH   4  12
ATOM     12  C   UNL     1       2.477   6.317  19.078  0.00  0.00    +0.000 A 
ATOM     13  C   UNL     1       2.039   5.030  18.790  0.00  0.00    +0.000 A 
ATOM     14  C   UNL     1       2.803   4.219  17.960  0.00  0.00    +0.000 A 
ATOM     15  C   UNL     1       3.928   4.748  17.312  0.00  0.00    +0.000 A 
ATOM     16  C   UNL     1       4.761   3.947  16.534  0.00  0.00    +0.000 A 
ATOM     17  C   UNL     1       5.449   4.521  15.484  0.00  0.00    +0.000 A 
ATOM     18  C   UNL     1       5.571   5.893  15.502  0.00  0.00    +0.000 A 
ATOM     19  N   UNL     1       5.074   6.680  16.490  0.00  0.00    +0.000 NA
ATOM     20  C   UNL     1       4.215   6.118  17.367  0.00  0.00    +0.000 A 
ATOM     21  C   UNL     1       3.550   6.860  18.343  0.00  0.00    +0.000 A 
ENDBRANCH   4  12
BRANCH   1  22
ATOM     22  C   UNL     1       0.747  11.598  18.330  0.00  0.00    +0.000 C 
BRANCH  22  24
ATOM     23  O   UNL     1       2.173  13.208  19.446  0.00  0.00    +0.000 OA
ATOM     24  C   UNL     1       1.913  12.578  18.428  0.00  0.00    +0.000 C 
BRANCH  24  25
ATOM     25  O   UNL     1       2.712  12.640  17.340  0.00  0.00    +0.000 OA
ATOM     26  H   UNL     1       2.792  13.531  16.949  0.00  0.00    +0.000 HD
ENDBRANCH  24  25
ENDBRANCH  22  24
ENDBRANCH   1  22
TORSDOF 4
ENDMDL
MODEL 8
REMARK VINA RESULT:      -8.2      4.205      8.113
REMARK  Name = 
REMARK  4 active torsions:
REMARK  status: ('A' for Active; 'I' for Inactive)
REMARK    1  A    between atoms: C_2  and  O_3
REMARK    2  A    between atoms: C_2  and  C_4
REMARK    3  A    between atoms: C_4  and  C_5
REMARK    4  A    between atoms: C_8  and  C_9
REMARK                            x       y       z     vdW  Elec       q    Type
REMARK                         _______ _______ _______ _____ _____    ______ ____
ROOT
ATOM      1  C   UNL     1       0.156  10.068  18.989  0.00  0.00    +0.000 C 
ATOM      2  C   UNL     1       0.884   8.968  18.713  0.00  0.00    +0.000 C 
ATOM      3  C   UNL     1       1.268   8.303  19.945  0.00  0.00    +0.000 C 
ATOM      4  C   UNL     1       2.050   7.239  20.096  0.00  0.00    +0.000 C 
ATOM      5  C   UNL     1       0.671   9.063  21.046  0.00  0.00    +0.000 A 
ATOM      6  C   UNL     1       0.661   8.869  22.427  0.00  0.00    +0.000 A 
ATOM      7  C   UNL     1       0.002   9.813  23.216  0.00  0.00    +0.000 A 
ATOM      8  C   UNL     1      -0.634  10.902  22.613  0.00  0.00    +0.000 A 
ATOM      9  F   UNL     1      -1.252  11.801  23.389  0.00  0.00    +0.000 F 
ATOM     10  C   UNL     1      -0.642  11.084  21.231  0.00  0.00    +0.000 A 
ATOM     11  C   UNL     1       0.018  10.152  20.452  0.00  0.00    +0.000 A 
ENDROOT
BRANCH   4  12
ATOM     12  C   UNL     1       2.644   6.458  18.999  0.00  0.00    +0.000 A 
ATOM     13  C   UNL     1       2.133   5.197  18.713  0.00  0.00    +0.000 A 
ATOM     14  C   UNL     1       2.833   4.356  17.857  0.00  0.00    +0.000 A 
ATOM     15  C   UNL     1       3.967   4.832  17.184  0.00  0.00    +0.000 A 
ATOM     16  C   UNL     1       4.737   3.997  16.378  0.00  0.00    +0.000 A 
ATOM     17  C   UNL     1       5.426   4.544  15.315  0.00  0.00    +0.000 A 
ATOM     18  C   UNL     1       5.619   5.908  15.340  0.00  0.00    +0.000 A 
ATOM     19  N   UNL     1       5.188   6.711  16.346  0.00  0.00    +0.000 NA
ATOM     20  C   UNL     1       4.324   6.185  17.241  0.00  0.00    +0.000 A 
ATOM     21  C   UNL     1       3.724   6.952  18.241  0.00  0.00    +0.000 A 
ENDBRANCH   4  12
BRANCH   1  22
ATOM     22  C   UNL     1      -0.391  11.072  18.029  0.00  0.00    +0.000 C 
BRANCH  22  24
ATOM     23  O   UNL     1      -2.437   9.822  17.677  0.00  0.00    +0.000 OA
ATOM     24  C   UNL     1      -1.860  10.902  17.654  0.00  0.00    +0.000 C 
BRANCH  24  25
ATOM     25  O   UNL     1      -2.525  12.047  17.381  0.00  0.00    +0.000 OA
ATOM     26  H   UNL     1      -2.347  12.415  16.494  0.00  0.00    +0.000 HD
ENDBRANCH  24  25
ENDBRANCH  22  24
ENDBRANCH   1  22
TORSDOF 4
ENDMDL
MODEL 9
REMARK VINA RESULT:      -8.2      1.154      1.781
REMARK  Name = 
REMARK  4 active torsions:
REMARK  status: ('A' for Active; 'I' for Inactive)
REMARK    1  A    between atoms: C_2  and  O_3
REMARK    2  A    between atoms: C_2  and  C_4
REMARK    3  A    between atoms: C_4  and  C_5
REMARK    4  A    between atoms: C_8  and  C_9
REMARK                            x       y       z     vdW  Elec       q    Type
REMARK                         _______ _______ _______ _____ _____    ______ ____
ROOT
ATOM      1  C   UNL     1       3.028   4.408  18.979  0.00  0.00    +0.000 C 
ATOM      2  C   UNL     1       2.513   5.629  19.223  0.00  0.00    +0.000 C 
ATOM      3  C   UNL     1       3.047   6.592  18.276  0.00  0.00    +0.000 C 
ATOM      4  C   UNL     1       2.846   7.905  18.237  0.00  0.00    +0.000 C 
ATOM      5  C   UNL     1       3.924   5.854  17.363  0.00  0.00    +0.000 A 
ATOM      6  C   UNL     1       4.658   6.244  16.242  0.00  0.00    +0.000 A 
ATOM      7  C   UNL     1       5.426   5.275  15.594  0.00  0.00    +0.000 A 
ATOM      8  C   UNL     1       5.430   3.960  16.066  0.00  0.00    +0.000 A 
ATOM      9  F   UNL     1       6.181   3.048  15.435  0.00  0.00    +0.000 F 
ATOM     10  C   UNL     1       4.679   3.566  17.173  0.00  0.00    +0.000 A 
ATOM     11  C   UNL     1       3.925   4.528  17.818  0.00  0.00    +0.000 A 
ENDROOT
BRANCH   4  12
ATOM     12  C   UNL     1       1.957   8.656  19.139  0.00  0.00    +0.000 A 
ATOM     13  C   UNL     1       1.778   8.205  20.441  0.00  0.00    +0.000 A 
ATOM     14  C   UNL     1       0.764   8.752  21.218  0.00  0.00    +0.000 A 
ATOM     15  C   UNL     1       0.026   9.842  20.736  0.00  0.00    +0.000 A 
ATOM     16  C   UNL     1      -1.046  10.367  21.452  0.00  0.00    +0.000 A 
ATOM     17  C   UNL     1      -1.358  11.703  21.305  0.00  0.00    +0.000 A 
ATOM     18  C   UNL     1      -0.848  12.338  20.193  0.00  0.00    +0.000 A 
ATOM     19  N   UNL     1      -0.089  11.718  19.255  0.00  0.00    +0.000 NA
ATOM     20  C   UNL     1       0.388  10.488  19.546  0.00  0.00    +0.000 A 
ATOM     21  C   UNL     1       1.276   9.813  18.709  0.00  0.00    +0.000 A 
ENDBRANCH   4  12
BRANCH   1  22
ATOM     22  C   UNL     1       2.799   3.145  19.742  0.00  0.00    +0.000 C 
BRANCH  22  24
ATOM     23  O   UNL     1       2.135   3.370  22.061  0.00  0.00    +0.000 OA
ATOM     24  C   UNL     1       1.799   3.234  20.891  0.00  0.00    +0.000 C 
BRANCH  24  25
ATOM     25  O   UNL     1       0.498   3.252  20.528  0.00  0.00    +0.000 OA
ATOM     26  H   UNL     1       0.328   2.928  19.622  0.00  0.00    +0.000 HD
ENDBRANCH  24  25
ENDBRANCH  22  24
ENDBRANCH   1  22
TORSDOF 4
ENDMDL
