MODEL 1
REMARK VINA RESULT:      -8.6      0.000      0.000
REMARK  Name = 
REMARK  8 active torsions:
REMARK  status: ('A' for Active; 'I' for Inactive)
REMARK    1  A    between atoms: C_1  and  C_2
REMARK    2  A    between atoms: C_2  and  N_3
REMARK    3  A    between atoms: N_6  and  C_7
REMARK    4  A    between atoms: C_7  and  C_8
REMARK    5  A    between atoms: C_15  and  C_16
REMARK    6  A    between atoms: N_19  and  C_20
REMARK    7  A    between atoms: C_20  and  C_21
REMARK    8  A    between atoms: C_25  and  C_26
REMARK                            x       y       z     vdW  Elec       q    Type
REMARK                         _______ _______ _______ _____ _____    ______ ____
ROOT
ATOM      1  N   UNL     1       0.233  10.425  19.483  0.00  0.00    +0.000 N 
ATOM      2  C   UNL     1      -0.114  11.547  20.257  0.00  0.00    +0.000 A 
ATOM      3  O   UNL     1      -0.453  12.604  19.724  0.00  0.00    +0.000 OA
ATOM      4  N   UNL     1      -0.097  11.393  21.669  0.00  0.00    +0.000 N 
ATOM      5  C   UNL     1       0.220  10.203  22.328  0.00  0.00    +0.000 A 
ATOM      6  O   UNL     1       0.062   9.998  23.529  0.00  0.00    +0.000 OA
ATOM      7  C   UNL     1       0.710   9.200  21.459  0.00  0.00    +0.000 A 
ATOM      8  N   UNL     1       1.181   7.949  21.729  0.00  0.00    +0.000 N 
ATOM      9  C   UNL     1       1.532   7.382  20.527  0.00  0.00    +0.000 A 
ATOM     10  N   UNL     1       1.236   8.189  19.520  0.00  0.00    +0.000 NA
ATOM     11  C   UNL     1       0.727   9.306  20.111  0.00  0.00    +0.000 A 
ATOM     12  H   UNL     1       1.284   7.534  22.647  0.00  0.00    +0.000 HD
ENDROOT
BRANCH   9  13
ATOM     13  C   UNL     1       2.164   6.055  20.384  0.00  0.00    +0.000 A 
ATOM     14  C   UNL     1       1.762   4.812  20.901  0.00  0.00    +0.000 A 
ATOM     15  N   UNL     1       2.612   3.832  20.582  0.00  0.00    +0.000 NA
ATOM     16  N   UNL     1       3.556   4.458  19.841  0.00  0.00    +0.000 N 
ATOM     17  C   UNL     1       3.329   5.798  19.702  0.00  0.00    +0.000 A 
BRANCH  16  18
ATOM     18  C   UNL     1       4.734   3.728  19.395  0.00  0.00    +0.000 C 
BRANCH  18  19
ATOM     19  C   UNL     1       5.593   4.526  18.445  0.00  0.00    +0.000 A 
ATOM     20  C   UNL     1       6.560   5.412  18.939  0.00  0.00    +0.000 A 
ATOM     21  C   UNL     1       7.429   6.071  18.069  0.00  0.00    +0.000 A 
ATOM     22  C   UNL     1       7.351   5.844  16.696  0.00  0.00    +0.000 A 
ATOM     23  C   UNL     1       6.390   4.967  16.174  0.00  0.00    +0.000 A 
ATOM     24  C   UNL     1       5.502   4.329  17.056  0.00  0.00    +0.000 A 
BRANCH  23  25
ATOM     25  C   UNL     1       6.334   4.667  14.695  0.00  0.00    +0.000 C 
ATOM     26  F   UNL     1       7.383   5.185  13.997  0.00  0.00    +0.000 F 
ATOM     27  F   UNL     1       6.349   3.328  14.439  0.00  0.00    +0.000 F 
ATOM     28  F   UNL     1       5.212   5.151  14.096  0.00  0.00    +0.000 F 
ENDBRANCH  23  25
ENDBRANCH  18  19
ENDBRANCH  16  18
ENDBRANCH   9  13
BRANCH   1  30
ATOM     29  C   UNL     1      -1.358  10.073  17.617  0.00  0.00    +0.000 C 
ATOM     30  C   UNL     1       0.054  10.436  18.032  0.00  0.00    +0.000 C 
ENDBRANCH   1  30
BRANCH   4  31
ATOM     31  C   UNL     1      -0.720  12.436  22.476  0.00  0.00    +0.000 C 
BRANCH  31  32
ATOM     32  C   UNL     1      -2.225  12.503  22.508  0.00  0.00    +0.000 C 
ATOM     33  C   UNL     1      -3.090  12.111  23.686  0.00  0.00    +0.000 C 
ATOM     34  C   UNL     1      -3.027  13.547  23.242  0.00  0.00    +0.000 C 
ENDBRANCH  31  32
ENDBRANCH   4  31
TORSDOF 7
ENDMDL
MODEL 2
REMARK VINA RESULT:      -8.5      4.171      9.575
REMARK  Name = 
REMARK  8 active torsions:
REMARK  status: ('A' for Active; 'I' for Inactive)
REMARK    1  A    between atoms: C_1  and  C_2
REMARK    2  A    between atoms: C_2  and  N_3
REMARK    3  A    between atoms: N_6  and  C_7
REMARK    4  A    between atoms: C_7  and  C_8
REMARK    5  A    between atoms: C_15  and  C_16
REMARK    6  A    between atoms: N_19  and  C_20
REMARK    7  A    between atoms: C_20  and  C_21
REMARK    8  A    between atoms: C_25  and  C_26
REMARK                            x       y       z     vdW  Elec       q    Type
REMARK                         _______ _______ _______ _____ _____    ______ ____
ROOT
ATOM      1  N   UNL     1       2.379   4.337  19.596  0.00  0.00    +0.000 N 
ATOM      2  C   UNL     1       3.300   3.754  18.707  0.00  0.00    +0.000 A 
ATOM      3  O   UNL     1       3.502   2.539  18.710  0.00  0.00    +0.000 OA
ATOM      4  N   UNL     1       3.950   4.618  17.785  0.00  0.00    +0.000 N 
ATOM      5  C   UNL     1       3.717   5.992  17.693  0.00  0.00    +0.000 A 
ATOM      6  O   UNL     1       4.125   6.717  16.789  0.00  0.00    +0.000 OA
ATOM      7  C   UNL     1       2.904   6.488  18.738  0.00  0.00    +0.000 A 
ATOM      8  N   UNL     1       2.517   7.763  19.028  0.00  0.00    +0.000 N 
ATOM      9  C   UNL     1       1.728   7.699  20.152  0.00  0.00    +0.000 A 
ATOM     10  N   UNL     1       1.546   6.444  20.532  0.00  0.00    +0.000 NA
ATOM     11  C   UNL     1       2.276   5.707  19.648  0.00  0.00    +0.000 A 
ATOM     12  H   UNL     1       2.791   8.599  18.527  0.00  0.00    +0.000 HD
ENDROOT
BRANCH   9  13
ATOM     13  C   UNL     1       1.168   8.878  20.845  0.00  0.00    +0.000 A 
ATOM     14  C   UNL     1       0.852   9.051  22.203  0.00  0.00    +0.000 A 
ATOM     15  N   UNL     1       0.331  10.255  22.453  0.00  0.00    +0.000 NA
ATOM     16  N   UNL     1       0.332  10.859  21.241  0.00  0.00    +0.000 N 
ATOM     17  C   UNL     1       0.821  10.064  20.244  0.00  0.00    +0.000 A 
BRANCH  16  18
ATOM     18  C   UNL     1      -0.276  12.172  21.082  0.00  0.00    +0.000 C 
BRANCH  18  19
ATOM     19  C   UNL     1      -1.649  12.112  20.458  0.00  0.00    +0.000 A 
ATOM     20  C   UNL     1      -2.739  12.731  21.085  0.00  0.00    +0.000 A 
ATOM     21  C   UNL     1      -3.987  12.771  20.461  0.00  0.00    +0.000 A 
ATOM     22  C   UNL     1      -4.157  12.205  19.199  0.00  0.00    +0.000 A 
ATOM     23  C   UNL     1      -3.085  11.574  18.552  0.00  0.00    +0.000 A 
ATOM     24  C   UNL     1      -1.840  11.516  19.199  0.00  0.00    +0.000 A 
BRANCH  23  25
ATOM     25  C   UNL     1      -3.242  11.009  17.160  0.00  0.00    +0.000 C 
ATOM     26  F   UNL     1      -2.319  11.483  16.276  0.00  0.00    +0.000 F 
ATOM     27  F   UNL     1      -3.111   9.653  17.136  0.00  0.00    +0.000 F 
ATOM     28  F   UNL     1      -4.457  11.279  16.610  0.00  0.00    +0.000 F 
ENDBRANCH  23  25
ENDBRANCH  18  19
ENDBRANCH  16  18
ENDBRANCH   9  13
BRANCH   1  30
ATOM     29  C   UNL     1       2.176   3.163  21.767  0.00  0.00    +0.000 C 
ATOM     30  C   UNL     1       1.527   3.503  20.440  0.00  0.00    +0.000 C 
ENDBRANCH   1  30
BRANCH   4  31
ATOM     31  C   UNL     1       4.681   4.007  16.679  0.00  0.00    +0.000 C 
BRANCH  31  32
ATOM     32  C   UNL     1       6.184   3.948  16.771  0.00  0.00    +0.000 C 
ATOM     33  C   UNL     1       7.133   4.971  16.185  0.00  0.00    +0.000 C 
ATOM     34  C   UNL     1       7.028   4.807  17.677  0.00  0.00    +0.000 C 
ENDBRANCH  31  32
ENDBRANCH   4  31
TORSDOF 7
ENDMDL
MODEL 3
REMARK VINA RESULT:      -8.4      5.619     10.776
REMARK  Name = 
REMARK  8 active torsions:
REMARK  status: ('A' for Active; 'I' for Inactive)
REMARK    1  A    between atoms: C_1  and  C_2
REMARK    2  A    between atoms: C_2  and  N_3
REMARK    3  A    between atoms: N_6  and  C_7
REMARK    4  A    between atoms: C_7  and  C_8
REMARK    5  A    between atoms: C_15  and  C_16
REMARK    6  A    between atoms: N_19  and  C_20
REMARK    7  A    between atoms: C_20  and  C_21
REMARK    8  A    between atoms: C_25  and  C_26
REMARK                            x       y       z     vdW  Elec       q    Type
REMARK                         _______ _______ _______ _____ _____    ______ ____
ROOT
ATOM      1  N   UNL     1       2.946   4.592  20.098  0.00  0.00    +0.000 N 
ATOM      2  C   UNL     1       3.950   4.105  19.242  0.00  0.00    +0.000 A 
ATOM      3  O   UNL     1       4.410   2.971  19.386  0.00  0.00    +0.000 OA
ATOM      4  N   UNL     1       4.375   4.956  18.187  0.00  0.00    +0.000 N 
ATOM      5  C   UNL     1       3.848   6.225  17.938  0.00  0.00    +0.000 A 
ATOM      6  O   UNL     1       4.067   6.894  16.931  0.00  0.00    +0.000 OA
ATOM      7  C   UNL     1       2.971   6.672  18.954  0.00  0.00    +0.000 A 
ATOM      8  N   UNL     1       2.324   7.863  19.103  0.00  0.00    +0.000 N 
ATOM      9  C   UNL     1       1.595   7.783  20.266  0.00  0.00    +0.000 A 
ATOM     10  N   UNL     1       1.699   6.580  20.807  0.00  0.00    +0.000 NA
ATOM     11  C   UNL     1       2.550   5.904  19.985  0.00  0.00    +0.000 A 
ATOM     12  H   UNL     1       2.399   8.665  18.489  0.00  0.00    +0.000 HD
ENDROOT
BRANCH   9  13
ATOM     13  C   UNL     1       0.810   8.897  20.835  0.00  0.00    +0.000 A 
ATOM     14  C   UNL     1       0.472   9.162  22.173  0.00  0.00    +0.000 A 
ATOM     15  N   UNL     1      -0.282  10.257  22.298  0.00  0.00    +0.000 NA
ATOM     16  N   UNL     1      -0.411  10.702  21.026  0.00  0.00    +0.000 N 
ATOM     17  C   UNL     1       0.225   9.910  20.112  0.00  0.00    +0.000 A 
BRANCH  16  18
ATOM     18  C   UNL     1      -1.274  11.837  20.735  0.00  0.00    +0.000 C 
BRANCH  18  19
ATOM     19  C   UNL     1      -1.748  12.549  21.978  0.00  0.00    +0.000 A 
ATOM     20  C   UNL     1      -0.903  13.449  22.643  0.00  0.00    +0.000 A 
ATOM     21  C   UNL     1      -1.372  14.190  23.729  0.00  0.00    +0.000 A 
ATOM     22  C   UNL     1      -2.691  14.049  24.156  0.00  0.00    +0.000 A 
ATOM     23  C   UNL     1      -3.555  13.152  23.513  0.00  0.00    +0.000 A 
ATOM     24  C   UNL     1      -3.067  12.392  22.437  0.00  0.00    +0.000 A 
BRANCH  23  25
ATOM     25  C   UNL     1      -5.002  13.035  23.927  0.00  0.00    +0.000 C 
ATOM     26  F   UNL     1      -5.192  12.232  25.012  0.00  0.00    +0.000 F 
ATOM     27  F   UNL     1      -5.542  14.240  24.265  0.00  0.00    +0.000 F 
ATOM     28  F   UNL     1      -5.798  12.529  22.946  0.00  0.00    +0.000 F 
ENDBRANCH  23  25
ENDBRANCH  18  19
ENDBRANCH  16  18
ENDBRANCH   9  13
BRANCH   1  30
ATOM     29  C   UNL     1       1.085   3.017  20.537  0.00  0.00    +0.000 C 
ATOM     30  C   UNL     1       2.315   3.715  21.082  0.00  0.00    +0.000 C 
ENDBRANCH   1  30
BRANCH   4  31
ATOM     31  C   UNL     1       5.194   4.374  17.130  0.00  0.00    +0.000 C 
BRANCH  31  32
ATOM     32  C   UNL     1       6.684   4.597  17.183  0.00  0.00    +0.000 C 
ATOM     33  C   UNL     1       7.375   5.919  16.929  0.00  0.00    +0.000 C 
ATOM     34  C   UNL     1       7.411   5.300  18.300  0.00  0.00    +0.000 C 
ENDBRANCH  31  32
ENDBRANCH   4  31
TORSDOF 7
ENDMDL
MODEL 4
REMARK VINA RESULT:      -8.3      4.287      9.677
REMARK  Name = 
REMARK  8 active torsions:
REMARK  status: ('A' for Active; 'I' for Inactive)
REMARK    1  A    between atoms: C_1  and  C_2
REMARK    2  A    between atoms: C_2  and  N_3
REMARK    3  A    between atoms: N_6  and  C_7
REMARK    4  A    between atoms: C_7  and  C_8
REMARK    5  A    between atoms: C_15  and  C_16
REMARK    6  A    between atoms: N_19  and  C_20
REMARK    7  A    between atoms: C_20  and  C_21
REMARK    8  A    between atoms: C_25  and  C_26
REMARK                            x       y       z     vdW  Elec       q    Type
REMARK                         _______ _______ _______ _____ _____    ______ ____
ROOT
ATOM      1  N   UNL     1       3.004   4.249  19.210  0.00  0.00    +0.000 N 
ATOM      2  C   UNL     1       4.037   3.705  18.425  0.00  0.00    +0.000 A 
ATOM      3  O   UNL     1       4.329   2.510  18.502  0.00  0.00    +0.000 OA
ATOM      4  N   UNL     1       4.694   4.578  17.518  0.00  0.00    +0.000 N 
ATOM      5  C   UNL     1       4.366   5.924  17.343  0.00  0.00    +0.000 A 
ATOM      6  O   UNL     1       4.791   6.642  16.441  0.00  0.00    +0.000 OA
ATOM      7  C   UNL     1       3.434   6.398  18.295  0.00  0.00    +0.000 A 
ATOM      8  N   UNL     1       2.929   7.649  18.493  0.00  0.00    +0.000 N 
ATOM      9  C   UNL     1       2.057   7.569  19.553  0.00  0.00    +0.000 A 
ATOM     10  N   UNL     1       1.940   6.320  19.976  0.00  0.00    +0.000 NA
ATOM     11  C   UNL     1       2.794   5.608  19.188  0.00  0.00    +0.000 A 
ATOM     12  H   UNL     1       3.180   8.483  17.976  0.00  0.00    +0.000 HD
ENDROOT
BRANCH   9  13
ATOM     13  C   UNL     1       1.354   8.727  20.143  0.00  0.00    +0.000 A 
ATOM     14  C   UNL     1       0.825   8.890  21.434  0.00  0.00    +0.000 A 
ATOM     15  N   UNL     1       0.230  10.075  21.592  0.00  0.00    +0.000 NA
ATOM     16  N   UNL     1       0.396  10.677  20.391  0.00  0.00    +0.000 N 
ATOM     17  C   UNL     1       1.063   9.899  19.487  0.00  0.00    +0.000 A 
BRANCH  16  18
ATOM     18  C   UNL     1      -0.225  11.967  20.130  0.00  0.00    +0.000 C 
BRANCH  18  19
ATOM     19  C   UNL     1      -1.623  11.843  19.573  0.00  0.00    +0.000 A 
ATOM     20  C   UNL     1      -2.707  12.424  20.246  0.00  0.00    +0.000 A 
ATOM     21  C   UNL     1      -3.983  12.406  19.682  0.00  0.00    +0.000 A 
ATOM     22  C   UNL     1      -4.190  11.818  18.436  0.00  0.00    +0.000 A 
ATOM     23  C   UNL     1      -3.125  11.225  17.744  0.00  0.00    +0.000 A 
ATOM     24  C   UNL     1      -1.849  11.225  18.331  0.00  0.00    +0.000 A 
BRANCH  23  25
ATOM     25  C   UNL     1      -3.324  10.637  16.367  0.00  0.00    +0.000 C 
ATOM     26  F   UNL     1      -4.580  10.826  15.874  0.00  0.00    +0.000 F 
ATOM     27  F   UNL     1      -2.482  11.185  15.446  0.00  0.00    +0.000 F 
ATOM     28  F   UNL     1      -3.105   9.295  16.324  0.00  0.00    +0.000 F 
ENDBRANCH  23  25
ENDBRANCH  18  19
ENDBRANCH  16  18
ENDBRANCH   9  13
BRANCH   1  30
ATOM     29  C   UNL     1       0.939   2.883  19.262  0.00  0.00    +0.000 C 
ATOM     30  C   UNL     1       2.151   3.385  20.022  0.00  0.00    +0.000 C 
ENDBRANCH   1  30
BRANCH   4  31
ATOM     31  C   UNL     1       5.558   3.982  16.504  0.00  0.00    +0.000 C 
BRANCH  31  32
ATOM     32  C   UNL     1       5.554   4.590  15.124  0.00  0.00    +0.000 C 
ATOM     33  C   UNL     1       6.787   4.866  14.292  0.00  0.00    +0.000 C 
ATOM     34  C   UNL     1       5.793   3.828  13.846  0.00  0.00    +0.000 C 
ENDBRANCH  31  32
ENDBRANCH   4  31
TORSDOF 7
ENDMDL
MODEL 5
REMARK VINA RESULT:      -8.3      4.568      9.863
REMARK  Name = 
REMARK  8 active torsions:
REMARK  status: ('A' for Active; 'I' for Inactive)
REMARK    1  A    between atoms: C_1  and  C_2
REMARK    2  A    between atoms: C_2  and  N_3
REMARK    3  A    between atoms: N_6  and  C_7
REMARK    4  A    between atoms: C_7  and  C_8
REMARK    5  A    between atoms: C_15  and  C_16
REMARK    6  A    between atoms: N_19  and  C_20
REMARK    7  A    between atoms: C_20  and  C_21
REMARK    8  A    between atoms: C_25  and  C_26
REMARK                            x       y       z     vdW  Elec       q    Type
REMARK                         _______ _______ _______ _____ _____    ______ ____
ROOT
ATOM      1  N   UNL     1       3.290   4.296  17.513  0.00  0.00    +0.000 N 
ATOM      2  C   UNL     1       4.466   3.810  16.912  0.00  0.00    +0.000 A 
ATOM      3  O   UNL     1       4.629   2.603  16.725  0.00  0.00    +0.000 OA
ATOM      4  N   UNL     1       5.428   4.769  16.496  0.00  0.00    +0.000 N 
ATOM      5  C   UNL     1       5.271   6.151  16.627  0.00  0.00    +0.000 A 
ATOM      6  O   UNL     1       5.999   6.995  16.110  0.00  0.00    +0.000 OA
ATOM      7  C   UNL     1       4.135   6.511  17.389  0.00  0.00    +0.000 A 
ATOM      8  N   UNL     1       3.691   7.737  17.788  0.00  0.00    +0.000 N 
ATOM      9  C   UNL     1       2.539   7.533  18.510  0.00  0.00    +0.000 A 
ATOM     10  N   UNL     1       2.207   6.252  18.518  0.00  0.00    +0.000 NA
ATOM     11  C   UNL     1       3.200   5.633  17.819  0.00  0.00    +0.000 A 
ATOM     12  H   UNL     1       4.148   8.624  17.614  0.00  0.00    +0.000 HD
ENDROOT
BRANCH   9  13
ATOM     13  C   UNL     1       1.783   8.603  19.193  0.00  0.00    +0.000 A 
ATOM     14  C   UNL     1       1.172   8.600  20.458  0.00  0.00    +0.000 A 
ATOM     15  N   UNL     1       0.549   9.752  20.722  0.00  0.00    +0.000 NA
ATOM     16  N   UNL     1       0.780  10.499  19.618  0.00  0.00    +0.000 N 
ATOM     17  C   UNL     1       1.514   9.845  18.669  0.00  0.00    +0.000 A 
BRANCH  16  18
ATOM     18  C   UNL     1       0.155  11.807  19.479  0.00  0.00    +0.000 C 
BRANCH  18  19
ATOM     19  C   UNL     1      -1.310  11.722  19.123  0.00  0.00    +0.000 A 
ATOM     20  C   UNL     1      -2.277  12.280  19.970  0.00  0.00    +0.000 A 
ATOM     21  C   UNL     1      -3.621  12.300  19.595  0.00  0.00    +0.000 A 
ATOM     22  C   UNL     1      -4.013  11.774  18.365  0.00  0.00    +0.000 A 
ATOM     23  C   UNL     1      -3.067  11.205  17.501  0.00  0.00    +0.000 A 
ATOM     24  C   UNL     1      -1.720  11.166  17.899  0.00  0.00    +0.000 A 
BRANCH  23  25
ATOM     25  C   UNL     1      -3.469  10.686  16.142  0.00  0.00    +0.000 C 
ATOM     26  F   UNL     1      -2.668  11.130  15.133  0.00  0.00    +0.000 F 
ATOM     27  F   UNL     1      -3.423   9.326  16.075  0.00  0.00    +0.000 F 
ATOM     28  F   UNL     1      -4.737  11.036  15.792  0.00  0.00    +0.000 F 
ENDBRANCH  23  25
ENDBRANCH  18  19
ENDBRANCH  16  18
ENDBRANCH   9  13
BRANCH   1  30
ATOM     29  C   UNL     1       2.219   2.824  19.193  0.00  0.00    +0.000 C 
ATOM     30  C   UNL     1       2.170   3.400  17.791  0.00  0.00    +0.000 C 
ENDBRANCH   1  30
BRANCH   4  31
ATOM     31  C   UNL     1       6.507   4.317  15.624  0.00  0.00    +0.000 C 
BRANCH  31  32
ATOM     32  C   UNL     1       6.336   4.489  14.137  0.00  0.00    +0.000 C 
ATOM     33  C   UNL     1       6.322   3.364  13.126  0.00  0.00    +0.000 C 
ATOM     34  C   UNL     1       5.077   4.173  13.371  0.00  0.00    +0.000 C 
ENDBRANCH  31  32
ENDBRANCH   4  31
TORSDOF 7
ENDMDL
MODEL 6
REMARK VINA RESULT:      -8.3      5.434     10.257
REMARK  Name = 
REMARK  8 active torsions:
REMARK  status: ('A' for Active; 'I' for Inactive)
REMARK    1  A    between atoms: C_1  and  C_2
REMARK    2  A    between atoms: C_2  and  N_3
REMARK    3  A    between atoms: N_6  and  C_7
REMARK    4  A    between atoms: C_7  and  C_8
REMARK    5  A    between atoms: C_15  and  C_16
REMARK    6  A    between atoms: N_19  and  C_20
REMARK    7  A    between atoms: C_20  and  C_21
REMARK    8  A    between atoms: C_25  and  C_26
REMARK                            x       y       z     vdW  Elec       q    Type
REMARK                         _______ _______ _______ _____ _____    ______ ____
ROOT
ATOM      1  N   UNL     1       3.724   5.023  19.201  0.00  0.00    +0.000 N 
ATOM      2  C   UNL     1       4.888   4.566  18.557  0.00  0.00    +0.000 A 
ATOM      3  O   UNL     1       5.404   3.492  18.868  0.00  0.00    +0.000 OA
ATOM      4  N   UNL     1       5.412   5.374  17.512  0.00  0.00    +0.000 N 
ATOM      5  C   UNL     1       4.837   6.569  17.076  0.00  0.00    +0.000 A 
ATOM      6  O   UNL     1       5.165   7.180  16.062  0.00  0.00    +0.000 OA
ATOM      7  C   UNL     1       3.776   7.009  17.901  0.00  0.00    +0.000 A 
ATOM      8  N   UNL     1       3.024   8.145  17.844  0.00  0.00    +0.000 N 
ATOM      9  C   UNL     1       2.124   8.085  18.882  0.00  0.00    +0.000 A 
ATOM     10  N   UNL     1       2.230   6.938  19.534  0.00  0.00    +0.000 NA
ATOM     11  C   UNL     1       3.253   6.283  18.915  0.00  0.00    +0.000 A 
ATOM     12  H   UNL     1       3.136   8.903  17.183  0.00  0.00    +0.000 HD
ENDROOT
BRANCH   9  13
ATOM     13  C   UNL     1       1.174   9.163  19.225  0.00  0.00    +0.000 A 
ATOM     14  C   UNL     1       0.455   9.379  20.413  0.00  0.00    +0.000 A 
ATOM     15  N   UNL     1      -0.336  10.452  20.338  0.00  0.00    +0.000 NA
ATOM     16  N   UNL     1      -0.105  10.933  19.094  0.00  0.00    +0.000 N 
ATOM     17  C   UNL     1       0.792  10.184  18.386  0.00  0.00    +0.000 A 
BRANCH  16  18
ATOM     18  C   UNL     1      -0.881  12.056  18.591  0.00  0.00    +0.000 C 
BRANCH  18  19
ATOM     19  C   UNL     1      -2.153  11.629  17.900  0.00  0.00    +0.000 A 
ATOM     20  C   UNL     1      -2.100  10.977  16.660  0.00  0.00    +0.000 A 
ATOM     21  C   UNL     1      -3.264  10.484  16.068  0.00  0.00    +0.000 A 
ATOM     22  C   UNL     1      -4.492  10.626  16.713  0.00  0.00    +0.000 A 
ATOM     23  C   UNL     1      -4.574  11.278  17.951  0.00  0.00    +0.000 A 
ATOM     24  C   UNL     1      -3.401  11.794  18.526  0.00  0.00    +0.000 A 
BRANCH  23  25
ATOM     25  C   UNL     1      -5.888  11.385  18.687  0.00  0.00    +0.000 C 
ATOM     26  F   UNL     1      -6.731  10.341  18.447  0.00  0.00    +0.000 F 
ATOM     27  F   UNL     1      -5.721  11.417  20.039  0.00  0.00    +0.000 F 
ATOM     28  F   UNL     1      -6.586  12.509  18.369  0.00  0.00    +0.000 F 
ENDBRANCH  23  25
ENDBRANCH  18  19
ENDBRANCH  16  18
ENDBRANCH   9  13
BRANCH   1  30
ATOM     29  C   UNL     1       1.887   3.387  19.493  0.00  0.00    +0.000 C 
ATOM     30  C   UNL     1       3.011   4.167  20.147  0.00  0.00    +0.000 C 
ENDBRANCH   1  30
BRANCH   4  31
ATOM     31  C   UNL     1       6.435   4.791  16.649  0.00  0.00    +0.000 C 
BRANCH  31  32
ATOM     32  C   UNL     1       5.985   3.905  15.516  0.00  0.00    +0.000 C 
ATOM     33  C   UNL     1       5.102   4.341  14.368  0.00  0.00    +0.000 C 
ATOM     34  C   UNL     1       6.533   3.953  14.113  0.00  0.00    +0.000 C 
ENDBRANCH  31  32
ENDBRANCH   4  31
TORSDOF 7
ENDMDL
MODEL 7
REMARK VINA RESULT:      -8.2      4.957     10.442
REMARK  Name = 
REMARK  8 active torsions:
REMARK  status: ('A' for Active; 'I' for Inactive)
REMARK    1  A    between atoms: C_1  and  C_2
REMARK    2  A    between atoms: C_2  and  N_3
REMARK    3  A    between atoms: N_6  and  C_7
REMARK    4  A    between atoms: C_7  and  C_8
REMARK    5  A    between atoms: C_15  and  C_16
REMARK    6  A    between atoms: N_19  and  C_20
REMARK    7  A    between atoms: C_20  and  C_21
REMARK    8  A    between atoms: C_25  and  C_26
REMARK                            x       y       z     vdW  Elec       q    Type
REMARK                         _______ _______ _______ _____ _____    ______ ____
ROOT
ATOM      1  N   UNL     1       2.619   5.289  20.055  0.00  0.00    +0.000 N 
ATOM      2  C   UNL     1       3.502   4.947  19.015  0.00  0.00    +0.000 A 
ATOM      3  O   UNL     1       4.003   3.824  18.953  0.00  0.00    +0.000 OA
ATOM      4  N   UNL     1       3.754   5.935  18.025  0.00  0.00    +0.000 N 
ATOM      5  C   UNL     1       3.169   7.203  18.010  0.00  0.00    +0.000 A 
ATOM      6  O   UNL     1       3.227   7.996  17.073  0.00  0.00    +0.000 OA
ATOM      7  C   UNL     1       2.435   7.490  19.185  0.00  0.00    +0.000 A 
ATOM      8  N   UNL     1       1.789   8.629  19.568  0.00  0.00    +0.000 N 
ATOM      9  C   UNL     1       1.234   8.381  20.801  0.00  0.00    +0.000 A 
ATOM     10  N   UNL     1       1.441   7.127  21.170  0.00  0.00    +0.000 NA
ATOM     11  C   UNL     1       2.181   6.588  20.161  0.00  0.00    +0.000 A 
ATOM     12  H   UNL     1       1.758   9.500  19.053  0.00  0.00    +0.000 HD
ENDROOT
BRANCH   9  13
ATOM     13  C   UNL     1       0.513   9.388  21.607  0.00  0.00    +0.000 A 
ATOM     14  C   UNL     1      -0.144   9.243  22.841  0.00  0.00    +0.000 A 
ATOM     15  N   UNL     1      -0.712  10.381  23.249  0.00  0.00    +0.000 NA
ATOM     16  N   UNL     1      -0.398  11.262  22.270  0.00  0.00    +0.000 N 
ATOM     17  C   UNL     1       0.333  10.706  21.259  0.00  0.00    +0.000 A 
BRANCH  16  18
ATOM     18  C   UNL     1      -0.944  12.611  22.302  0.00  0.00    +0.000 C 
BRANCH  18  19
ATOM     19  C   UNL     1      -2.452  12.633  22.374  0.00  0.00    +0.000 A 
ATOM     20  C   UNL     1      -3.099  12.809  23.605  0.00  0.00    +0.000 A 
ATOM     21  C   UNL     1      -4.487  12.938  23.664  0.00  0.00    +0.000 A 
ATOM     22  C   UNL     1      -5.244  12.903  22.495  0.00  0.00    +0.000 A 
ATOM     23  C   UNL     1      -4.623  12.722  21.251  0.00  0.00    +0.000 A 
ATOM     24  C   UNL     1      -3.228  12.567  21.204  0.00  0.00    +0.000 A 
BRANCH  23  25
ATOM     25  C   UNL     1      -5.426  12.742  19.972  0.00  0.00    +0.000 C 
ATOM     26  F   UNL     1      -6.687  12.247  20.115  0.00  0.00    +0.000 F 
ATOM     27  F   UNL     1      -5.581  14.003  19.480  0.00  0.00    +0.000 F 
ATOM     28  F   UNL     1      -4.853  12.017  18.972  0.00  0.00    +0.000 F 
ENDBRANCH  23  25
ENDBRANCH  18  19
ENDBRANCH  16  18
ENDBRANCH   9  13
BRANCH   1  30
ATOM     29  C   UNL     1       0.969   3.490  20.476  0.00  0.00    +0.000 C 
ATOM     30  C   UNL     1       2.154   4.277  21.001  0.00  0.00    +0.000 C 
ENDBRANCH   1  30
BRANCH   4  31
ATOM     31  C   UNL     1       4.428   5.516  16.801  0.00  0.00    +0.000 C 
BRANCH  31  32
ATOM     32  C   UNL     1       5.917   5.727  16.704  0.00  0.00    +0.000 C 
ATOM     33  C   UNL     1       6.968   4.706  17.081  0.00  0.00    +0.000 C 
ATOM     34  C   UNL     1       6.806   5.127  15.646  0.00  0.00    +0.000 C 
ENDBRANCH  31  32
ENDBRANCH   4  31
TORSDOF 7
ENDMDL
MODEL 8
REMARK VINA RESULT:      -8.2      5.943     10.857
REMARK  Name = 
REMARK  8 active torsions:
REMARK  status: ('A' for Active; 'I' for Inactive)
REMARK    1  A    between atoms: C_1  and  C_2
REMARK    2  A    between atoms: C_2  and  N_3
REMARK    3  A    between atoms: N_6  and  C_7
REMARK    4  A    between atoms: C_7  and  C_8
REMARK    5  A    between atoms: C_15  and  C_16
REMARK    6  A    between atoms: N_19  and  C_20
REMARK    7  A    between atoms: C_20  and  C_21
REMARK    8  A    between atoms: C_25  and  C_26
REMARK                            x       y       z     vdW  Elec       q    Type
REMARK                         _______ _______ _______ _____ _____    ______ ____
ROOT
ATOM      1  N   UNL     1       2.691   5.068  20.134  0.00  0.00    +0.000 N 
ATOM      2  C   UNL     1       3.595   4.693  19.123  0.00  0.00    +0.000 A 
ATOM      3  O   UNL     1       4.098   3.568  19.109  0.00  0.00    +0.000 OA
ATOM      4  N   UNL     1       3.866   5.647  18.107  0.00  0.00    +0.000 N 
ATOM      5  C   UNL     1       3.281   6.913  18.038  0.00  0.00    +0.000 A 
ATOM      6  O   UNL     1       3.357   7.675  17.076  0.00  0.00    +0.000 OA
ATOM      7  C   UNL     1       2.523   7.239  19.187  0.00  0.00    +0.000 A 
ATOM      8  N   UNL     1       1.870   8.389  19.519  0.00  0.00    +0.000 N 
ATOM      9  C   UNL     1       1.290   8.182  20.749  0.00  0.00    +0.000 A 
ATOM     10  N   UNL     1       1.490   6.941  21.163  0.00  0.00    +0.000 NA
ATOM     11  C   UNL     1       2.251   6.370  20.187  0.00  0.00    +0.000 A 
ATOM     12  H   UNL     1       1.848   9.242  18.975  0.00  0.00    +0.000 HD
ENDROOT
BRANCH   9  13
ATOM     13  C   UNL     1       0.552   9.214  21.506  0.00  0.00    +0.000 A 
ATOM     14  C   UNL     1       0.428   9.387  22.895  0.00  0.00    +0.000 A 
ATOM     15  N   UNL     1      -0.352  10.425  23.208  0.00  0.00    +0.000 NA
ATOM     16  N   UNL     1      -0.714  10.926  22.004  0.00  0.00    +0.000 N 
ATOM     17  C   UNL     1      -0.197  10.224  20.952  0.00  0.00    +0.000 A 
BRANCH  16  18
ATOM     18  C   UNL     1      -1.673  12.019  21.928  0.00  0.00    +0.000 C 
BRANCH  18  19
ATOM     19  C   UNL     1      -1.171  13.286  22.576  0.00  0.00    +0.000 A 
ATOM     20  C   UNL     1      -0.219  14.084  21.928  0.00  0.00    +0.000 A 
ATOM     21  C   UNL     1       0.168  15.309  22.472  0.00  0.00    +0.000 A 
ATOM     22  C   UNL     1      -0.400  15.757  23.663  0.00  0.00    +0.000 A 
ATOM     23  C   UNL     1      -1.350  14.976  24.336  0.00  0.00    +0.000 A 
ATOM     24  C   UNL     1      -1.714  13.733  23.794  0.00  0.00    +0.000 A 
BRANCH  23  25
ATOM     25  C   UNL     1      -2.016  15.477  25.595  0.00  0.00    +0.000 C 
ATOM     26  F   UNL     1      -3.000  14.652  26.053  0.00  0.00    +0.000 F 
ATOM     27  F   UNL     1      -1.136  15.606  26.628  0.00  0.00    +0.000 F 
ATOM     28  F   UNL     1      -2.596  16.698  25.441  0.00  0.00    +0.000 F 
ENDBRANCH  23  25
ENDBRANCH  18  19
ENDBRANCH  16  18
ENDBRANCH   9  13
BRANCH   1  30
ATOM     29  C   UNL     1       1.041   3.274  20.577  0.00  0.00    +0.000 C 
ATOM     30  C   UNL     1       2.208   4.087  21.103  0.00  0.00    +0.000 C 
ENDBRANCH   1  30
BRANCH   4  31
ATOM     31  C   UNL     1       4.564   5.188  16.911  0.00  0.00    +0.000 C 
BRANCH  31  32
ATOM     32  C   UNL     1       6.029   5.519  16.775  0.00  0.00    +0.000 C 
ATOM     33  C   UNL     1       7.167   4.577  17.100  0.00  0.00    +0.000 C 
ATOM     34  C   UNL     1       6.930   5.010  15.679  0.00  0.00    +0.000 C 
ENDBRANCH  31  32
ENDBRANCH   4  31
TORSDOF 7
ENDMDL
MODEL 9
REMARK VINA RESULT:      -8.2      1.509      2.001
REMARK  Name = 
REMARK  8 active torsions:
REMARK  status: ('A' for Active; 'I' for Inactive)
REMARK    1  A    between atoms: C_1  and  C_2
REMARK    2  A    between atoms: C_2  and  N_3
REMARK    3  A    between atoms: N_6  and  C_7
REMARK    4  A    between atoms: C_7  and  C_8
REMARK    5  A    between atoms: C_15  and  C_16
REMARK    6  A    between atoms: N_19  and  C_20
REMARK    7  A    between atoms: C_20  and  C_21
REMARK    8  A    between atoms: C_25  and  C_26
REMARK                            x       y       z     vdW  Elec       q    Type
REMARK                         _______ _______ _______ _____ _____    ______ ____
ROOT
ATOM      1  N   UNL     1       0.324  10.410  19.465  0.00  0.00    +0.000 N 
ATOM      2  C   UNL     1      -0.020  11.529  20.243  0.00  0.00    +0.000 A 
ATOM      3  O   UNL     1      -0.334  12.597  19.714  0.00  0.00    +0.000 OA
ATOM      4  N   UNL     1      -0.031  11.362  21.654  0.00  0.00    +0.000 N 
ATOM      5  C   UNL     1       0.255  10.161  22.307  0.00  0.00    +0.000 A 
ATOM      6  O   UNL     1       0.071   9.948  23.503  0.00  0.00    +0.000 OA
ATOM      7  C   UNL     1       0.746   9.159  21.438  0.00  0.00    +0.000 A 
ATOM      8  N   UNL     1       1.193   7.899  21.705  0.00  0.00    +0.000 N 
ATOM      9  C   UNL     1       1.558   7.338  20.504  0.00  0.00    +0.000 A 
ATOM     10  N   UNL     1       1.293   8.158  19.499  0.00  0.00    +0.000 NA
ATOM     11  C   UNL     1       0.789   9.278  20.091  0.00  0.00    +0.000 A 
ATOM     12  H   UNL     1       1.272   7.474  22.620  0.00  0.00    +0.000 HD
ENDROOT
BRANCH   9  13
ATOM     13  C   UNL     1       2.172   6.002  20.360  0.00  0.00    +0.000 A 
ATOM     14  C   UNL     1       2.069   4.875  21.193  0.00  0.00    +0.000 A 
ATOM     15  N   UNL     1       2.799   3.849  20.748  0.00  0.00    +0.000 NA
ATOM     16  N   UNL     1       3.358   4.324  19.611  0.00  0.00    +0.000 N 
ATOM     17  C   UNL     1       3.013   5.619  19.342  0.00  0.00    +0.000 A 
BRANCH  16  18
ATOM     18  C   UNL     1       4.328   3.519  18.883  0.00  0.00    +0.000 C 
BRANCH  18  19
ATOM     19  C   UNL     1       5.063   4.301  17.822  0.00  0.00    +0.000 A 
ATOM     20  C   UNL     1       4.783   4.088  16.465  0.00  0.00    +0.000 A 
ATOM     21  C   UNL     1       5.380   4.882  15.485  0.00  0.00    +0.000 A 
ATOM     22  C   UNL     1       6.253   5.905  15.849  0.00  0.00    +0.000 A 
ATOM     23  C   UNL     1       6.555   6.136  17.199  0.00  0.00    +0.000 A 
ATOM     24  C   UNL     1       5.970   5.315  18.176  0.00  0.00    +0.000 A 
BRANCH  23  25
ATOM     25  C   UNL     1       7.453   7.279  17.609  0.00  0.00    +0.000 C 
ATOM     26  F   UNL     1       6.770   8.389  18.009  0.00  0.00    +0.000 F 
ATOM     27  F   UNL     1       8.262   6.949  18.656  0.00  0.00    +0.000 F 
ATOM     28  F   UNL     1       8.281   7.691  16.610  0.00  0.00    +0.000 F 
ENDBRANCH  23  25
ENDBRANCH  18  19
ENDBRANCH  16  18
ENDBRANCH   9  13
BRANCH   1  30
ATOM     29  C   UNL     1      -1.216  10.024  17.563  0.00  0.00    +0.000 C 
ATOM     30  C   UNL     1       0.172  10.437  18.012  0.00  0.00    +0.000 C 
ENDBRANCH   1  30
BRANCH   4  31
ATOM     31  C   UNL     1      -0.654  12.408  22.459  0.00  0.00    +0.000 C 
BRANCH  31  32
ATOM     32  C   UNL     1      -2.157  12.514  22.443  0.00  0.00    +0.000 C 
ATOM     33  C   UNL     1      -3.070  12.116  23.582  0.00  0.00    +0.000 C 
ATOM     34  C   UNL     1      -2.956  13.560  23.176  0.00  0.00    +0.000 C 
ENDBRANCH  31  32
ENDBRANCH   4  31
TORSDOF 7
ENDMDL
