MODEL 1
REMARK VINA RESULT:      -6.9      0.000      0.000
REMARK  Name = 
REMARK  2 active torsions:
REMARK  status: ('A' for Active; 'I' for Inactive)
REMARK    1  A    between atoms: C_1  and  N_2
REMARK    2  A    between atoms: C_14  and  C_15
REMARK                            x       y       z     vdW  Elec       q    Type
REMARK                         _______ _______ _______ _____ _____    ______ ____
ROOT
ATOM      1  C   UNL     1       5.021   4.515  13.863  0.00  0.00    +0.000 C 
ATOM      2  N   UNL     1       5.990   4.648  14.922  0.00  0.00    +0.000 N 
ATOM      3  N   UNL     1       7.277   4.958  14.609  0.00  0.00    +0.000 NA
ATOM      4  C   UNL     1       7.896   4.980  15.795  0.00  0.00    +0.000 A 
ATOM      5  C   UNL     1       7.020   4.680  16.839  0.00  0.00    +0.000 A 
ATOM      6  C   UNL     1       7.149   4.545  18.251  0.00  0.00    +0.000 A 
ATOM      7  O   UNL     1       8.179   4.746  18.882  0.00  0.00    +0.000 OA
ATOM      8  N   UNL     1       5.966   4.170  18.847  0.00  0.00    +0.000 N 
ATOM      9  C   UNL     1       4.743   4.027  18.200  0.00  0.00    +0.000 A 
ATOM     10  N   UNL     1       3.686   3.716  19.022  0.00  0.00    +0.000 N 
ATOM     11  C   UNL     1       3.778   2.998  20.282  0.00  0.00    +0.000 C 
ATOM     12  C   UNL     1       2.381   2.442  20.480  0.00  0.00    +0.000 C 
ATOM     13  C   UNL     1       1.491   3.547  19.936  0.00  0.00    +0.000 C 
ATOM     14  C   UNL     1       2.317   4.215  18.805  0.00  0.00    +0.000 C 
ATOM     15  N   UNL     1       4.619   4.191  16.906  0.00  0.00    +0.000 NA
ATOM     16  C   UNL     1       5.787   4.487  16.268  0.00  0.00    +0.000 A 
ATOM     17  H   UNL     1       6.001   4.113  19.847  0.00  0.00    +0.000 HD
ENDROOT
BRANCH  14  18
ATOM     18  C   UNL     1       2.185   5.720  18.921  0.00  0.00    +0.000 A 
ATOM     19  C   UNL     1       2.356   6.677  17.935  0.00  0.00    +0.000 A 
ATOM     20  C   UNL     1       2.169   8.002  18.415  0.00  0.00    +0.000 A 
ATOM     21  C   UNL     1       1.873   8.020  19.759  0.00  0.00    +0.000 A 
ATOM     22  S   UNL     1       1.818   6.447  20.429  0.00  0.00    +0.000 S 
ENDBRANCH  14  18
TORSDOF 1
ENDMDL
MODEL 2
REMARK VINA RESULT:      -6.9      2.644      5.801
REMARK  Name = 
REMARK  2 active torsions:
REMARK  status: ('A' for Active; 'I' for Inactive)
REMARK    1  A    between atoms: C_1  and  N_2
REMARK    2  A    between atoms: C_14  and  C_15
REMARK                            x       y       z     vdW  Elec       q    Type
REMARK                         _______ _______ _______ _____ _____    ______ ____
ROOT
ATOM      1  C   UNL     1       5.056   1.560  20.858  0.00  0.00    +0.000 C 
ATOM      2  N   UNL     1       3.982   2.412  20.412  0.00  0.00    +0.000 N 
ATOM      3  N   UNL     1       2.863   2.525  21.177  0.00  0.00    +0.000 NA
ATOM      4  C   UNL     1       2.082   3.355  20.476  0.00  0.00    +0.000 A 
ATOM      5  C   UNL     1       2.689   3.752  19.284  0.00  0.00    +0.000 A 
ATOM      6  C   UNL     1       2.308   4.578  18.189  0.00  0.00    +0.000 A 
ATOM      7  O   UNL     1       1.260   5.207  18.119  0.00  0.00    +0.000 OA
ATOM      8  N   UNL     1       3.267   4.606  17.201  0.00  0.00    +0.000 N 
ATOM      9  C   UNL     1       4.517   3.999  17.268  0.00  0.00    +0.000 A 
ATOM     10  N   UNL     1       5.332   4.230  16.185  0.00  0.00    +0.000 N 
ATOM     11  C   UNL     1       4.882   4.514  14.834  0.00  0.00    +0.000 C 
ATOM     12  C   UNL     1       6.071   4.133  13.973  0.00  0.00    +0.000 C 
ATOM     13  C   UNL     1       7.259   4.557  14.821  0.00  0.00    +0.000 C 
ATOM     14  C   UNL     1       6.794   4.379  16.290  0.00  0.00    +0.000 C 
ATOM     15  N   UNL     1       4.881   3.271  18.296  0.00  0.00    +0.000 NA
ATOM     16  C   UNL     1       3.925   3.154  19.261  0.00  0.00    +0.000 A 
ATOM     17  H   UNL     1       3.059   5.217  16.434  0.00  0.00    +0.000 HD
ENDROOT
BRANCH  14  18
ATOM     18  C   UNL     1       7.234   5.583  17.097  0.00  0.00    +0.000 A 
ATOM     19  C   UNL     1       7.246   6.915  16.717  0.00  0.00    +0.000 A 
ATOM     20  C   UNL     1       7.746   7.773  17.735  0.00  0.00    +0.000 A 
ATOM     21  C   UNL     1       8.113   7.069  18.860  0.00  0.00    +0.000 A 
ATOM     22  S   UNL     1       7.851   5.388  18.684  0.00  0.00    +0.000 S 
ENDBRANCH  14  18
TORSDOF 1
ENDMDL
MODEL 3
REMARK VINA RESULT:      -6.6      2.646      5.606
REMARK  Name = 
REMARK  2 active torsions:
REMARK  status: ('A' for Active; 'I' for Inactive)
REMARK    1  A    between atoms: C_1  and  N_2
REMARK    2  A    between atoms: C_14  and  C_15
REMARK                            x       y       z     vdW  Elec       q    Type
REMARK                         _______ _______ _______ _____ _____    ______ ____
ROOT
ATOM      1  C   UNL     1       0.899   4.809  17.802  0.00  0.00    +0.000 C 
ATOM      2  N   UNL     1       1.737   3.819  18.432  0.00  0.00    +0.000 N 
ATOM      3  N   UNL     1       1.167   2.697  18.946  0.00  0.00    +0.000 NA
ATOM      4  C   UNL     1       2.202   2.023  19.461  0.00  0.00    +0.000 A 
ATOM      5  C   UNL     1       3.404   2.710  19.287  0.00  0.00    +0.000 A 
ATOM      6  C   UNL     1       4.760   2.472  19.651  0.00  0.00    +0.000 A 
ATOM      7  O   UNL     1       5.167   1.462  20.211  0.00  0.00    +0.000 OA
ATOM      8  N   UNL     1       5.586   3.513  19.288  0.00  0.00    +0.000 N 
ATOM      9  C   UNL     1       5.202   4.635  18.561  0.00  0.00    +0.000 A 
ATOM     10  N   UNL     1       6.224   5.503  18.255  0.00  0.00    +0.000 N 
ATOM     11  C   UNL     1       7.439   5.685  19.029  0.00  0.00    +0.000 C 
ATOM     12  C   UNL     1       7.919   7.065  18.624  0.00  0.00    +0.000 C 
ATOM     13  C   UNL     1       7.567   7.132  17.147  0.00  0.00    +0.000 C 
ATOM     14  C   UNL     1       6.290   6.263  16.995  0.00  0.00    +0.000 C 
ATOM     15  N   UNL     1       3.960   4.832  18.192  0.00  0.00    +0.000 NA
ATOM     16  C   UNL     1       3.097   3.861  18.602  0.00  0.00    +0.000 A 
ATOM     17  H   UNL     1       6.557   3.362  19.481  0.00  0.00    +0.000 HD
ENDROOT
BRANCH  14  18
ATOM     18  C   UNL     1       6.427   5.397  15.760  0.00  0.00    +0.000 A 
ATOM     19  C   UNL     1       7.571   5.109  15.034  0.00  0.00    +0.000 A 
ATOM     20  C   UNL     1       7.315   4.268  13.915  0.00  0.00    +0.000 A 
ATOM     21  C   UNL     1       5.981   3.948  13.812  0.00  0.00    +0.000 A 
ATOM     22  S   UNL     1       5.049   4.656  15.060  0.00  0.00    +0.000 S 
ENDBRANCH  14  18
TORSDOF 1
ENDMDL
MODEL 4
REMARK VINA RESULT:      -6.6      2.734      5.628
REMARK  Name = 
REMARK  2 active torsions:
REMARK  status: ('A' for Active; 'I' for Inactive)
REMARK    1  A    between atoms: C_1  and  N_2
REMARK    2  A    between atoms: C_14  and  C_15
REMARK                            x       y       z     vdW  Elec       q    Type
REMARK                         _______ _______ _______ _____ _____    ______ ____
ROOT
ATOM      1  C   UNL     1       0.975   5.378  19.165  0.00  0.00    +0.000 C 
ATOM      2  N   UNL     1       1.802   4.268  19.568  0.00  0.00    +0.000 N 
ATOM      3  N   UNL     1       1.215   3.161  20.099  0.00  0.00    +0.000 NA
ATOM      4  C   UNL     1       2.248   2.357  20.375  0.00  0.00    +0.000 A 
ATOM      5  C   UNL     1       3.466   2.945  20.036  0.00  0.00    +0.000 A 
ATOM      6  C   UNL     1       4.833   2.557  20.136  0.00  0.00    +0.000 A 
ATOM      7  O   UNL     1       5.223   1.471  20.545  0.00  0.00    +0.000 OA
ATOM      8  N   UNL     1       5.687   3.545  19.702  0.00  0.00    +0.000 N 
ATOM      9  C   UNL     1       5.304   4.755  19.132  0.00  0.00    +0.000 A 
ATOM     10  N   UNL     1       6.341   5.551  18.708  0.00  0.00    +0.000 N 
ATOM     11  C   UNL     1       7.683   5.556  19.264  0.00  0.00    +0.000 C 
ATOM     12  C   UNL     1       8.227   6.917  18.873  0.00  0.00    +0.000 C 
ATOM     13  C   UNL     1       7.636   7.139  17.491  0.00  0.00    +0.000 C 
ATOM     14  C   UNL     1       6.269   6.405  17.510  0.00  0.00    +0.000 C 
ATOM     15  N   UNL     1       4.043   5.093  19.005  0.00  0.00    +0.000 NA
ATOM     16  C   UNL     1       3.167   4.172  19.496  0.00  0.00    +0.000 A 
ATOM     17  H   UNL     1       6.657   3.293  19.709  0.00  0.00    +0.000 HD
ENDROOT
BRANCH  14  18
ATOM     18  C   UNL     1       6.104   5.636  16.215  0.00  0.00    +0.000 A 
ATOM     19  C   UNL     1       5.172   5.834  15.210  0.00  0.00    +0.000 A 
ATOM     20  C   UNL     1       5.306   4.903  14.144  0.00  0.00    +0.000 A 
ATOM     21  C   UNL     1       6.330   4.011  14.371  0.00  0.00    +0.000 A 
ATOM     22  S   UNL     1       7.121   4.303  15.859  0.00  0.00    +0.000 S 
ENDBRANCH  14  18
TORSDOF 1
ENDMDL
MODEL 5
REMARK VINA RESULT:      -6.4      2.141      3.969
REMARK  Name = 
REMARK  2 active torsions:
REMARK  status: ('A' for Active; 'I' for Inactive)
REMARK    1  A    between atoms: C_1  and  N_2
REMARK    2  A    between atoms: C_14  and  C_15
REMARK                            x       y       z     vdW  Elec       q    Type
REMARK                         _______ _______ _______ _____ _____    ______ ____
ROOT
ATOM      1  C   UNL     1       8.030   5.179  19.926  0.00  0.00    +0.000 C 
ATOM      2  N   UNL     1       7.561   4.994  18.575  0.00  0.00    +0.000 N 
ATOM      3  N   UNL     1       8.350   4.341  17.681  0.00  0.00    +0.000 NA
ATOM      4  C   UNL     1       7.637   4.367  16.550  0.00  0.00    +0.000 A 
ATOM      5  C   UNL     1       6.422   5.032  16.720  0.00  0.00    +0.000 A 
ATOM      6  C   UNL     1       5.328   5.361  15.870  0.00  0.00    +0.000 A 
ATOM      7  O   UNL     1       5.230   5.028  14.696  0.00  0.00    +0.000 OA
ATOM      8  N   UNL     1       4.366   6.099  16.523  0.00  0.00    +0.000 N 
ATOM      9  C   UNL     1       4.372   6.420  17.877  0.00  0.00    +0.000 A 
ATOM     10  N   UNL     1       3.262   7.103  18.314  0.00  0.00    +0.000 N 
ATOM     11  C   UNL     1       2.431   7.974  17.502  0.00  0.00    +0.000 C 
ATOM     12  C   UNL     1       1.751   8.870  18.518  0.00  0.00    +0.000 C 
ATOM     13  C   UNL     1       1.501   7.935  19.689  0.00  0.00    +0.000 C 
ATOM     14  C   UNL     1       2.670   6.914  19.650  0.00  0.00    +0.000 C 
ATOM     15  N   UNL     1       5.362   6.081  18.666  0.00  0.00    +0.000 NA
ATOM     16  C   UNL     1       6.372   5.416  18.038  0.00  0.00    +0.000 A 
ATOM     17  H   UNL     1       3.555   6.308  15.973  0.00  0.00    +0.000 HD
ENDROOT
BRANCH  14  18
ATOM     18  C   UNL     1       2.118   5.523  19.887  0.00  0.00    +0.000 A 
ATOM     19  C   UNL     1       1.958   4.855  21.090  0.00  0.00    +0.000 A 
ATOM     20  C   UNL     1       1.424   3.547  20.925  0.00  0.00    +0.000 A 
ATOM     21  C   UNL     1       1.202   3.250  19.600  0.00  0.00    +0.000 A 
ATOM     22  S   UNL     1       1.634   4.544  18.567  0.00  0.00    +0.000 S 
ENDBRANCH  14  18
TORSDOF 1
ENDMDL
MODEL 6
REMARK VINA RESULT:      -6.4      1.248      1.434
REMARK  Name = 
REMARK  2 active torsions:
REMARK  status: ('A' for Active; 'I' for Inactive)
REMARK    1  A    between atoms: C_1  and  N_2
REMARK    2  A    between atoms: C_14  and  C_15
REMARK                            x       y       z     vdW  Elec       q    Type
REMARK                         _______ _______ _______ _____ _____    ______ ____
ROOT
ATOM      1  C   UNL     1       5.198   5.429  14.798  0.00  0.00    +0.000 C 
ATOM      2  N   UNL     1       6.037   5.454  15.970  0.00  0.00    +0.000 N 
ATOM      3  N   UNL     1       7.354   5.765  15.838  0.00  0.00    +0.000 NA
ATOM      4  C   UNL     1       7.828   5.676  17.085  0.00  0.00    +0.000 A 
ATOM      5  C   UNL     1       6.834   5.304  17.991  0.00  0.00    +0.000 A 
ATOM      6  C   UNL     1       6.794   5.047  19.391  0.00  0.00    +0.000 A 
ATOM      7  O   UNL     1       7.744   5.175  20.152  0.00  0.00    +0.000 OA
ATOM      8  N   UNL     1       5.545   4.645  19.810  0.00  0.00    +0.000 N 
ATOM      9  C   UNL     1       4.406   4.580  19.015  0.00  0.00    +0.000 A 
ATOM     10  N   UNL     1       3.257   4.219  19.677  0.00  0.00    +0.000 N 
ATOM     11  C   UNL     1       3.194   3.395  20.872  0.00  0.00    +0.000 C 
ATOM     12  C   UNL     1       1.779   2.850  20.857  0.00  0.00    +0.000 C 
ATOM     13  C   UNL     1       0.968   4.013  20.311  0.00  0.00    +0.000 C 
ATOM     14  C   UNL     1       1.927   4.760  19.346  0.00  0.00    +0.000 C 
ATOM     15  N   UNL     1       4.437   4.855  17.733  0.00  0.00    +0.000 NA
ATOM     16  C   UNL     1       5.674   5.183  17.264  0.00  0.00    +0.000 A 
ATOM     17  H   UNL     1       5.462   4.502  20.798  0.00  0.00    +0.000 HD
ENDROOT
BRANCH  14  18
ATOM     18  C   UNL     1       1.795   6.251  19.575  0.00  0.00    +0.000 A 
ATOM     19  C   UNL     1       1.421   6.914  20.732  0.00  0.00    +0.000 A 
ATOM     20  C   UNL     1       1.389   8.327  20.571  0.00  0.00    +0.000 A 
ATOM     21  C   UNL     1       1.728   8.702  19.291  0.00  0.00    +0.000 A 
ATOM     22  S   UNL     1       2.085   7.356  18.297  0.00  0.00    +0.000 S 
ENDBRANCH  14  18
TORSDOF 1
ENDMDL
MODEL 7
REMARK VINA RESULT:      -6.2      2.588      5.892
REMARK  Name = 
REMARK  2 active torsions:
REMARK  status: ('A' for Active; 'I' for Inactive)
REMARK    1  A    between atoms: C_1  and  N_2
REMARK    2  A    between atoms: C_14  and  C_15
REMARK                            x       y       z     vdW  Elec       q    Type
REMARK                         _______ _______ _______ _____ _____    ______ ____
ROOT
ATOM      1  C   UNL     1       4.358   1.723  20.988  0.00  0.00    +0.000 C 
ATOM      2  N   UNL     1       3.442   2.725  20.502  0.00  0.00    +0.000 N 
ATOM      3  N   UNL     1       2.317   2.997  21.215  0.00  0.00    +0.000 NA
ATOM      4  C   UNL     1       1.699   3.934  20.487  0.00  0.00    +0.000 A 
ATOM      5  C   UNL     1       2.414   4.243  19.330  0.00  0.00    +0.000 A 
ATOM      6  C   UNL     1       2.210   5.120  18.227  0.00  0.00    +0.000 A 
ATOM      7  O   UNL     1       1.269   5.896  18.114  0.00  0.00    +0.000 OA
ATOM      8  N   UNL     1       3.208   5.012  17.285  0.00  0.00    +0.000 N 
ATOM      9  C   UNL     1       4.351   4.228  17.403  0.00  0.00    +0.000 A 
ATOM     10  N   UNL     1       5.242   4.343  16.362  0.00  0.00    +0.000 N 
ATOM     11  C   UNL     1       4.904   4.694  14.995  0.00  0.00    +0.000 C 
ATOM     12  C   UNL     1       6.063   4.147  14.186  0.00  0.00    +0.000 C 
ATOM     13  C   UNL     1       7.259   4.389  15.092  0.00  0.00    +0.000 C 
ATOM     14  C   UNL     1       6.704   4.275  16.537  0.00  0.00    +0.000 C 
ATOM     15  N   UNL     1       4.556   3.451  18.439  0.00  0.00    +0.000 NA
ATOM     16  C   UNL     1       3.549   3.471  19.358  0.00  0.00    +0.000 A 
ATOM     17  H   UNL     1       3.128   5.649  16.516  0.00  0.00    +0.000 HD
ENDROOT
BRANCH  14  18
ATOM     18  C   UNL     1       7.276   5.399  17.376  0.00  0.00    +0.000 A 
ATOM     19  C   UNL     1       7.833   5.330  18.642  0.00  0.00    +0.000 A 
ATOM     20  C   UNL     1       8.251   6.599  19.129  0.00  0.00    +0.000 A 
ATOM     21  C   UNL     1       7.989   7.604  18.226  0.00  0.00    +0.000 A 
ATOM     22  S   UNL     1       7.248   7.014  16.801  0.00  0.00    +0.000 S 
ENDBRANCH  14  18
TORSDOF 1
ENDMDL
MODEL 8
REMARK VINA RESULT:      -6.1      8.953     11.947
REMARK  Name = 
REMARK  2 active torsions:
REMARK  status: ('A' for Active; 'I' for Inactive)
REMARK    1  A    between atoms: C_1  and  N_2
REMARK    2  A    between atoms: C_14  and  C_15
REMARK                            x       y       z     vdW  Elec       q    Type
REMARK                         _______ _______ _______ _____ _____    ______ ____
ROOT
ATOM      1  C   UNL     1      -1.286  16.537  22.493  0.00  0.00    +0.000 C 
ATOM      2  N   UNL     1      -2.335  15.670  22.968  0.00  0.00    +0.000 N 
ATOM      3  N   UNL     1      -3.480  16.219  23.456  0.00  0.00    +0.000 NA
ATOM      4  C   UNL     1      -4.210  15.158  23.820  0.00  0.00    +0.000 A 
ATOM      5  C   UNL     1      -3.537  13.960  23.577  0.00  0.00    +0.000 A 
ATOM      6  C   UNL     1      -3.829  12.583  23.789  0.00  0.00    +0.000 A 
ATOM      7  O   UNL     1      -4.884  12.152  24.236  0.00  0.00    +0.000 OA
ATOM      8  N   UNL     1      -2.783  11.767  23.420  0.00  0.00    +0.000 N 
ATOM      9  C   UNL     1      -1.603  12.187  22.813  0.00  0.00    +0.000 A 
ATOM     10  N   UNL     1      -0.737  11.177  22.470  0.00  0.00    +0.000 N 
ATOM     11  C   UNL     1      -0.637   9.888  23.132  0.00  0.00    +0.000 C 
ATOM     12  C   UNL     1       0.758   9.411  22.779  0.00  0.00    +0.000 C 
ATOM     13  C   UNL     1       0.938   9.902  21.352  0.00  0.00    +0.000 C 
ATOM     14  C   UNL     1       0.110  11.211  21.265  0.00  0.00    +0.000 C 
ATOM     15  N   UNL     1      -1.354  13.454  22.583  0.00  0.00    +0.000 NA
ATOM     16  C   UNL     1      -2.335  14.300  23.007  0.00  0.00    +0.000 A 
ATOM     17  H   UNL     1      -2.967  10.786  23.507  0.00  0.00    +0.000 HD
ENDROOT
BRANCH  14  18
ATOM     18  C   UNL     1      -0.669  11.217  19.966  0.00  0.00    +0.000 A 
ATOM     19  C   UNL     1      -1.223  10.142  19.289  0.00  0.00    +0.000 A 
ATOM     20  C   UNL     1      -1.871  10.526  18.083  0.00  0.00    +0.000 A 
ATOM     21  C   UNL     1      -1.784  11.883  17.867  0.00  0.00    +0.000 A 
ATOM     22  S   UNL     1      -0.929  12.682  19.114  0.00  0.00    +0.000 S 
ENDBRANCH  14  18
TORSDOF 1
ENDMDL
MODEL 9
REMARK VINA RESULT:      -5.9      8.753     11.855
REMARK  Name = 
REMARK  2 active torsions:
REMARK  status: ('A' for Active; 'I' for Inactive)
REMARK    1  A    between atoms: C_1  and  N_2
REMARK    2  A    between atoms: C_14  and  C_15
REMARK                            x       y       z     vdW  Elec       q    Type
REMARK                         _______ _______ _______ _____ _____    ______ ____
ROOT
ATOM      1  C   UNL     1      -0.264  16.224  23.900  0.00  0.00    +0.000 C 
ATOM      2  N   UNL     1      -1.468  15.447  24.055  0.00  0.00    +0.000 N 
ATOM      3  N   UNL     1      -2.568  16.028  24.604  0.00  0.00    +0.000 NA
ATOM      4  C   UNL     1      -3.474  15.043  24.618  0.00  0.00    +0.000 A 
ATOM      5  C   UNL     1      -2.955  13.857  24.098  0.00  0.00    +0.000 A 
ATOM      6  C   UNL     1      -3.458  12.539  23.907  0.00  0.00    +0.000 A 
ATOM      7  O   UNL     1      -4.604  12.185  24.153  0.00  0.00    +0.000 OA
ATOM      8  N   UNL     1      -2.504  11.688  23.393  0.00  0.00    +0.000 N 
ATOM      9  C   UNL     1      -1.222  12.054  22.998  0.00  0.00    +0.000 A 
ATOM     10  N   UNL     1      -0.476  11.040  22.444  0.00  0.00    +0.000 N 
ATOM     11  C   UNL     1      -0.626   9.625  22.733  0.00  0.00    +0.000 C 
ATOM     12  C   UNL     1       0.716   9.036  22.349  0.00  0.00    +0.000 C 
ATOM     13  C   UNL     1       1.109   9.845  21.124  0.00  0.00    +0.000 C 
ATOM     14  C   UNL     1       0.487  11.249  21.349  0.00  0.00    +0.000 C 
ATOM     15  N   UNL     1      -0.775  13.278  23.138  0.00  0.00    +0.000 NA
ATOM     16  C   UNL     1      -1.664  14.133  23.718  0.00  0.00    +0.000 A 
ATOM     17  H   UNL     1      -2.833  10.762  23.197  0.00  0.00    +0.000 HD
ENDROOT
BRANCH  14  18
ATOM     18  C   UNL     1      -0.146  11.721  20.056  0.00  0.00    +0.000 A 
ATOM     19  C   UNL     1      -0.065  12.971  19.464  0.00  0.00    +0.000 A 
ATOM     20  C   UNL     1      -0.808  13.056  18.255  0.00  0.00    +0.000 A 
ATOM     21  C   UNL     1      -1.447  11.872  17.964  0.00  0.00    +0.000 A 
ATOM     22  S   UNL     1      -1.144  10.669  19.142  0.00  0.00    +0.000 S 
ENDBRANCH  14  18
TORSDOF 1
ENDMDL
