MODEL 1
REMARK VINA RESULT:      -7.4      0.000      0.000
REMARK  Name = 
REMARK  6 active torsions:
REMARK  status: ('A' for Active; 'I' for Inactive)
REMARK    1  A    between atoms: C_1  and  O_2
REMARK    2  A    between atoms: O_2  and  C_3
REMARK    3  A    between atoms: N_5  and  C_6
REMARK    4  A    between atoms: C_15  and  C_16
REMARK    5  A    between atoms: C_16  and  O_18
REMARK    6  A    between atoms: C_27  and  N_28
REMARK                            x       y       z     vdW  Elec       q    Type
REMARK                         _______ _______ _______ _____ _____    ______ ____
ROOT
ATOM      1  C   UNL     1       1.915   8.051  19.650  0.00  0.00    +0.000 A 
ATOM      2  N   UNL     1       2.287   6.751  19.755  0.00  0.00    +0.000 NA
ATOM      3  C   UNL     1       3.060   6.163  18.802  0.00  0.00    +0.000 A 
ATOM      4  C   UNL     1       3.558   6.931  17.742  0.00  0.00    +0.000 A 
ATOM      5  C   UNL     1       3.211   8.274  17.627  0.00  0.00    +0.000 A 
ATOM      6  C   UNL     1       2.369   8.822  18.577  0.00  0.00    +0.000 A 
ATOM      7  F   UNL     1       2.037  10.118  18.462  0.00  0.00    +0.000 F 
ATOM      8  C   UNL     1       4.465   6.336  16.745  0.00  0.00    +0.000 A 
ATOM      9  O   UNL     1       4.913   7.002  15.811  0.00  0.00    +0.000 OA
ATOM     10  C   UNL     1       4.837   4.919  16.893  0.00  0.00    +0.000 A 
ATOM     11  C   UNL     1       4.296   4.261  17.926  0.00  0.00    +0.000 A 
ATOM     12  N   UNL     1       3.398   4.766  18.872  0.00  0.00    +0.000 N 
ATOM     13  C   UNL     1       2.907   3.951  19.877  0.00  0.00    +0.000 A 
ATOM     14  N   UNL     1       3.595   2.953  20.410  0.00  0.00    +0.000 NA
ATOM     15  C   UNL     1       2.877   2.319  21.403  0.00  0.00    +0.000 A 
ATOM     16  C   UNL     1       1.597   2.781  21.595  0.00  0.00    +0.000 A 
ATOM     17  S   UNL     1       1.269   4.025  20.476  0.00  0.00    +0.000 S 
ENDROOT
BRANCH   1  20
ATOM     18  C   UNL     1       0.669  10.359  22.199  0.00  0.00    +0.000 C 
ATOM     19  C   UNL     1       1.751   9.344  21.754  0.00  0.00    +0.000 C 
ATOM     20  N   UNL     1       1.134   8.596  20.644  0.00  0.00    +0.000 N 
ATOM     21  C   UNL     1      -0.193   9.139  20.355  0.00  0.00    +0.000 C 
ATOM     22  C   UNL     1      -0.637   9.670  21.743  0.00  0.00    +0.000 C 
BRANCH  22  23
ATOM     23  N   UNL     1      -1.031   8.565  22.653  0.00  0.00    +0.000 NA
ATOM     24  H   UNL     1      -1.727   7.997  22.159  0.00  0.00    +0.000 HD
ATOM     25  H   UNL     1      -1.555   8.966  23.432  0.00  0.00    +0.000 HD
ENDBRANCH  22  23
BRANCH  18  27
ATOM     26  C   UNL     1      -0.300  12.522  21.831  0.00  0.00    +0.000 C 
ATOM     27  O   UNL     1       0.748  11.621  21.512  0.00  0.00    +0.000 OA
ENDBRANCH  18  27
ENDBRANCH   1  20
BRANCH  10  28
ATOM     28  C   UNL     1       5.738   4.215  15.956  0.00  0.00    +0.000 C 
ATOM     29  O   UNL     1       5.418   3.915  14.815  0.00  0.00    +0.000 OA
BRANCH  28  30
ATOM     30  O   UNL     1       6.962   3.932  16.454  0.00  0.00    +0.000 OA
ATOM     31  H   UNL     1       7.078   2.995  16.750  0.00  0.00    +0.000 HD
ENDBRANCH  28  30
ENDBRANCH  10  28
TORSDOF 5
ENDMDL
MODEL 2
REMARK VINA RESULT:      -7.1      1.099      1.273
REMARK  Name = 
REMARK  6 active torsions:
REMARK  status: ('A' for Active; 'I' for Inactive)
REMARK    1  A    between atoms: C_1  and  O_2
REMARK    2  A    between atoms: O_2  and  C_3
REMARK    3  A    between atoms: N_5  and  C_6
REMARK    4  A    between atoms: C_15  and  C_16
REMARK    5  A    between atoms: C_16  and  O_18
REMARK    6  A    between atoms: C_27  and  N_28
REMARK                            x       y       z     vdW  Elec       q    Type
REMARK                         _______ _______ _______ _____ _____    ______ ____
ROOT
ATOM      1  C   UNL     1       2.152   8.164  19.258  0.00  0.00    +0.000 A 
ATOM      2  N   UNL     1       2.488   6.867  19.463  0.00  0.00    +0.000 NA
ATOM      3  C   UNL     1       3.296   6.205  18.590  0.00  0.00    +0.000 A 
ATOM      4  C   UNL     1       3.866   6.894  17.513  0.00  0.00    +0.000 A 
ATOM      5  C   UNL     1       3.556   8.234  17.297  0.00  0.00    +0.000 A 
ATOM      6  C   UNL     1       2.679   8.857  18.165  0.00  0.00    +0.000 A 
ATOM      7  F   UNL     1       2.383  10.149  17.952  0.00  0.00    +0.000 F 
ATOM      8  C   UNL     1       4.810   6.220  16.604  0.00  0.00    +0.000 A 
ATOM      9  O   UNL     1       5.320   6.816  15.656  0.00  0.00    +0.000 OA
ATOM     10  C   UNL     1       5.141   4.808  16.859  0.00  0.00    +0.000 A 
ATOM     11  C   UNL     1       4.532   4.228  17.902  0.00  0.00    +0.000 A 
ATOM     12  N   UNL     1       3.598   4.809  18.765  0.00  0.00    +0.000 N 
ATOM     13  C   UNL     1       3.037   4.068  19.791  0.00  0.00    +0.000 A 
ATOM     14  N   UNL     1       3.674   3.093  20.421  0.00  0.00    +0.000 NA
ATOM     15  C   UNL     1       2.890   2.537  21.412  0.00  0.00    +0.000 A 
ATOM     16  C   UNL     1       1.614   3.035  21.506  0.00  0.00    +0.000 A 
ATOM     17  S   UNL     1       1.372   4.212  20.297  0.00  0.00    +0.000 S 
ENDROOT
BRANCH   1  20
ATOM     18  C   UNL     1      -0.456  10.295  20.683  0.00  0.00    +0.000 C 
ATOM     19  C   UNL     1       0.916  10.185  19.974  0.00  0.00    +0.000 C 
ATOM     20  N   UNL     1       1.334   8.787  20.173  0.00  0.00    +0.000 N 
ATOM     21  C   UNL     1       0.286   8.049  20.879  0.00  0.00    +0.000 C 
ATOM     22  C   UNL     1      -0.377   9.162  21.731  0.00  0.00    +0.000 C 
BRANCH  22  23
ATOM     23  N   UNL     1       0.465   9.538  22.895  0.00  0.00    +0.000 NA
ATOM     24  H   UNL     1       0.604   8.692  23.456  0.00  0.00    +0.000 HD
ATOM     25  H   UNL     1      -0.086  10.144  23.504  0.00  0.00    +0.000 HD
ENDBRANCH  22  23
BRANCH  18  27
ATOM     26  C   UNL     1      -1.392  10.421  18.478  0.00  0.00    +0.000 C 
ATOM     27  O   UNL     1      -1.572  10.004  19.822  0.00  0.00    +0.000 OA
ENDBRANCH  18  27
ENDBRANCH   1  20
BRANCH  10  28
ATOM     28  C   UNL     1       6.073   4.028  16.017  0.00  0.00    +0.000 C 
ATOM     29  O   UNL     1       5.714   3.112  15.292  0.00  0.00    +0.000 OA
BRANCH  28  30
ATOM     30  O   UNL     1       7.365   4.413  16.099  0.00  0.00    +0.000 OA
ATOM     31  H   UNL     1       7.930   3.837  16.672  0.00  0.00    +0.000 HD
ENDBRANCH  28  30
ENDBRANCH  10  28
TORSDOF 5
ENDMDL
MODEL 3
REMARK VINA RESULT:      -6.7      9.233     11.784
REMARK  Name = 
REMARK  6 active torsions:
REMARK  status: ('A' for Active; 'I' for Inactive)
REMARK    1  A    between atoms: C_1  and  O_2
REMARK    2  A    between atoms: O_2  and  C_3
REMARK    3  A    between atoms: N_5  and  C_6
REMARK    4  A    between atoms: C_15  and  C_16
REMARK    5  A    between atoms: C_16  and  O_18
REMARK    6  A    between atoms: C_27  and  N_28
REMARK                            x       y       z     vdW  Elec       q    Type
REMARK                         _______ _______ _______ _____ _____    ______ ____
ROOT
ATOM      1  C   UNL     1       9.812  13.333  19.489  0.00  0.00    +0.000 A 
ATOM      2  N   UNL     1       8.746  14.062  19.902  0.00  0.00    +0.000 NA
ATOM      3  C   UNL     1       8.008  13.678  20.978  0.00  0.00    +0.000 A 
ATOM      4  C   UNL     1       8.405  12.565  21.730  0.00  0.00    +0.000 A 
ATOM      5  C   UNL     1       9.512  11.816  21.341  0.00  0.00    +0.000 A 
ATOM      6  C   UNL     1      10.199  12.196  20.203  0.00  0.00    +0.000 A 
ATOM      7  F   UNL     1      11.266  11.470  19.832  0.00  0.00    +0.000 F 
ATOM      8  C   UNL     1       7.671  12.181  22.949  0.00  0.00    +0.000 A 
ATOM      9  O   UNL     1       8.013  11.207  23.620  0.00  0.00    +0.000 OA
ATOM     10  C   UNL     1       6.514  12.996  23.356  0.00  0.00    +0.000 A 
ATOM     11  C   UNL     1       6.199  14.028  22.564  0.00  0.00    +0.000 A 
ATOM     12  N   UNL     1       6.834  14.408  21.378  0.00  0.00    +0.000 N 
ATOM     13  C   UNL     1       6.374  15.494  20.654  0.00  0.00    +0.000 A 
ATOM     14  N   UNL     1       5.804  16.553  21.207  0.00  0.00    +0.000 NA
ATOM     15  C   UNL     1       5.460  17.494  20.258  0.00  0.00    +0.000 A 
ATOM     16  C   UNL     1       5.700  17.135  18.954  0.00  0.00    +0.000 A 
ATOM     17  S   UNL     1       6.344  15.557  18.908  0.00  0.00    +0.000 S 
ENDROOT
BRANCH   1  20
ATOM     18  C   UNL     1      11.373  15.547  17.031  0.00  0.00    +0.000 C 
ATOM     19  C   UNL     1      10.077  14.945  17.630  0.00  0.00    +0.000 C 
ATOM     20  N   UNL     1      10.526  13.768  18.395  0.00  0.00    +0.000 N 
ATOM     21  C   UNL     1      11.985  13.674  18.354  0.00  0.00    +0.000 C 
ATOM     22  C   UNL     1      12.315  14.323  16.985  0.00  0.00    +0.000 C 
BRANCH  22  23
ATOM     23  N   UNL     1      11.993  13.415  15.856  0.00  0.00    +0.000 NA
ATOM     24  H   UNL     1      12.590  13.685  15.068  0.00  0.00    +0.000 HD
ATOM     25  H   UNL     1      11.050  13.634  15.530  0.00  0.00    +0.000 HD
ENDBRANCH  22  23
BRANCH  18  27
ATOM     26  C   UNL     1      11.097  17.509  18.384  0.00  0.00    +0.000 C 
ATOM     27  O   UNL     1      11.993  16.531  17.879  0.00  0.00    +0.000 OA
ENDBRANCH  18  27
ENDBRANCH   1  20
BRANCH  10  28
ATOM     28  C   UNL     1       5.702  12.708  24.558  0.00  0.00    +0.000 C 
ATOM     29  O   UNL     1       5.204  13.580  25.255  0.00  0.00    +0.000 OA
BRANCH  28  30
ATOM     30  O   UNL     1       5.537  11.394  24.827  0.00  0.00    +0.000 OA
ATOM     31  H   UNL     1       6.147  11.037  25.519  0.00  0.00    +0.000 HD
ENDBRANCH  28  30
ENDBRANCH  10  28
TORSDOF 5
ENDMDL
MODEL 4
REMARK VINA RESULT:      -6.6      1.271      1.538
REMARK  Name = 
REMARK  6 active torsions:
REMARK  status: ('A' for Active; 'I' for Inactive)
REMARK    1  A    between atoms: C_1  and  O_2
REMARK    2  A    between atoms: O_2  and  C_3
REMARK    3  A    between atoms: N_5  and  C_6
REMARK    4  A    between atoms: C_15  and  C_16
REMARK    5  A    between atoms: C_16  and  O_18
REMARK    6  A    between atoms: C_27  and  N_28
REMARK                            x       y       z     vdW  Elec       q    Type
REMARK                         _______ _______ _______ _____ _____    ______ ____
ROOT
ATOM      1  C   UNL     1       1.982   8.104  18.868  0.00  0.00    +0.000 A 
ATOM      2  N   UNL     1       2.355   6.842  19.193  0.00  0.00    +0.000 NA
ATOM      3  C   UNL     1       3.334   6.199  18.499  0.00  0.00    +0.000 A 
ATOM      4  C   UNL     1       4.033   6.879  17.495  0.00  0.00    +0.000 A 
ATOM      5  C   UNL     1       3.685   8.185  17.161  0.00  0.00    +0.000 A 
ATOM      6  C   UNL     1       2.641   8.785  17.841  0.00  0.00    +0.000 A 
ATOM      7  F   UNL     1       2.309  10.044  17.515  0.00  0.00    +0.000 F 
ATOM      8  C   UNL     1       5.153   6.232  16.789  0.00  0.00    +0.000 A 
ATOM      9  O   UNL     1       5.778   6.821  15.907  0.00  0.00    +0.000 OA
ATOM     10  C   UNL     1       5.519   4.857  17.168  0.00  0.00    +0.000 A 
ATOM     11  C   UNL     1       4.781   4.282  18.126  0.00  0.00    +0.000 A 
ATOM     12  N   UNL     1       3.684   4.835  18.794  0.00  0.00    +0.000 N 
ATOM     13  C   UNL     1       3.005   4.102  19.751  0.00  0.00    +0.000 A 
ATOM     14  N   UNL     1       3.584   3.199  20.526  0.00  0.00    +0.000 NA
ATOM     15  C   UNL     1       2.681   2.634  21.405  0.00  0.00    +0.000 A 
ATOM     16  C   UNL     1       1.379   3.049  21.263  0.00  0.00    +0.000 A 
ATOM     17  S   UNL     1       1.273   4.156  19.970  0.00  0.00    +0.000 S 
ENDROOT
BRANCH   1  20
ATOM     18  C   UNL     1      -0.281   8.909  21.627  0.00  0.00    +0.000 C 
ATOM     19  C   UNL     1       0.146   7.916  20.517  0.00  0.00    +0.000 C 
ATOM     20  N   UNL     1       0.988   8.709  19.604  0.00  0.00    +0.000 N 
ATOM     21  C   UNL     1       1.148  10.066  20.126  0.00  0.00    +0.000 C 
ATOM     22  C   UNL     1      -0.175  10.272  20.908  0.00  0.00    +0.000 C 
BRANCH  22  23
ATOM     23  N   UNL     1      -1.320  10.510  19.994  0.00  0.00    +0.000 NA
ATOM     24  H   UNL     1      -0.955  10.993  19.167  0.00  0.00    +0.000 HD
ATOM     25  H   UNL     1      -1.935  11.202  20.426  0.00  0.00    +0.000 HD
ENDBRANCH  22  23
BRANCH  18  27
ATOM     26  C   UNL     1       0.108   9.603  23.890  0.00  0.00    +0.000 C 
ATOM     27  O   UNL     1       0.625   8.944  22.745  0.00  0.00    +0.000 OA
ENDBRANCH  18  27
ENDBRANCH   1  20
BRANCH  10  28
ATOM     28  C   UNL     1       6.622   4.107  16.531  0.00  0.00    +0.000 C 
ATOM     29  O   UNL     1       7.801   4.295  16.795  0.00  0.00    +0.000 OA
BRANCH  28  30
ATOM     30  O   UNL     1       6.229   3.178  15.632  0.00  0.00    +0.000 OA
ATOM     31  H   UNL     1       6.845   3.058  14.868  0.00  0.00    +0.000 HD
ENDBRANCH  28  30
ENDBRANCH  10  28
TORSDOF 5
ENDMDL
MODEL 5
REMARK VINA RESULT:      -6.4      7.676     10.056
REMARK  Name = 
REMARK  6 active torsions:
REMARK  status: ('A' for Active; 'I' for Inactive)
REMARK    1  A    between atoms: C_1  and  O_2
REMARK    2  A    between atoms: O_2  and  C_3
REMARK    3  A    between atoms: N_5  and  C_6
REMARK    4  A    between atoms: C_15  and  C_16
REMARK    5  A    between atoms: C_16  and  O_18
REMARK    6  A    between atoms: C_27  and  N_28
REMARK                            x       y       z     vdW  Elec       q    Type
REMARK                         _______ _______ _______ _____ _____    ______ ____
ROOT
ATOM      1  C   UNL     1      -0.727  13.319  19.952  0.00  0.00    +0.000 A 
ATOM      2  N   UNL     1      -1.692  12.741  19.195  0.00  0.00    +0.000 NA
ATOM      3  C   UNL     1      -2.936  12.512  19.698  0.00  0.00    +0.000 A 
ATOM      4  C   UNL     1      -3.258  12.961  20.984  0.00  0.00    +0.000 A 
ATOM      5  C   UNL     1      -2.291  13.582  21.771  0.00  0.00    +0.000 A 
ATOM      6  C   UNL     1      -1.018  13.738  21.253  0.00  0.00    +0.000 A 
ATOM      7  F   UNL     1      -0.090  14.336  22.016  0.00  0.00    +0.000 F 
ATOM      8  C   UNL     1      -4.622  12.800  21.517  0.00  0.00    +0.000 A 
ATOM      9  O   UNL     1      -4.918  13.195  22.644  0.00  0.00    +0.000 OA
ATOM     10  C   UNL     1      -5.636  12.160  20.663  0.00  0.00    +0.000 A 
ATOM     11  C   UNL     1      -5.230  11.745  19.456  0.00  0.00    +0.000 A 
ATOM     12  N   UNL     1      -3.941  11.834  18.922  0.00  0.00    +0.000 N 
ATOM     13  C   UNL     1      -3.670  11.338  17.659  0.00  0.00    +0.000 A 
ATOM     14  N   UNL     1      -4.556  11.322  16.675  0.00  0.00    +0.000 NA
ATOM     15  C   UNL     1      -4.016  10.792  15.520  0.00  0.00    +0.000 A 
ATOM     16  C   UNL     1      -2.728  10.329  15.627  0.00  0.00    +0.000 A 
ATOM     17  S   UNL     1      -2.182  10.530  17.230  0.00  0.00    +0.000 S 
ENDROOT
BRANCH   1  20
ATOM     18  C   UNL     1       2.479  14.873  19.127  0.00  0.00    +0.000 C 
ATOM     19  C   UNL     1       0.935  14.885  19.000  0.00  0.00    +0.000 C 
ATOM     20  N   UNL     1       0.513  13.530  19.393  0.00  0.00    +0.000 N 
ATOM     21  C   UNL     1       1.676  12.747  19.811  0.00  0.00    +0.000 C 
ATOM     22  C   UNL     1       2.812  13.373  18.960  0.00  0.00    +0.000 C 
BRANCH  22  23
ATOM     23  N   UNL     1       2.738  12.941  17.542  0.00  0.00    +0.000 NA
ATOM     24  H   UNL     1       3.024  11.957  17.508  0.00  0.00    +0.000 HD
ATOM     25  H   UNL     1       3.472  13.424  17.023  0.00  0.00    +0.000 HD
ENDBRANCH  22  23
BRANCH  18  27
ATOM     26  C   UNL     1       2.311  16.428  20.945  0.00  0.00    +0.000 C 
ATOM     27  O   UNL     1       2.951  15.273  20.427  0.00  0.00    +0.000 OA
ENDBRANCH  18  27
ENDBRANCH   1  20
BRANCH  10  28
ATOM     28  C   UNL     1      -7.036  11.944  21.089  0.00  0.00    +0.000 C 
ATOM     29  O   UNL     1      -7.530  10.834  21.231  0.00  0.00    +0.000 OA
BRANCH  28  30
ATOM     30  O   UNL     1      -7.736  13.075  21.324  0.00  0.00    +0.000 OA
ATOM     31  H   UNL     1      -7.764  13.706  20.563  0.00  0.00    +0.000 HD
ENDBRANCH  28  30
ENDBRANCH  10  28
TORSDOF 5
ENDMDL
MODEL 6
REMARK VINA RESULT:      -6.4      3.107      4.574
REMARK  Name = 
REMARK  6 active torsions:
REMARK  status: ('A' for Active; 'I' for Inactive)
REMARK    1  A    between atoms: C_1  and  O_2
REMARK    2  A    between atoms: O_2  and  C_3
REMARK    3  A    between atoms: N_5  and  C_6
REMARK    4  A    between atoms: C_15  and  C_16
REMARK    5  A    between atoms: C_16  and  O_18
REMARK    6  A    between atoms: C_27  and  N_28
REMARK                            x       y       z     vdW  Elec       q    Type
REMARK                         _______ _______ _______ _____ _____    ______ ____
ROOT
ATOM      1  C   UNL     1       2.033   7.517  19.339  0.00  0.00    +0.000 A 
ATOM      2  N   UNL     1       2.873   6.795  18.557  0.00  0.00    +0.000 NA
ATOM      3  C   UNL     1       3.303   5.563  18.941  0.00  0.00    +0.000 A 
ATOM      4  C   UNL     1       2.803   4.988  20.115  0.00  0.00    +0.000 A 
ATOM      5  C   UNL     1       1.918   5.700  20.921  0.00  0.00    +0.000 A 
ATOM      6  C   UNL     1       1.555   6.976  20.535  0.00  0.00    +0.000 A 
ATOM      7  F   UNL     1       0.702   7.659  21.316  0.00  0.00    +0.000 F 
ATOM      8  C   UNL     1       3.189   3.621  20.507  0.00  0.00    +0.000 A 
ATOM      9  O   UNL     1       2.752   3.103  21.535  0.00  0.00    +0.000 OA
ATOM     10  C   UNL     1       4.110   2.875  19.633  0.00  0.00    +0.000 A 
ATOM     11  C   UNL     1       4.551   3.514  18.541  0.00  0.00    +0.000 A 
ATOM     12  N   UNL     1       4.250   4.823  18.149  0.00  0.00    +0.000 N 
ATOM     13  C   UNL     1       4.805   5.354  16.998  0.00  0.00    +0.000 A 
ATOM     14  N   UNL     1       5.104   4.631  15.931  0.00  0.00    +0.000 NA
ATOM     15  C   UNL     1       5.625   5.415  14.920  0.00  0.00    +0.000 A 
ATOM     16  C   UNL     1       5.797   6.742  15.230  0.00  0.00    +0.000 A 
ATOM     17  S   UNL     1       5.325   7.014  16.846  0.00  0.00    +0.000 S 
ENDROOT
BRANCH   1  20
ATOM     18  C   UNL     1      -0.047  10.194  17.965  0.00  0.00    +0.000 C 
ATOM     19  C   UNL     1       0.747   8.885  17.727  0.00  0.00    +0.000 C 
ATOM     20  N   UNL     1       1.627   8.758  18.902  0.00  0.00    +0.000 N 
ATOM     21  C   UNL     1       1.361   9.845  19.844  0.00  0.00    +0.000 C 
ATOM     22  C   UNL     1       0.894  10.985  18.902  0.00  0.00    +0.000 C 
BRANCH  22  23
ATOM     23  N   UNL     1       2.032  11.590  18.165  0.00  0.00    +0.000 NA
ATOM     24  H   UNL     1       2.875  11.435  18.727  0.00  0.00    +0.000 HD
ATOM     25  H   UNL     1       1.917  12.604  18.177  0.00  0.00    +0.000 HD
ENDBRANCH  22  23
BRANCH  18  27
ATOM     26  C   UNL     1      -2.435   9.995  17.843  0.00  0.00    +0.000 C 
ATOM     27  O   UNL     1      -1.284   9.993  18.674  0.00  0.00    +0.000 OA
ENDBRANCH  18  27
ENDBRANCH   1  20
BRANCH  10  28
ATOM     28  C   UNL     1       4.568   1.499  19.921  0.00  0.00    +0.000 C 
ATOM     29  O   UNL     1       5.198   1.199  20.926  0.00  0.00    +0.000 OA
BRANCH  28  30
ATOM     30  O   UNL     1       4.226   0.583  18.990  0.00  0.00    +0.000 OA
ATOM     31  H   UNL     1       3.283   0.288  19.029  0.00  0.00    +0.000 HD
ENDBRANCH  28  30
ENDBRANCH  10  28
TORSDOF 5
ENDMDL
MODEL 7
REMARK VINA RESULT:      -6.4      7.914      9.365
REMARK  Name = 
REMARK  6 active torsions:
REMARK  status: ('A' for Active; 'I' for Inactive)
REMARK    1  A    between atoms: C_1  and  O_2
REMARK    2  A    between atoms: O_2  and  C_3
REMARK    3  A    between atoms: N_5  and  C_6
REMARK    4  A    between atoms: C_15  and  C_16
REMARK    5  A    between atoms: C_16  and  O_18
REMARK    6  A    between atoms: C_27  and  N_28
REMARK                            x       y       z     vdW  Elec       q    Type
REMARK                         _______ _______ _______ _____ _____    ______ ____
ROOT
ATOM      1  C   UNL     1      -4.096  13.607  21.885  0.00  0.00    +0.000 A 
ATOM      2  N   UNL     1      -2.955  13.472  21.165  0.00  0.00    +0.000 NA
ATOM      3  C   UNL     1      -2.938  12.759  20.006  0.00  0.00    +0.000 A 
ATOM      4  C   UNL     1      -4.131  12.232  19.498  0.00  0.00    +0.000 A 
ATOM      5  C   UNL     1      -5.320  12.380  20.207  0.00  0.00    +0.000 A 
ATOM      6  C   UNL     1      -5.289  13.053  21.415  0.00  0.00    +0.000 A 
ATOM      7  F   UNL     1      -6.438  13.193  22.095  0.00  0.00    +0.000 F 
ATOM      8  C   UNL     1      -4.151  11.529  18.202  0.00  0.00    +0.000 A 
ATOM      9  O   UNL     1      -5.195  11.065  17.744  0.00  0.00    +0.000 OA
ATOM     10  C   UNL     1      -2.889  11.399  17.457  0.00  0.00    +0.000 A 
ATOM     11  C   UNL     1      -1.796  11.918  18.031  0.00  0.00    +0.000 A 
ATOM     12  N   UNL     1      -1.716  12.553  19.274  0.00  0.00    +0.000 N 
ATOM     13  C   UNL     1      -0.501  13.021  19.745  0.00  0.00    +0.000 A 
ATOM     14  N   UNL     1       0.464  13.468  18.957  0.00  0.00    +0.000 NA
ATOM     15  C   UNL     1       1.556  13.891  19.689  0.00  0.00    +0.000 A 
ATOM     16  C   UNL     1       1.467  13.706  21.047  0.00  0.00    +0.000 A 
ATOM     17  S   UNL     1      -0.014  12.948  21.420  0.00  0.00    +0.000 S 
ENDROOT
BRANCH   1  20
ATOM     18  C   UNL     1      -3.114  14.782  25.207  0.00  0.00    +0.000 C 
ATOM     19  C   UNL     1      -3.780  13.685  24.339  0.00  0.00    +0.000 C 
ATOM     20  N   UNL     1      -4.058  14.341  23.049  0.00  0.00    +0.000 N 
ATOM     21  C   UNL     1      -3.544  15.711  23.066  0.00  0.00    +0.000 C 
ATOM     22  C   UNL     1      -3.653  16.081  24.568  0.00  0.00    +0.000 C 
BRANCH  22  23
ATOM     23  N   UNL     1      -5.057  16.356  24.964  0.00  0.00    +0.000 NA
ATOM     24  H   UNL     1      -5.056  17.228  25.503  0.00  0.00    +0.000 HD
ATOM     25  H   UNL     1      -5.340  15.651  25.647  0.00  0.00    +0.000 HD
ENDBRANCH  22  23
BRANCH  18  27
ATOM     26  C   UNL     1      -1.059  15.834  25.857  0.00  0.00    +0.000 C 
ATOM     27  O   UNL     1      -1.680  14.812  25.093  0.00  0.00    +0.000 OA
ENDBRANCH  18  27
ENDBRANCH   1  20
BRANCH  10  28
ATOM     28  C   UNL     1      -2.785  10.716  16.149  0.00  0.00    +0.000 C 
ATOM     29  O   UNL     1      -2.233   9.635  16.000  0.00  0.00    +0.000 OA
BRANCH  28  30
ATOM     30  O   UNL     1      -3.362  11.374  15.121  0.00  0.00    +0.000 OA
ATOM     31  H   UNL     1      -4.347  11.294  15.082  0.00  0.00    +0.000 HD
ENDBRANCH  28  30
ENDBRANCH  10  28
TORSDOF 5
ENDMDL
MODEL 8
REMARK VINA RESULT:      -6.3      7.725     10.553
REMARK  Name = 
REMARK  6 active torsions:
REMARK  status: ('A' for Active; 'I' for Inactive)
REMARK    1  A    between atoms: C_1  and  O_2
REMARK    2  A    between atoms: O_2  and  C_3
REMARK    3  A    between atoms: N_5  and  C_6
REMARK    4  A    between atoms: C_15  and  C_16
REMARK    5  A    between atoms: C_16  and  O_18
REMARK    6  A    between atoms: C_27  and  N_28
REMARK                            x       y       z     vdW  Elec       q    Type
REMARK                         _______ _______ _______ _____ _____    ______ ____
ROOT
ATOM      1  C   UNL     1      -0.412  13.565  20.547  0.00  0.00    +0.000 A 
ATOM      2  N   UNL     1      -1.636  13.187  20.103  0.00  0.00    +0.000 NA
ATOM      3  C   UNL     1      -2.690  13.082  20.957  0.00  0.00    +0.000 A 
ATOM      4  C   UNL     1      -2.537  13.456  22.297  0.00  0.00    +0.000 A 
ATOM      5  C   UNL     1      -1.296  13.872  22.771  0.00  0.00    +0.000 A 
ATOM      6  C   UNL     1      -0.230  13.903  21.891  0.00  0.00    +0.000 A 
ATOM      7  F   UNL     1       0.965  14.305  22.352  0.00  0.00    +0.000 F 
ATOM      8  C   UNL     1      -3.686  13.431  23.220  0.00  0.00    +0.000 A 
ATOM      9  O   UNL     1      -3.564  13.762  24.400  0.00  0.00    +0.000 OA
ATOM     10  C   UNL     1      -4.995  13.007  22.698  0.00  0.00    +0.000 A 
ATOM     11  C   UNL     1      -5.040  12.649  21.408  0.00  0.00    +0.000 A 
ATOM     12  N   UNL     1      -3.973  12.614  20.504  0.00  0.00    +0.000 N 
ATOM     13  C   UNL     1      -4.174  12.198  19.200  0.00  0.00    +0.000 A 
ATOM     14  N   UNL     1      -5.307  12.385  18.540  0.00  0.00    +0.000 NA
ATOM     15  C   UNL     1      -5.228  11.891  17.253  0.00  0.00    +0.000 A 
ATOM     16  C   UNL     1      -4.053  11.254  16.935  0.00  0.00    +0.000 A 
ATOM     17  S   UNL     1      -3.027  11.241  18.296  0.00  0.00    +0.000 S 
ENDROOT
BRANCH   1  20
ATOM     18  C   UNL     1       2.389  14.907  18.615  0.00  0.00    +0.000 C 
ATOM     19  C   UNL     1       0.870  14.918  18.918  0.00  0.00    +0.000 C 
ATOM     20  N   UNL     1       0.620  13.658  19.640  0.00  0.00    +0.000 N 
ATOM     21  C   UNL     1       1.880  12.944  19.848  0.00  0.00    +0.000 C 
ATOM     22  C   UNL     1       2.716  13.396  18.623  0.00  0.00    +0.000 C 
BRANCH  22  23
ATOM     23  N   UNL     1       2.272  12.724  17.377  0.00  0.00    +0.000 NA
ATOM     24  H   UNL     1       2.086  13.456  16.685  0.00  0.00    +0.000 HD
ATOM     25  H   UNL     1       1.353  12.313  17.547  0.00  0.00    +0.000 HD
ENDBRANCH  22  23
BRANCH  18  27
ATOM     26  C   UNL     1       2.785  16.842  19.975  0.00  0.00    +0.000 C 
ATOM     27  O   UNL     1       3.185  15.522  19.645  0.00  0.00    +0.000 OA
ENDBRANCH  18  27
ENDBRANCH   1  20
BRANCH  10  28
ATOM     28  C   UNL     1      -6.217  12.942  23.528  0.00  0.00    +0.000 C 
ATOM     29  O   UNL     1      -6.962  11.972  23.549  0.00  0.00    +0.000 OA
BRANCH  28  30
ATOM     30  O   UNL     1      -6.450  14.040  24.279  0.00  0.00    +0.000 OA
ATOM     31  H   UNL     1      -6.988  13.875  25.093  0.00  0.00    +0.000 HD
ENDBRANCH  28  30
ENDBRANCH  10  28
TORSDOF 5
ENDMDL
MODEL 9
REMARK VINA RESULT:      -6.3      9.596     12.263
REMARK  Name = 
REMARK  6 active torsions:
REMARK  status: ('A' for Active; 'I' for Inactive)
REMARK    1  A    between atoms: C_1  and  O_2
REMARK    2  A    between atoms: O_2  and  C_3
REMARK    3  A    between atoms: N_5  and  C_6
REMARK    4  A    between atoms: C_15  and  C_16
REMARK    5  A    between atoms: C_16  and  O_18
REMARK    6  A    between atoms: C_27  and  N_28
REMARK                            x       y       z     vdW  Elec       q    Type
REMARK                         _______ _______ _______ _____ _____    ______ ____
ROOT
ATOM      1  C   UNL     1       9.903  13.328  19.673  0.00  0.00    +0.000 A 
ATOM      2  N   UNL     1       9.197  14.252  20.370  0.00  0.00    +0.000 NA
ATOM      3  C   UNL     1       8.507  13.908  21.491  0.00  0.00    +0.000 A 
ATOM      4  C   UNL     1       8.598  12.603  21.989  0.00  0.00    +0.000 A 
ATOM      5  C   UNL     1       9.338  11.643  21.304  0.00  0.00    +0.000 A 
ATOM      6  C   UNL     1       9.972  12.010  20.131  0.00  0.00    +0.000 A 
ATOM      7  F   UNL     1      10.684  11.080  19.475  0.00  0.00    +0.000 F 
ATOM      8  C   UNL     1       7.928  12.229  23.247  0.00  0.00    +0.000 A 
ATOM      9  O   UNL     1       8.004  11.086  23.697  0.00  0.00    +0.000 OA
ATOM     10  C   UNL     1       7.166  13.262  23.968  0.00  0.00    +0.000 A 
ATOM     11  C   UNL     1       7.120  14.477  23.406  0.00  0.00    +0.000 A 
ATOM     12  N   UNL     1       7.699  14.869  22.195  0.00  0.00    +0.000 N 
ATOM     13  C   UNL     1       7.544  16.164  21.731  0.00  0.00    +0.000 A 
ATOM     14  N   UNL     1       7.429  17.216  22.527  0.00  0.00    +0.000 NA
ATOM     15  C   UNL     1       7.307  18.385  21.803  0.00  0.00    +0.000 A 
ATOM     16  C   UNL     1       7.257  18.233  20.439  0.00  0.00    +0.000 A 
ATOM     17  S   UNL     1       7.330  16.575  20.048  0.00  0.00    +0.000 S 
ENDROOT
BRANCH   1  20
ATOM     18  C   UNL     1      11.347  15.464  17.078  0.00  0.00    +0.000 C 
ATOM     19  C   UNL     1      10.083  14.847  17.727  0.00  0.00    +0.000 C 
ATOM     20  N   UNL     1      10.585  13.730  18.547  0.00  0.00    +0.000 N 
ATOM     21  C   UNL     1      12.046  13.687  18.489  0.00  0.00    +0.000 C 
ATOM     22  C   UNL     1      12.333  14.274  17.082  0.00  0.00    +0.000 C 
BRANCH  22  23
ATOM     23  N   UNL     1      12.030  13.296  16.007  0.00  0.00    +0.000 NA
ATOM     24  H   UNL     1      11.869  12.389  16.457  0.00  0.00    +0.000 HD
ATOM     25  H   UNL     1      12.880  13.148  15.462  0.00  0.00    +0.000 HD
ENDBRANCH  22  23
BRANCH  18  27
ATOM     26  C   UNL     1      11.579  17.822  17.451  0.00  0.00    +0.000 C 
ATOM     27  O   UNL     1      11.941  16.513  17.864  0.00  0.00    +0.000 OA
ENDBRANCH  18  27
ENDBRANCH   1  20
BRANCH  10  28
ATOM     28  C   UNL     1       6.453  13.007  25.238  0.00  0.00    +0.000 C 
ATOM     29  O   UNL     1       7.019  12.677  26.270  0.00  0.00    +0.000 OA
BRANCH  28  30
ATOM     30  O   UNL     1       5.114  13.177  25.179  0.00  0.00    +0.000 OA
ATOM     31  H   UNL     1       4.588  12.353  25.331  0.00  0.00    +0.000 HD
ENDBRANCH  28  30
ENDBRANCH  10  28
TORSDOF 5
ENDMDL
