MODEL 1
REMARK VINA RESULT:      -8.4      0.000      0.000
REMARK  Name = 
REMARK  9 active torsions:
REMARK  status: ('A' for Active; 'I' for Inactive)
REMARK    1  A    between atoms: C_1  and  N_2
REMARK    2  A    between atoms: N_2  and  C_3
REMARK    3  A    between atoms: C_3  and  C_4
REMARK    4  A    between atoms: C_4  and  C_5
REMARK    5  A    between atoms: C_13  and  O_14
REMARK    6  A    between atoms: O_14  and  C_15
REMARK    7  A    between atoms: C_22  and  C_23
REMARK    8  A    between atoms: N_25  and  C_26
REMARK    9  A    between atoms: C_26  and  C_27
REMARK                            x       y       z     vdW  Elec       q    Type
REMARK                         _______ _______ _______ _____ _____    ______ ____
ROOT
ATOM      1  C   UNL     1       6.875   7.554  17.028  0.00  0.00    +0.000 C 
ATOM      2  N   UNL     1       6.317   6.247  17.317  0.00  0.00    +0.000 N 
ATOM      3  C   UNL     1       4.948   6.215  17.540  0.00  0.00    +0.000 A 
ATOM      4  N   UNL     1       4.345   5.030  17.667  0.00  0.00    +0.000 NA
ATOM      5  C   UNL     1       3.037   5.003  17.971  0.00  0.00    +0.000 A 
ATOM      6  C   UNL     1       2.288   6.122  18.200  0.00  0.00    +0.000 A 
ATOM      7  C   UNL     1       2.968   7.296  18.004  0.00  0.00    +0.000 A 
ATOM      8  N   UNL     1       4.279   7.371  17.668  0.00  0.00    +0.000 NA
ENDROOT
BRANCH   7   9
ATOM      9  C   UNL     1       2.252   8.610  18.137  0.00  0.00    +0.000 C 
ATOM     10  O   UNL     1       2.356   9.478  17.271  0.00  0.00    +0.000 OA
ATOM     11  N   UNL     1       1.507   8.762  19.285  0.00  0.00    +0.000 N 
ATOM     12  H   UNL     1       1.535   8.000  19.958  0.00  0.00    +0.000 HD
BRANCH  11  13
ATOM     13  C   UNL     1       0.833  10.000  19.602  0.00  0.00    +0.000 C 
BRANCH  13  14
ATOM     14  C   UNL     1      -0.255   9.765  20.601  0.00  0.00    +0.000 C 
ATOM     15  C   UNL     1      -0.149   8.678  21.643  0.00  0.00    +0.000 C 
ATOM     16  C   UNL     1      -0.044  10.119  22.057  0.00  0.00    +0.000 C 
ENDBRANCH  13  14
ENDBRANCH  11  13
ENDBRANCH   7   9
BRANCH   2  17
ATOM     17  C   UNL     1       6.970   5.001  16.891  0.00  0.00    +0.000 C 
BRANCH  17  18
ATOM     18  C   UNL     1       6.098   4.187  15.923  0.00  0.00    +0.000 C 
BRANCH  18  19
ATOM     19  C   UNL     1       6.540   4.281  14.483  0.00  0.00    +0.000 A 
ATOM     20  C   UNL     1       5.960   3.458  13.509  0.00  0.00    +0.000 A 
ATOM     21  C   UNL     1       6.342   3.571  12.170  0.00  0.00    +0.000 A 
ATOM     22  C   UNL     1       7.309   4.500  11.797  0.00  0.00    +0.000 A 
ATOM     23  C   UNL     1       7.901   5.315  12.761  0.00  0.00    +0.000 A 
ATOM     24  C   UNL     1       7.521   5.205  14.099  0.00  0.00    +0.000 A 
ENDBRANCH  18  19
ENDBRANCH  17  18
ENDBRANCH   2  17
BRANCH   5  25
ATOM     25  O   UNL     1       2.407   3.770  18.104  0.00  0.00    +0.000 OA
BRANCH  25  26
ATOM     26  C   UNL     1       2.251   3.267  19.376  0.00  0.00    +0.000 A 
ATOM     27  C   UNL     1       1.036   3.254  20.066  0.00  0.00    +0.000 A 
ATOM     28  C   UNL     1       0.992   2.761  21.369  0.00  0.00    +0.000 A 
ATOM     29  C   UNL     1       2.173   2.325  21.950  0.00  0.00    +0.000 A 
ATOM     30  N   UNL     1       3.371   2.351  21.325  0.00  0.00    +0.000 NA
ATOM     31  C   UNL     1       3.379   2.822  20.050  0.00  0.00    +0.000 A 
ENDBRANCH  25  26
ENDBRANCH   5  25
TORSDOF 8
ENDMDL
MODEL 2
REMARK VINA RESULT:      -8.3      0.898      1.448
REMARK  Name = 
REMARK  9 active torsions:
REMARK  status: ('A' for Active; 'I' for Inactive)
REMARK    1  A    between atoms: C_1  and  N_2
REMARK    2  A    between atoms: N_2  and  C_3
REMARK    3  A    between atoms: C_3  and  C_4
REMARK    4  A    between atoms: C_4  and  C_5
REMARK    5  A    between atoms: C_13  and  O_14
REMARK    6  A    between atoms: O_14  and  C_15
REMARK    7  A    between atoms: C_22  and  C_23
REMARK    8  A    between atoms: N_25  and  C_26
REMARK    9  A    between atoms: C_26  and  C_27
REMARK                            x       y       z     vdW  Elec       q    Type
REMARK                         _______ _______ _______ _____ _____    ______ ____
ROOT
ATOM      1  C   UNL     1       6.665   7.625  16.985  0.00  0.00    +0.000 C 
ATOM      2  N   UNL     1       6.043   6.348  17.274  0.00  0.00    +0.000 N 
ATOM      3  C   UNL     1       4.677   6.385  17.513  0.00  0.00    +0.000 A 
ATOM      4  N   UNL     1       4.015   5.232  17.642  0.00  0.00    +0.000 NA
ATOM      5  C   UNL     1       2.710   5.272  17.962  0.00  0.00    +0.000 A 
ATOM      6  C   UNL     1       2.024   6.428  18.206  0.00  0.00    +0.000 A 
ATOM      7  C   UNL     1       2.762   7.566  18.006  0.00  0.00    +0.000 A 
ATOM      8  N   UNL     1       4.070   7.574  17.655  0.00  0.00    +0.000 NA
ENDROOT
BRANCH   7   9
ATOM      9  C   UNL     1       2.117   8.914  18.154  0.00  0.00    +0.000 C 
ATOM     10  O   UNL     1       2.254   9.780  17.291  0.00  0.00    +0.000 OA
ATOM     11  N   UNL     1       1.396   9.099  19.312  0.00  0.00    +0.000 N 
ATOM     12  H   UNL     1       1.393   8.334  19.982  0.00  0.00    +0.000 HD
BRANCH  11  13
ATOM     13  C   UNL     1       0.791  10.369  19.644  0.00  0.00    +0.000 C 
BRANCH  13  14
ATOM     14  C   UNL     1      -0.664  10.365  19.297  0.00  0.00    +0.000 C 
ATOM     15  C   UNL     1      -1.596  11.446  19.790  0.00  0.00    +0.000 C 
ATOM     16  C   UNL     1      -1.222  11.391  18.335  0.00  0.00    +0.000 C 
ENDBRANCH  13  14
ENDBRANCH  11  13
ENDBRANCH   7   9
BRANCH   2  17
ATOM     17  C   UNL     1       6.625   5.071  16.835  0.00  0.00    +0.000 C 
BRANCH  17  18
ATOM     18  C   UNL     1       7.496   5.229  15.579  0.00  0.00    +0.000 C 
BRANCH  18  19
ATOM     19  C   UNL     1       6.873   4.649  14.333  0.00  0.00    +0.000 A 
ATOM     20  C   UNL     1       7.602   4.591  13.137  0.00  0.00    +0.000 A 
ATOM     21  C   UNL     1       7.040   4.021  11.994  0.00  0.00    +0.000 A 
ATOM     22  C   UNL     1       5.745   3.512  12.033  0.00  0.00    +0.000 A 
ATOM     23  C   UNL     1       5.007   3.576  13.214  0.00  0.00    +0.000 A 
ATOM     24  C   UNL     1       5.566   4.144  14.359  0.00  0.00    +0.000 A 
ENDBRANCH  18  19
ENDBRANCH  17  18
ENDBRANCH   2  17
BRANCH   5  25
ATOM     25  O   UNL     1       2.019   4.073  18.097  0.00  0.00    +0.000 OA
BRANCH  25  26
ATOM     26  C   UNL     1       2.040   3.459  19.329  0.00  0.00    +0.000 A 
ATOM     27  C   UNL     1       0.952   3.431  20.206  0.00  0.00    +0.000 A 
ATOM     28  C   UNL     1       1.091   2.818  21.450  0.00  0.00    +0.000 A 
ATOM     29  C   UNL     1       2.323   2.282  21.788  0.00  0.00    +0.000 A 
ATOM     30  N   UNL     1       3.405   2.317  20.979  0.00  0.00    +0.000 NA
ATOM     31  C   UNL     1       3.235   2.906  19.767  0.00  0.00    +0.000 A 
ENDBRANCH  25  26
ENDBRANCH   5  25
TORSDOF 8
ENDMDL
MODEL 3
REMARK VINA RESULT:      -7.8      2.297      8.032
REMARK  Name = 
REMARK  9 active torsions:
REMARK  status: ('A' for Active; 'I' for Inactive)
REMARK    1  A    between atoms: C_1  and  N_2
REMARK    2  A    between atoms: N_2  and  C_3
REMARK    3  A    between atoms: C_3  and  C_4
REMARK    4  A    between atoms: C_4  and  C_5
REMARK    5  A    between atoms: C_13  and  O_14
REMARK    6  A    between atoms: O_14  and  C_15
REMARK    7  A    between atoms: C_22  and  C_23
REMARK    8  A    between atoms: N_25  and  C_26
REMARK    9  A    between atoms: C_26  and  C_27
REMARK                            x       y       z     vdW  Elec       q    Type
REMARK                         _______ _______ _______ _____ _____    ______ ____
ROOT
ATOM      1  C   UNL     1       0.130   9.185  21.049  0.00  0.00    +0.000 C 
ATOM      2  N   UNL     1       1.099   9.471  20.008  0.00  0.00    +0.000 N 
ATOM      3  C   UNL     1       1.746   8.368  19.471  0.00  0.00    +0.000 A 
ATOM      4  N   UNL     1       2.542   8.543  18.412  0.00  0.00    +0.000 NA
ATOM      5  C   UNL     1       3.237   7.490  17.949  0.00  0.00    +0.000 A 
ATOM      6  C   UNL     1       3.210   6.251  18.525  0.00  0.00    +0.000 A 
ATOM      7  C   UNL     1       2.336   6.144  19.575  0.00  0.00    +0.000 A 
ATOM      8  N   UNL     1       1.594   7.170  20.057  0.00  0.00    +0.000 NA
ENDROOT
BRANCH   7   9
ATOM      9  C   UNL     1       2.136   4.819  20.254  0.00  0.00    +0.000 C 
ATOM     10  O   UNL     1       2.503   4.642  21.415  0.00  0.00    +0.000 OA
ATOM     11  N   UNL     1       1.543   3.845  19.484  0.00  0.00    +0.000 N 
ATOM     12  H   UNL     1       1.328   4.085  18.519  0.00  0.00    +0.000 HD
BRANCH  11  13
ATOM     13  C   UNL     1       1.363   2.494  19.963  0.00  0.00    +0.000 C 
BRANCH  13  14
ATOM     14  C   UNL     1       2.031   1.518  19.047  0.00  0.00    +0.000 C 
ATOM     15  C   UNL     1       2.664   1.960  17.749  0.00  0.00    +0.000 C 
ATOM     16  C   UNL     1       3.536   1.523  18.892  0.00  0.00    +0.000 C 
ENDBRANCH  13  14
ENDBRANCH  11  13
ENDBRANCH   7   9
BRANCH   2  17
ATOM     17  C   UNL     1       1.041  10.694  19.195  0.00  0.00    +0.000 C 
BRANCH  17  18
ATOM     18  C   UNL     1      -0.229  11.514  19.464  0.00  0.00    +0.000 C 
BRANCH  18  19
ATOM     19  C   UNL     1      -1.381  11.164  18.554  0.00  0.00    +0.000 A 
ATOM     20  C   UNL     1      -1.230  10.179  17.568  0.00  0.00    +0.000 A 
ATOM     21  C   UNL     1      -2.306   9.828  16.750  0.00  0.00    +0.000 A 
ATOM     22  C   UNL     1      -3.536  10.462  16.905  0.00  0.00    +0.000 A 
ATOM     23  C   UNL     1      -3.692  11.452  17.874  0.00  0.00    +0.000 A 
ATOM     24  C   UNL     1      -2.619  11.804  18.693  0.00  0.00    +0.000 A 
ENDBRANCH  18  19
ENDBRANCH  17  18
ENDBRANCH   2  17
BRANCH   5  25
ATOM     25  O   UNL     1       4.065   7.669  16.847  0.00  0.00    +0.000 OA
BRANCH  25  26
ATOM     26  C   UNL     1       5.071   6.750  16.649  0.00  0.00    +0.000 A 
ATOM     27  C   UNL     1       4.897   5.533  15.984  0.00  0.00    +0.000 A 
ATOM     28  C   UNL     1       5.971   4.652  15.875  0.00  0.00    +0.000 A 
ATOM     29  C   UNL     1       7.177   5.004  16.460  0.00  0.00    +0.000 A 
ATOM     30  N   UNL     1       7.374   6.158  17.136  0.00  0.00    +0.000 NA
ATOM     31  C   UNL     1       6.313   7.003  17.212  0.00  0.00    +0.000 A 
ENDBRANCH  25  26
ENDBRANCH   5  25
TORSDOF 8
ENDMDL
MODEL 4
REMARK VINA RESULT:      -7.7      2.716      7.477
REMARK  Name = 
REMARK  9 active torsions:
REMARK  status: ('A' for Active; 'I' for Inactive)
REMARK    1  A    between atoms: C_1  and  N_2
REMARK    2  A    between atoms: N_2  and  C_3
REMARK    3  A    between atoms: C_3  and  C_4
REMARK    4  A    between atoms: C_4  and  C_5
REMARK    5  A    between atoms: C_13  and  O_14
REMARK    6  A    between atoms: O_14  and  C_15
REMARK    7  A    between atoms: C_22  and  C_23
REMARK    8  A    between atoms: N_25  and  C_26
REMARK    9  A    between atoms: C_26  and  C_27
REMARK                            x       y       z     vdW  Elec       q    Type
REMARK                         _______ _______ _______ _____ _____    ______ ____
ROOT
ATOM      1  C   UNL     1       2.619  10.295  17.951  0.00  0.00    +0.000 C 
ATOM      2  N   UNL     1       1.914   9.030  17.885  0.00  0.00    +0.000 N 
ATOM      3  C   UNL     1       2.714   7.899  17.833  0.00  0.00    +0.000 A 
ATOM      4  N   UNL     1       2.135   6.697  17.916  0.00  0.00    +0.000 NA
ATOM      5  C   UNL     1       2.902   5.603  17.776  0.00  0.00    +0.000 A 
ATOM      6  C   UNL     1       4.241   5.643  17.511  0.00  0.00    +0.000 A 
ATOM      7  C   UNL     1       4.766   6.910  17.488  0.00  0.00    +0.000 A 
ATOM      8  N   UNL     1       4.037   8.040  17.653  0.00  0.00    +0.000 NA
ENDROOT
BRANCH   7   9
ATOM      9  C   UNL     1       6.241   7.108  17.291  0.00  0.00    +0.000 C 
ATOM     10  O   UNL     1       6.941   6.219  16.807  0.00  0.00    +0.000 OA
ATOM     11  N   UNL     1       6.733   8.327  17.702  0.00  0.00    +0.000 N 
ATOM     12  H   UNL     1       6.074   8.967  18.137  0.00  0.00    +0.000 HD
BRANCH  11  13
ATOM     13  C   UNL     1       8.143   8.637  17.662  0.00  0.00    +0.000 C 
BRANCH  13  14
ATOM     14  C   UNL     1       8.400   9.995  18.234  0.00  0.00    +0.000 C 
ATOM     15  C   UNL     1       9.354  10.199  19.386  0.00  0.00    +0.000 C 
ATOM     16  C   UNL     1       9.732  10.677  18.012  0.00  0.00    +0.000 C 
ENDBRANCH  13  14
ENDBRANCH  11  13
ENDBRANCH   7   9
BRANCH   2  17
ATOM     17  C   UNL     1       0.535   8.872  18.370  0.00  0.00    +0.000 C 
BRANCH  17  18
ATOM     18  C   UNL     1      -0.053  10.190  18.894  0.00  0.00    +0.000 C 
BRANCH  18  19
ATOM     19  C   UNL     1      -0.275  10.203  20.387  0.00  0.00    +0.000 A 
ATOM     20  C   UNL     1      -0.652  11.387  21.037  0.00  0.00    +0.000 A 
ATOM     21  C   UNL     1      -0.893  11.391  22.412  0.00  0.00    +0.000 A 
ATOM     22  C   UNL     1      -0.753  10.218  23.149  0.00  0.00    +0.000 A 
ATOM     23  C   UNL     1      -0.366   9.039  22.513  0.00  0.00    +0.000 A 
ATOM     24  C   UNL     1      -0.125   9.031  21.139  0.00  0.00    +0.000 A 
ENDBRANCH  18  19
ENDBRANCH  17  18
ENDBRANCH   2  17
BRANCH   5  25
ATOM     25  O   UNL     1       2.301   4.351  17.863  0.00  0.00    +0.000 OA
BRANCH  25  26
ATOM     26  C   UNL     1       2.252   3.752  19.102  0.00  0.00    +0.000 A 
ATOM     27  C   UNL     1       1.157   3.838  19.966  0.00  0.00    +0.000 A 
ATOM     28  C   UNL     1       1.224   3.230  21.218  0.00  0.00    +0.000 A 
ATOM     29  C   UNL     1       2.396   2.582  21.577  0.00  0.00    +0.000 A 
ATOM     30  N   UNL     1       3.484   2.506  20.780  0.00  0.00    +0.000 NA
ATOM     31  C   UNL     1       3.384   3.093  19.559  0.00  0.00    +0.000 A 
ENDBRANCH  25  26
ENDBRANCH   5  25
TORSDOF 8
ENDMDL
MODEL 5
REMARK VINA RESULT:      -7.7      2.921      5.539
REMARK  Name = 
REMARK  9 active torsions:
REMARK  status: ('A' for Active; 'I' for Inactive)
REMARK    1  A    between atoms: C_1  and  N_2
REMARK    2  A    between atoms: N_2  and  C_3
REMARK    3  A    between atoms: C_3  and  C_4
REMARK    4  A    between atoms: C_4  and  C_5
REMARK    5  A    between atoms: C_13  and  O_14
REMARK    6  A    between atoms: O_14  and  C_15
REMARK    7  A    between atoms: C_22  and  C_23
REMARK    8  A    between atoms: N_25  and  C_26
REMARK    9  A    between atoms: C_26  and  C_27
REMARK                            x       y       z     vdW  Elec       q    Type
REMARK                         _______ _______ _______ _____ _____    ______ ____
ROOT
ATOM      1  C   UNL     1       0.604   7.657  21.685  0.00  0.00    +0.000 C 
ATOM      2  N   UNL     1       1.351   6.851  20.740  0.00  0.00    +0.000 N 
ATOM      3  C   UNL     1       1.922   7.542  19.681  0.00  0.00    +0.000 A 
ATOM      4  N   UNL     1       2.743   6.888  18.855  0.00  0.00    +0.000 NA
ATOM      5  C   UNL     1       3.223   7.536  17.780  0.00  0.00    +0.000 A 
ATOM      6  C   UNL     1       2.890   8.820  17.456  0.00  0.00    +0.000 A 
ATOM      7  C   UNL     1       2.083   9.434  18.378  0.00  0.00    +0.000 A 
ATOM      8  N   UNL     1       1.598   8.830  19.490  0.00  0.00    +0.000 NA
ENDROOT
BRANCH   7   9
ATOM      9  C   UNL     1       1.700  10.876  18.200  0.00  0.00    +0.000 C 
ATOM     10  O   UNL     1       2.541  11.721  17.898  0.00  0.00    +0.000 OA
ATOM     11  N   UNL     1       0.371  11.164  18.414  0.00  0.00    +0.000 N 
ATOM     12  H   UNL     1      -0.226  10.396  18.711  0.00  0.00    +0.000 HD
BRANCH  11  13
ATOM     13  C   UNL     1      -0.137  12.516  18.368  0.00  0.00    +0.000 C 
BRANCH  13  14
ATOM     14  C   UNL     1      -0.179  13.108  19.741  0.00  0.00    +0.000 C 
ATOM     15  C   UNL     1      -0.106  14.600  19.959  0.00  0.00    +0.000 C 
ATOM     16  C   UNL     1      -1.398  13.874  20.204  0.00  0.00    +0.000 C 
ENDBRANCH  13  14
ENDBRANCH  11  13
ENDBRANCH   7   9
BRANCH   2  17
ATOM     17  C   UNL     1       1.934   5.551  21.102  0.00  0.00    +0.000 C 
BRANCH  17  18
ATOM     18  C   UNL     1       1.139   4.373  20.518  0.00  0.00    +0.000 C 
BRANCH  18  19
ATOM     19  C   UNL     1       1.978   3.426  19.694  0.00  0.00    +0.000 A 
ATOM     20  C   UNL     1       1.603   3.108  18.381  0.00  0.00    +0.000 A 
ATOM     21  C   UNL     1       2.398   2.262  17.606  0.00  0.00    +0.000 A 
ATOM     22  C   UNL     1       3.566   1.721  18.137  0.00  0.00    +0.000 A 
ATOM     23  C   UNL     1       3.940   2.021  19.446  0.00  0.00    +0.000 A 
ATOM     24  C   UNL     1       3.148   2.867  20.223  0.00  0.00    +0.000 A 
ENDBRANCH  18  19
ENDBRANCH  17  18
ENDBRANCH   2  17
BRANCH   5  25
ATOM     25  O   UNL     1       4.078   6.857  16.918  0.00  0.00    +0.000 OA
BRANCH  25  26
ATOM     26  C   UNL     1       5.280   6.418  17.427  0.00  0.00    +0.000 A 
ATOM     27  C   UNL     1       6.455   7.173  17.414  0.00  0.00    +0.000 A 
ATOM     28  C   UNL     1       7.632   6.620  17.915  0.00  0.00    +0.000 A 
ATOM     29  C   UNL     1       7.600   5.317  18.386  0.00  0.00    +0.000 A 
ATOM     30  N   UNL     1       6.490   4.546  18.387  0.00  0.00    +0.000 NA
ATOM     31  C   UNL     1       5.355   5.118  17.906  0.00  0.00    +0.000 A 
ENDBRANCH  25  26
ENDBRANCH   5  25
TORSDOF 8
ENDMDL
MODEL 6
REMARK VINA RESULT:      -7.7      2.511      6.381
REMARK  Name = 
REMARK  9 active torsions:
REMARK  status: ('A' for Active; 'I' for Inactive)
REMARK    1  A    between atoms: C_1  and  N_2
REMARK    2  A    between atoms: N_2  and  C_3
REMARK    3  A    between atoms: C_3  and  C_4
REMARK    4  A    between atoms: C_4  and  C_5
REMARK    5  A    between atoms: C_13  and  O_14
REMARK    6  A    between atoms: O_14  and  C_15
REMARK    7  A    between atoms: C_22  and  C_23
REMARK    8  A    between atoms: N_25  and  C_26
REMARK    9  A    between atoms: C_26  and  C_27
REMARK                            x       y       z     vdW  Elec       q    Type
REMARK                         _______ _______ _______ _____ _____    ______ ____
ROOT
ATOM      1  C   UNL     1       7.451   5.744  17.629  0.00  0.00    +0.000 C 
ATOM      2  N   UNL     1       6.630   6.909  17.363  0.00  0.00    +0.000 N 
ATOM      3  C   UNL     1       5.267   6.740  17.555  0.00  0.00    +0.000 A 
ATOM      4  N   UNL     1       4.468   7.808  17.470  0.00  0.00    +0.000 NA
ATOM      5  C   UNL     1       3.140   7.627  17.568  0.00  0.00    +0.000 A 
ATOM      6  C   UNL     1       2.550   6.404  17.711  0.00  0.00    +0.000 A 
ATOM      7  C   UNL     1       3.439   5.368  17.838  0.00  0.00    +0.000 A 
ATOM      8  N   UNL     1       4.785   5.507  17.774  0.00  0.00    +0.000 NA
ENDROOT
BRANCH   7   9
ATOM      9  C   UNL     1       2.937   3.974  18.085  0.00  0.00    +0.000 C 
ATOM     10  O   UNL     1       3.511   3.000  17.601  0.00  0.00    +0.000 OA
ATOM     11  N   UNL     1       1.804   3.885  18.863  0.00  0.00    +0.000 N 
ATOM     12  H   UNL     1       1.382   4.758  19.166  0.00  0.00    +0.000 HD
BRANCH  11  13
ATOM     13  C   UNL     1       1.148   2.623  19.117  0.00  0.00    +0.000 C 
BRANCH  13  14
ATOM     14  C   UNL     1       1.552   2.081  20.451  0.00  0.00    +0.000 C 
ATOM     15  C   UNL     1       2.706   2.669  21.226  0.00  0.00    +0.000 C 
ATOM     16  C   UNL     1       1.299   2.883  21.709  0.00  0.00    +0.000 C 
ENDBRANCH  13  14
ENDBRANCH  11  13
ENDBRANCH   7   9
BRANCH   2  17
ATOM     17  C   UNL     1       7.165   8.278  17.419  0.00  0.00    +0.000 C 
BRANCH  17  18
ATOM     18  C   UNL     1       8.383   8.390  18.347  0.00  0.00    +0.000 C 
BRANCH  18  19
ATOM     19  C   UNL     1       8.824   9.811  18.599  0.00  0.00    +0.000 A 
ATOM     20  C   UNL     1       8.548  10.815  17.661  0.00  0.00    +0.000 A 
ATOM     21  C   UNL     1       8.923  12.137  17.910  0.00  0.00    +0.000 A 
ATOM     22  C   UNL     1       9.582  12.464  19.092  0.00  0.00    +0.000 A 
ATOM     23  C   UNL     1       9.872  11.470  20.026  0.00  0.00    +0.000 A 
ATOM     24  C   UNL     1       9.498  10.149  19.780  0.00  0.00    +0.000 A 
ENDBRANCH  18  19
ENDBRANCH  17  18
ENDBRANCH   2  17
BRANCH   5  25
ATOM     25  O   UNL     1       2.307   8.737  17.480  0.00  0.00    +0.000 OA
BRANCH  25  26
ATOM     26  C   UNL     1       1.531   9.041  18.576  0.00  0.00    +0.000 A 
ATOM     27  C   UNL     1       1.699   8.461  19.836  0.00  0.00    +0.000 A 
ATOM     28  C   UNL     1       0.832   8.806  20.870  0.00  0.00    +0.000 A 
ATOM     29  C   UNL     1      -0.194   9.698  20.602  0.00  0.00    +0.000 A 
ATOM     30  N   UNL     1      -0.405  10.257  19.390  0.00  0.00    +0.000 NA
ATOM     31  C   UNL     1       0.466   9.913  18.405  0.00  0.00    +0.000 A 
ENDBRANCH  25  26
ENDBRANCH   5  25
TORSDOF 8
ENDMDL
MODEL 7
REMARK VINA RESULT:      -7.7      2.984      5.450
REMARK  Name = 
REMARK  9 active torsions:
REMARK  status: ('A' for Active; 'I' for Inactive)
REMARK    1  A    between atoms: C_1  and  N_2
REMARK    2  A    between atoms: N_2  and  C_3
REMARK    3  A    between atoms: C_3  and  C_4
REMARK    4  A    between atoms: C_4  and  C_5
REMARK    5  A    between atoms: C_13  and  O_14
REMARK    6  A    between atoms: O_14  and  C_15
REMARK    7  A    between atoms: C_22  and  C_23
REMARK    8  A    between atoms: N_25  and  C_26
REMARK    9  A    between atoms: C_26  and  C_27
REMARK                            x       y       z     vdW  Elec       q    Type
REMARK                         _______ _______ _______ _____ _____    ______ ____
ROOT
ATOM      1  C   UNL     1       0.556   7.701  21.748  0.00  0.00    +0.000 C 
ATOM      2  N   UNL     1       1.310   6.949  20.764  0.00  0.00    +0.000 N 
ATOM      3  C   UNL     1       1.834   7.689  19.715  0.00  0.00    +0.000 A 
ATOM      4  N   UNL     1       2.659   7.088  18.853  0.00  0.00    +0.000 NA
ATOM      5  C   UNL     1       3.094   7.782  17.788  0.00  0.00    +0.000 A 
ATOM      6  C   UNL     1       2.709   9.062  17.508  0.00  0.00    +0.000 A 
ATOM      7  C   UNL     1       1.902   9.622  18.464  0.00  0.00    +0.000 A 
ATOM      8  N   UNL     1       1.462   8.970  19.568  0.00  0.00    +0.000 NA
ENDROOT
BRANCH   7   9
ATOM      9  C   UNL     1       1.466  11.054  18.335  0.00  0.00    +0.000 C 
ATOM     10  O   UNL     1       2.291  11.959  18.219  0.00  0.00    +0.000 OA
ATOM     11  N   UNL     1       0.105  11.261  18.374  0.00  0.00    +0.000 N 
ATOM     12  H   UNL     1      -0.483  10.446  18.526  0.00  0.00    +0.000 HD
BRANCH  11  13
ATOM     13  C   UNL     1      -0.468  12.588  18.351  0.00  0.00    +0.000 C 
BRANCH  13  14
ATOM     14  C   UNL     1      -1.549  12.710  19.377  0.00  0.00    +0.000 C 
ATOM     15  C   UNL     1      -1.259  12.567  20.851  0.00  0.00    +0.000 C 
ATOM     16  C   UNL     1      -1.603  13.917  20.288  0.00  0.00    +0.000 C 
ENDBRANCH  13  14
ENDBRANCH  11  13
ENDBRANCH   7   9
BRANCH   2  17
ATOM     17  C   UNL     1       1.945   5.661  21.077  0.00  0.00    +0.000 C 
BRANCH  17  18
ATOM     18  C   UNL     1       1.136   4.468  20.545  0.00  0.00    +0.000 C 
BRANCH  18  19
ATOM     19  C   UNL     1       1.892   3.619  19.552  0.00  0.00    +0.000 A 
ATOM     20  C   UNL     1       1.679   3.781  18.176  0.00  0.00    +0.000 A 
ATOM     21  C   UNL     1       2.404   3.023  17.255  0.00  0.00    +0.000 A 
ATOM     22  C   UNL     1       3.340   2.093  17.701  0.00  0.00    +0.000 A 
ATOM     23  C   UNL     1       3.549   1.915  19.068  0.00  0.00    +0.000 A 
ATOM     24  C   UNL     1       2.827   2.672  19.990  0.00  0.00    +0.000 A 
ENDBRANCH  18  19
ENDBRANCH  17  18
ENDBRANCH   2  17
BRANCH   5  25
ATOM     25  O   UNL     1       3.953   7.158  16.890  0.00  0.00    +0.000 OA
BRANCH  25  26
ATOM     26  C   UNL     1       5.085   6.562  17.399  0.00  0.00    +0.000 A 
ATOM     27  C   UNL     1       5.078   5.371  18.130  0.00  0.00    +0.000 A 
ATOM     28  C   UNL     1       6.276   4.873  18.639  0.00  0.00    +0.000 A 
ATOM     29  C   UNL     1       7.437   5.598  18.426  0.00  0.00    +0.000 A 
ATOM     30  N   UNL     1       7.478   6.768  17.750  0.00  0.00    +0.000 NA
ATOM     31  C   UNL     1       6.298   7.220  17.252  0.00  0.00    +0.000 A 
ENDBRANCH  25  26
ENDBRANCH   5  25
TORSDOF 8
ENDMDL
MODEL 8
REMARK VINA RESULT:      -7.6      2.199      7.729
REMARK  Name = 
REMARK  9 active torsions:
REMARK  status: ('A' for Active; 'I' for Inactive)
REMARK    1  A    between atoms: C_1  and  N_2
REMARK    2  A    between atoms: N_2  and  C_3
REMARK    3  A    between atoms: C_3  and  C_4
REMARK    4  A    between atoms: C_4  and  C_5
REMARK    5  A    between atoms: C_13  and  O_14
REMARK    6  A    between atoms: O_14  and  C_15
REMARK    7  A    between atoms: C_22  and  C_23
REMARK    8  A    between atoms: N_25  and  C_26
REMARK    9  A    between atoms: C_26  and  C_27
REMARK                            x       y       z     vdW  Elec       q    Type
REMARK                         _______ _______ _______ _____ _____    ______ ____
ROOT
ATOM      1  C   UNL     1       2.220  10.480  17.605  0.00  0.00    +0.000 C 
ATOM      2  N   UNL     1       1.709   9.464  18.503  0.00  0.00    +0.000 N 
ATOM      3  C   UNL     1       2.431   8.280  18.544  0.00  0.00    +0.000 A 
ATOM      4  N   UNL     1       2.104   7.358  19.453  0.00  0.00    +0.000 NA
ATOM      5  C   UNL     1       2.745   6.177  19.432  0.00  0.00    +0.000 A 
ATOM      6  C   UNL     1       3.692   5.845  18.505  0.00  0.00    +0.000 A 
ATOM      7  C   UNL     1       4.003   6.861  17.639  0.00  0.00    +0.000 A 
ATOM      8  N   UNL     1       3.404   8.076  17.641  0.00  0.00    +0.000 NA
ENDROOT
BRANCH   7   9
ATOM      9  C   UNL     1       5.087   6.670  16.616  0.00  0.00    +0.000 C 
ATOM     10  O   UNL     1       5.203   7.441  15.665  0.00  0.00    +0.000 OA
ATOM     11  N   UNL     1       5.904   5.580  16.819  0.00  0.00    +0.000 N 
ATOM     12  H   UNL     1       5.685   4.979  17.610  0.00  0.00    +0.000 HD
BRANCH  11  13
ATOM     13  C   UNL     1       6.935   5.211  15.877  0.00  0.00    +0.000 C 
BRANCH  13  14
ATOM     14  C   UNL     1       6.504   4.035  15.060  0.00  0.00    +0.000 C 
ATOM     15  C   UNL     1       5.285   4.096  14.171  0.00  0.00    +0.000 C 
ATOM     16  C   UNL     1       6.655   4.055  13.555  0.00  0.00    +0.000 C 
ENDBRANCH  13  14
ENDBRANCH  11  13
ENDBRANCH   7   9
BRANCH   2  17
ATOM     17  C   UNL     1       0.865   9.790  19.661  0.00  0.00    +0.000 C 
BRANCH  17  18
ATOM     18  C   UNL     1       0.163  11.148  19.508  0.00  0.00    +0.000 C 
BRANCH  18  19
ATOM     19  C   UNL     1      -1.211  11.054  18.890  0.00  0.00    +0.000 A 
ATOM     20  C   UNL     1      -1.473  10.112  17.885  0.00  0.00    +0.000 A 
ATOM     21  C   UNL     1      -2.753   9.999  17.340  0.00  0.00    +0.000 A 
ATOM     22  C   UNL     1      -3.777  10.829  17.787  0.00  0.00    +0.000 A 
ATOM     23  C   UNL     1      -3.524  11.777  18.778  0.00  0.00    +0.000 A 
ATOM     24  C   UNL     1      -2.246  11.891  19.325  0.00  0.00    +0.000 A 
ENDBRANCH  18  19
ENDBRANCH  17  18
ENDBRANCH   2  17
BRANCH   5  25
ATOM     25  O   UNL     1       2.406   5.216  20.378  0.00  0.00    +0.000 OA
BRANCH  25  26
ATOM     26  C   UNL     1       2.116   3.949  19.924  0.00  0.00    +0.000 A 
ATOM     27  C   UNL     1       3.073   2.949  19.737  0.00  0.00    +0.000 A 
ATOM     28  C   UNL     1       2.681   1.711  19.231  0.00  0.00    +0.000 A 
ATOM     29  C   UNL     1       1.348   1.525  18.900  0.00  0.00    +0.000 A 
ATOM     30  N   UNL     1       0.400   2.478  19.039  0.00  0.00    +0.000 NA
ATOM     31  C   UNL     1       0.810   3.668  19.549  0.00  0.00    +0.000 A 
ENDBRANCH  25  26
ENDBRANCH   5  25
TORSDOF 8
ENDMDL
MODEL 9
REMARK VINA RESULT:      -7.5      1.151      1.587
REMARK  Name = 
REMARK  9 active torsions:
REMARK  status: ('A' for Active; 'I' for Inactive)
REMARK    1  A    between atoms: C_1  and  N_2
REMARK    2  A    between atoms: N_2  and  C_3
REMARK    3  A    between atoms: C_3  and  C_4
REMARK    4  A    between atoms: C_4  and  C_5
REMARK    5  A    between atoms: C_13  and  O_14
REMARK    6  A    between atoms: O_14  and  C_15
REMARK    7  A    between atoms: C_22  and  C_23
REMARK    8  A    between atoms: N_25  and  C_26
REMARK    9  A    between atoms: C_26  and  C_27
REMARK                            x       y       z     vdW  Elec       q    Type
REMARK                         _______ _______ _______ _____ _____    ______ ____
ROOT
ATOM      1  C   UNL     1       6.847   7.757  17.032  0.00  0.00    +0.000 C 
ATOM      2  N   UNL     1       6.252   6.469  17.332  0.00  0.00    +0.000 N 
ATOM      3  C   UNL     1       4.876   6.470  17.510  0.00  0.00    +0.000 A 
ATOM      4  N   UNL     1       4.245   5.301  17.644  0.00  0.00    +0.000 NA
ATOM      5  C   UNL     1       2.926   5.308  17.905  0.00  0.00    +0.000 A 
ATOM      6  C   UNL     1       2.194   6.447  18.082  0.00  0.00    +0.000 A 
ATOM      7  C   UNL     1       2.905   7.602  17.881  0.00  0.00    +0.000 A 
ATOM      8  N   UNL     1       4.227   7.642  17.588  0.00  0.00    +0.000 NA
ENDROOT
BRANCH   7   9
ATOM      9  C   UNL     1       2.213   8.933  17.958  0.00  0.00    +0.000 C 
ATOM     10  O   UNL     1       2.728   9.943  17.481  0.00  0.00    +0.000 OA
ATOM     11  N   UNL     1       0.998   8.929  18.606  0.00  0.00    +0.000 N 
ATOM     12  H   UNL     1       0.692   8.047  19.009  0.00  0.00    +0.000 HD
BRANCH  11  13
ATOM     13  C   UNL     1       0.251  10.143  18.841  0.00  0.00    +0.000 C 
BRANCH  13  14
ATOM     14  C   UNL     1      -0.866  10.273  17.857  0.00  0.00    +0.000 C 
ATOM     15  C   UNL     1      -2.311  10.197  18.288  0.00  0.00    +0.000 C 
ATOM     16  C   UNL     1      -1.734  11.512  17.846  0.00  0.00    +0.000 C 
ENDBRANCH  13  14
ENDBRANCH  11  13
ENDBRANCH   7   9
BRANCH   2  17
ATOM     17  C   UNL     1       6.893   5.200  16.959  0.00  0.00    +0.000 C 
BRANCH  17  18
ATOM     18  C   UNL     1       6.021   4.365  16.008  0.00  0.00    +0.000 C 
BRANCH  18  19
ATOM     19  C   UNL     1       6.499   4.381  14.577  0.00  0.00    +0.000 A 
ATOM     20  C   UNL     1       5.941   3.506  13.634  0.00  0.00    +0.000 A 
ATOM     21  C   UNL     1       6.356   3.546  12.302  0.00  0.00    +0.000 A 
ATOM     22  C   UNL     1       7.334   4.453  11.903  0.00  0.00    +0.000 A 
ATOM     23  C   UNL     1       7.903   5.320  12.835  0.00  0.00    +0.000 A 
ATOM     24  C   UNL     1       7.490   5.283  14.167  0.00  0.00    +0.000 A 
ENDBRANCH  18  19
ENDBRANCH  17  18
ENDBRANCH   2  17
BRANCH   5  25
ATOM     25  O   UNL     1       2.267   4.092  18.045  0.00  0.00    +0.000 OA
BRANCH  25  26
ATOM     26  C   UNL     1       2.219   3.533  19.302  0.00  0.00    +0.000 A 
ATOM     27  C   UNL     1       3.313   2.933  19.931  0.00  0.00    +0.000 A 
ATOM     28  C   UNL     1       3.149   2.358  21.190  0.00  0.00    +0.000 A 
ATOM     29  C   UNL     1       1.888   2.374  21.765  0.00  0.00    +0.000 A 
ATOM     30  N   UNL     1       0.801   2.918  21.174  0.00  0.00    +0.000 NA
ATOM     31  C   UNL     1       0.995   3.486  19.955  0.00  0.00    +0.000 A 
ENDBRANCH  25  26
ENDBRANCH   5  25
TORSDOF 8
ENDMDL
