MODEL 1
REMARK VINA RESULT:      -8.0      0.000      0.000
REMARK  Name = 
REMARK  10 active torsions:
REMARK  status: ('A' for Active; 'I' for Inactive)
REMARK    1  A    between atoms: C_1  and  C_2
REMARK    2  A    between atoms: C_2  and  N_3
REMARK    3  A    between atoms: C_6  and  C_7
REMARK    4  A    between atoms: C_10  and  O_11
REMARK    5  A    between atoms: O_11  and  C_12
REMARK    6  A    between atoms: C_13  and  O_14
REMARK    7  A    between atoms: C_19  and  C_20
REMARK    8  A    between atoms: C_23  and  O_24
REMARK    9  A    between atoms: O_24  and  C_25
REMARK   10  A    between atoms: C_26  and  O_27
REMARK                            x       y       z     vdW  Elec       q    Type
REMARK                         _______ _______ _______ _____ _____    ______ ____
ROOT
ATOM      1  N   UNL     1       1.975   4.641  19.633  0.00  0.00    +0.000 NA
ATOM      2  C   UNL     1       3.293   4.024  19.420  0.00  0.00    +0.000 C 
ATOM      3  C   UNL     1       4.006   4.537  18.196  0.00  0.00    +0.000 C 
ATOM      4  C   UNL     1       4.854   3.734  17.520  0.00  0.00    +0.000 C 
ATOM      5  C   UNL     1       3.739   5.948  17.781  0.00  0.00    +0.000 C 
ATOM      6  O   UNL     1       4.309   6.478  16.827  0.00  0.00    +0.000 OA
ATOM      7  C   UNL     1       2.748   6.720  18.585  0.00  0.00    +0.000 C 
ATOM      8  C   UNL     1       2.436   7.943  18.116  0.00  0.00    +0.000 C 
ATOM      9  C   UNL     1       2.176   6.084  19.813  0.00  0.00    +0.000 C 
ENDROOT
BRANCH   4  10
ATOM     10  C   UNL     1       5.625   4.048  16.312  0.00  0.00    +0.000 A 
ATOM     11  C   UNL     1       6.826   4.759  16.417  0.00  0.00    +0.000 A 
ATOM     12  C   UNL     1       7.543   5.121  15.271  0.00  0.00    +0.000 A 
ATOM     13  C   UNL     1       7.065   4.773  14.010  0.00  0.00    +0.000 A 
ATOM     14  C   UNL     1       5.878   4.035  13.920  0.00  0.00    +0.000 A 
ATOM     15  C   UNL     1       5.157   3.668  15.052  0.00  0.00    +0.000 A 
BRANCH  13  16
ATOM     16  O   UNL     1       7.651   5.088  12.809  0.00  0.00    +0.000 OA
ATOM     17  C   UNL     1       8.812   5.911  12.877  0.00  0.00    +0.000 C 
ENDBRANCH  13  16
BRANCH  14  18
ATOM     18  O   UNL     1       5.390   3.665  12.694  0.00  0.00    +0.000 OA
ATOM     19  H   UNL     1       6.153   3.267  12.232  0.00  0.00    +0.000 HD
ENDBRANCH  14  18
ENDBRANCH   4  10
BRANCH   8  20
ATOM     20  C   UNL     1       1.495   8.856  18.757  0.00  0.00    +0.000 A 
ATOM     21  C   UNL     1       1.379   8.876  20.151  0.00  0.00    +0.000 A 
ATOM     22  C   UNL     1       0.466   9.733  20.772  0.00  0.00    +0.000 A 
ATOM     23  C   UNL     1      -0.334  10.575  20.001  0.00  0.00    +0.000 A 
ATOM     24  C   UNL     1      -0.190  10.557  18.608  0.00  0.00    +0.000 A 
ATOM     25  C   UNL     1       0.713   9.710  17.980  0.00  0.00    +0.000 A 
BRANCH  23  26
ATOM     26  O   UNL     1      -1.278  11.447  20.479  0.00  0.00    +0.000 OA
ATOM     27  C   UNL     1      -0.785  12.576  21.191  0.00  0.00    +0.000 C 
ENDBRANCH  23  26
BRANCH  24  28
ATOM     28  O   UNL     1      -0.953  11.380  17.823  0.00  0.00    +0.000 OA
ATOM     29  H   UNL     1      -0.337  12.073  17.513  0.00  0.00    +0.000 HD
ENDBRANCH  24  28
ENDBRANCH   8  20
BRANCH   1  31
ATOM     30  C   UNL     1       2.183   3.022  21.560  0.00  0.00    +0.000 C 
ATOM     31  C   UNL     1       1.313   4.017  20.794  0.00  0.00    +0.000 C 
ENDBRANCH   1  31
TORSDOF 7
ENDMDL
MODEL 2
REMARK VINA RESULT:      -8.0      0.614      1.277
REMARK  Name = 
REMARK  10 active torsions:
REMARK  status: ('A' for Active; 'I' for Inactive)
REMARK    1  A    between atoms: C_1  and  C_2
REMARK    2  A    between atoms: C_2  and  N_3
REMARK    3  A    between atoms: C_6  and  C_7
REMARK    4  A    between atoms: C_10  and  O_11
REMARK    5  A    between atoms: O_11  and  C_12
REMARK    6  A    between atoms: C_13  and  O_14
REMARK    7  A    between atoms: C_19  and  C_20
REMARK    8  A    between atoms: C_23  and  O_24
REMARK    9  A    between atoms: O_24  and  C_25
REMARK   10  A    between atoms: C_26  and  O_27
REMARK                            x       y       z     vdW  Elec       q    Type
REMARK                         _______ _______ _______ _____ _____    ______ ____
ROOT
ATOM      1  N   UNL     1       1.898   4.661  19.562  0.00  0.00    +0.000 NA
ATOM      2  C   UNL     1       3.212   4.030  19.359  0.00  0.00    +0.000 C 
ATOM      3  C   UNL     1       3.944   4.545  18.148  0.00  0.00    +0.000 C 
ATOM      4  C   UNL     1       4.791   3.738  17.475  0.00  0.00    +0.000 C 
ATOM      5  C   UNL     1       3.699   5.962  17.740  0.00  0.00    +0.000 C 
ATOM      6  O   UNL     1       4.285   6.492  16.798  0.00  0.00    +0.000 OA
ATOM      7  C   UNL     1       2.708   6.739  18.540  0.00  0.00    +0.000 C 
ATOM      8  C   UNL     1       2.415   7.969  18.077  0.00  0.00    +0.000 C 
ATOM      9  C   UNL     1       2.114   6.101  19.756  0.00  0.00    +0.000 C 
ENDROOT
BRANCH   4  10
ATOM     10  C   UNL     1       5.579   4.051  16.279  0.00  0.00    +0.000 A 
ATOM     11  C   UNL     1       6.796   4.731  16.405  0.00  0.00    +0.000 A 
ATOM     12  C   UNL     1       7.532   5.095  15.270  0.00  0.00    +0.000 A 
ATOM     13  C   UNL     1       7.055   4.778  13.999  0.00  0.00    +0.000 A 
ATOM     14  C   UNL     1       5.852   4.070  13.889  0.00  0.00    +0.000 A 
ATOM     15  C   UNL     1       5.113   3.703  15.009  0.00  0.00    +0.000 A 
BRANCH  13  16
ATOM     16  O   UNL     1       7.659   5.098  12.809  0.00  0.00    +0.000 OA
ATOM     17  C   UNL     1       8.845   5.882  12.899  0.00  0.00    +0.000 C 
ENDBRANCH  13  16
BRANCH  14  18
ATOM     18  O   UNL     1       5.366   3.732  12.653  0.00  0.00    +0.000 OA
ATOM     19  H   UNL     1       4.409   3.921  12.701  0.00  0.00    +0.000 HD
ENDBRANCH  14  18
ENDBRANCH   4  10
BRANCH   8  20
ATOM     20  C   UNL     1       1.478   8.888  18.714  0.00  0.00    +0.000 A 
ATOM     21  C   UNL     1       0.493   9.524  17.950  0.00  0.00    +0.000 A 
ATOM     22  C   UNL     1      -0.396  10.421  18.547  0.00  0.00    +0.000 A 
ATOM     23  C   UNL     1      -0.305  10.686  19.913  0.00  0.00    +0.000 A 
ATOM     24  C   UNL     1       0.673  10.026  20.667  0.00  0.00    +0.000 A 
ATOM     25  C   UNL     1       1.563   9.133  20.084  0.00  0.00    +0.000 A 
BRANCH  23  26
ATOM     26  O   UNL     1      -1.098  11.554  20.618  0.00  0.00    +0.000 OA
ATOM     27  C   UNL     1      -1.590  12.679  19.900  0.00  0.00    +0.000 C 
ENDBRANCH  23  26
BRANCH  24  28
ATOM     28  O   UNL     1       0.783  10.256  22.012  0.00  0.00    +0.000 OA
ATOM     29  H   UNL     1       0.048   9.750  22.414  0.00  0.00    +0.000 HD
ENDBRANCH  24  28
ENDBRANCH   8  20
BRANCH   1  31
ATOM     30  C   UNL     1       2.106   3.130  21.560  0.00  0.00    +0.000 C 
ATOM     31  C   UNL     1       1.216   4.036  20.711  0.00  0.00    +0.000 C 
ENDBRANCH   1  31
TORSDOF 7
ENDMDL
MODEL 3
REMARK VINA RESULT:      -7.9      1.420      2.221
REMARK  Name = 
REMARK  10 active torsions:
REMARK  status: ('A' for Active; 'I' for Inactive)
REMARK    1  A    between atoms: C_1  and  C_2
REMARK    2  A    between atoms: C_2  and  N_3
REMARK    3  A    between atoms: C_6  and  C_7
REMARK    4  A    between atoms: C_10  and  O_11
REMARK    5  A    between atoms: O_11  and  C_12
REMARK    6  A    between atoms: C_13  and  O_14
REMARK    7  A    between atoms: C_19  and  C_20
REMARK    8  A    between atoms: C_23  and  O_24
REMARK    9  A    between atoms: O_24  and  C_25
REMARK   10  A    between atoms: C_26  and  O_27
REMARK                            x       y       z     vdW  Elec       q    Type
REMARK                         _______ _______ _______ _____ _____    ______ ____
ROOT
ATOM      1  N   UNL     1       1.506   4.315  19.933  0.00  0.00    +0.000 NA
ATOM      2  C   UNL     1       2.793   3.663  19.645  0.00  0.00    +0.000 C 
ATOM      3  C   UNL     1       3.613   4.386  18.609  0.00  0.00    +0.000 C 
ATOM      4  C   UNL     1       4.450   3.696  17.806  0.00  0.00    +0.000 C 
ATOM      5  C   UNL     1       3.465   5.871  18.521  0.00  0.00    +0.000 C 
ATOM      6  O   UNL     1       4.126   6.559  17.745  0.00  0.00    +0.000 OA
ATOM      7  C   UNL     1       2.476   6.512  19.436  0.00  0.00    +0.000 C 
ATOM      8  C   UNL     1       2.273   7.830  19.250  0.00  0.00    +0.000 C 
ATOM      9  C   UNL     1       1.787   5.658  20.454  0.00  0.00    +0.000 C 
ENDROOT
BRANCH   4  10
ATOM     10  C   UNL     1       5.314   4.217  16.741  0.00  0.00    +0.000 A 
ATOM     11  C   UNL     1       5.241   3.670  15.455  0.00  0.00    +0.000 A 
ATOM     12  C   UNL     1       6.101   4.111  14.442  0.00  0.00    +0.000 A 
ATOM     13  C   UNL     1       7.041   5.105  14.708  0.00  0.00    +0.000 A 
ATOM     14  C   UNL     1       7.083   5.665  15.991  0.00  0.00    +0.000 A 
ATOM     15  C   UNL     1       6.233   5.236  17.005  0.00  0.00    +0.000 A 
BRANCH  13  16
ATOM     16  O   UNL     1       7.958   5.606  13.819  0.00  0.00    +0.000 OA
ATOM     17  C   UNL     1       7.752   5.270  12.450  0.00  0.00    +0.000 C 
ENDBRANCH  13  16
BRANCH  14  18
ATOM     18  O   UNL     1       7.987   6.654  16.279  0.00  0.00    +0.000 OA
ATOM     19  H   UNL     1       8.673   6.215  16.817  0.00  0.00    +0.000 HD
ENDBRANCH  14  18
ENDBRANCH   4  10
BRANCH   8  20
ATOM     20  C   UNL     1       1.354   8.642  20.040  0.00  0.00    +0.000 A 
ATOM     21  C   UNL     1       0.336   9.364  19.406  0.00  0.00    +0.000 A 
ATOM     22  C   UNL     1      -0.536  10.161  20.153  0.00  0.00    +0.000 A 
ATOM     23  C   UNL     1      -0.396  10.238  21.538  0.00  0.00    +0.000 A 
ATOM     24  C   UNL     1       0.615   9.493  22.158  0.00  0.00    +0.000 A 
ATOM     25  C   UNL     1       1.488   8.699  21.427  0.00  0.00    +0.000 A 
BRANCH  23  26
ATOM     26  O   UNL     1      -1.168  10.992  22.384  0.00  0.00    +0.000 OA
ATOM     27  C   UNL     1      -1.374  12.347  22.004  0.00  0.00    +0.000 C 
ENDBRANCH  23  26
BRANCH  24  28
ATOM     28  O   UNL     1       0.773   9.538  23.518  0.00  0.00    +0.000 OA
ATOM     29  H   UNL     1       0.140   8.879  23.867  0.00  0.00    +0.000 HD
ENDBRANCH  24  28
ENDBRANCH   8  20
BRANCH   1  31
ATOM     30  C   UNL     1       1.584   2.606  21.792  0.00  0.00    +0.000 C 
ATOM     31  C   UNL     1       0.734   3.494  20.886  0.00  0.00    +0.000 C 
ENDBRANCH   1  31
TORSDOF 7
ENDMDL
MODEL 4
REMARK VINA RESULT:      -7.8      0.987      1.248
REMARK  Name = 
REMARK  10 active torsions:
REMARK  status: ('A' for Active; 'I' for Inactive)
REMARK    1  A    between atoms: C_1  and  C_2
REMARK    2  A    between atoms: C_2  and  N_3
REMARK    3  A    between atoms: C_6  and  C_7
REMARK    4  A    between atoms: C_10  and  O_11
REMARK    5  A    between atoms: O_11  and  C_12
REMARK    6  A    between atoms: C_13  and  O_14
REMARK    7  A    between atoms: C_19  and  C_20
REMARK    8  A    between atoms: C_23  and  O_24
REMARK    9  A    between atoms: O_24  and  C_25
REMARK   10  A    between atoms: C_26  and  O_27
REMARK                            x       y       z     vdW  Elec       q    Type
REMARK                         _______ _______ _______ _____ _____    ______ ____
ROOT
ATOM      1  N   UNL     1       2.064   5.438  19.582  0.00  0.00    +0.000 NA
ATOM      2  C   UNL     1       3.386   4.803  19.452  0.00  0.00    +0.000 C 
ATOM      3  C   UNL     1       4.083   5.128  18.157  0.00  0.00    +0.000 C 
ATOM      4  C   UNL     1       4.931   4.237  17.603  0.00  0.00    +0.000 C 
ATOM      5  C   UNL     1       3.802   6.458  17.534  0.00  0.00    +0.000 C 
ATOM      6  O   UNL     1       4.358   6.839  16.505  0.00  0.00    +0.000 OA
ATOM      7  C   UNL     1       2.812   7.337  18.222  0.00  0.00    +0.000 C 
ATOM      8  C   UNL     1       2.487   8.472  17.575  0.00  0.00    +0.000 C 
ATOM      9  C   UNL     1       2.256   6.893  19.538  0.00  0.00    +0.000 C 
ENDROOT
BRANCH   4  10
ATOM     10  C   UNL     1       5.688   4.367  16.353  0.00  0.00    +0.000 A 
ATOM     11  C   UNL     1       6.952   4.969  16.364  0.00  0.00    +0.000 A 
ATOM     12  C   UNL     1       7.663   5.158  15.173  0.00  0.00    +0.000 A 
ATOM     13  C   UNL     1       7.114   4.745  13.960  0.00  0.00    +0.000 A 
ATOM     14  C   UNL     1       5.862   4.117  13.967  0.00  0.00    +0.000 A 
ATOM     15  C   UNL     1       5.147   3.922  15.145  0.00  0.00    +0.000 A 
BRANCH  13  16
ATOM     16  O   UNL     1       7.688   4.895  12.722  0.00  0.00    +0.000 OA
ATOM     17  C   UNL     1       8.619   5.965  12.590  0.00  0.00    +0.000 C 
ENDBRANCH  13  16
BRANCH  14  18
ATOM     18  O   UNL     1       5.303   3.687  12.791  0.00  0.00    +0.000 OA
ATOM     19  H   UNL     1       5.811   2.887  12.552  0.00  0.00    +0.000 HD
ENDBRANCH  14  18
ENDBRANCH   4  10
BRANCH   8  20
ATOM     20  C   UNL     1       1.545   9.467  18.078  0.00  0.00    +0.000 A 
ATOM     21  C   UNL     1       0.172   9.303  17.863  0.00  0.00    +0.000 A 
ATOM     22  C   UNL     1      -0.736  10.260  18.323  0.00  0.00    +0.000 A 
ATOM     23  C   UNL     1      -0.275  11.386  19.004  0.00  0.00    +0.000 A 
ATOM     24  C   UNL     1       1.101  11.525  19.229  0.00  0.00    +0.000 A 
ATOM     25  C   UNL     1       2.012  10.581  18.776  0.00  0.00    +0.000 A 
BRANCH  23  26
ATOM     26  O   UNL     1      -1.051  12.406  19.491  0.00  0.00    +0.000 OA
ATOM     27  C   UNL     1      -1.771  12.129  20.686  0.00  0.00    +0.000 C 
ENDBRANCH  23  26
BRANCH  24  28
ATOM     28  O   UNL     1       1.586  12.613  19.904  0.00  0.00    +0.000 OA
ATOM     29  H   UNL     1       1.557  13.345  19.256  0.00  0.00    +0.000 HD
ENDBRANCH  24  28
ENDBRANCH   8  20
BRANCH   1  31
ATOM     30  C   UNL     1       2.118   3.828  21.527  0.00  0.00    +0.000 C 
ATOM     31  C   UNL     1       1.419   4.994  20.832  0.00  0.00    +0.000 C 
ENDBRANCH   1  31
TORSDOF 7
ENDMDL
MODEL 5
REMARK VINA RESULT:      -7.7      3.315     11.239
REMARK  Name = 
REMARK  10 active torsions:
REMARK  status: ('A' for Active; 'I' for Inactive)
REMARK    1  A    between atoms: C_1  and  C_2
REMARK    2  A    between atoms: C_2  and  N_3
REMARK    3  A    between atoms: C_6  and  C_7
REMARK    4  A    between atoms: C_10  and  O_11
REMARK    5  A    between atoms: O_11  and  C_12
REMARK    6  A    between atoms: C_13  and  O_14
REMARK    7  A    between atoms: C_19  and  C_20
REMARK    8  A    between atoms: C_23  and  O_24
REMARK    9  A    between atoms: O_24  and  C_25
REMARK   10  A    between atoms: C_26  and  O_27
REMARK                            x       y       z     vdW  Elec       q    Type
REMARK                         _______ _______ _______ _____ _____    ______ ____
ROOT
ATOM      1  N   UNL     1      -2.516  10.273  17.986  0.00  0.00    +0.000 NA
ATOM      2  C   UNL     1      -2.983  11.632  18.303  0.00  0.00    +0.000 C 
ATOM      3  C   UNL     1      -2.660  12.064  19.709  0.00  0.00    +0.000 C 
ATOM      4  C   UNL     1      -3.470  12.929  20.355  0.00  0.00    +0.000 C 
ATOM      5  C   UNL     1      -1.423  11.507  20.338  0.00  0.00    +0.000 C 
ATOM      6  O   UNL     1      -1.044  11.836  21.461  0.00  0.00    +0.000 OA
ATOM      7  C   UNL     1      -0.633  10.527  19.537  0.00  0.00    +0.000 C 
ATOM      8  C   UNL     1       0.404   9.950  20.173  0.00  0.00    +0.000 C 
ATOM      9  C   UNL     1      -1.055  10.253  18.127  0.00  0.00    +0.000 C 
ENDROOT
BRANCH   4  10
ATOM     10  C   UNL     1      -3.329  13.453  21.717  0.00  0.00    +0.000 A 
ATOM     11  C   UNL     1      -2.543  14.587  21.949  0.00  0.00    +0.000 A 
ATOM     12  C   UNL     1      -2.346  15.066  23.250  0.00  0.00    +0.000 A 
ATOM     13  C   UNL     1      -2.936  14.413  24.330  0.00  0.00    +0.000 A 
ATOM     14  C   UNL     1      -3.746  13.298  24.082  0.00  0.00    +0.000 A 
ATOM     15  C   UNL     1      -3.950  12.814  22.793  0.00  0.00    +0.000 A 
BRANCH  13  16
ATOM     16  O   UNL     1      -2.802  14.758  25.652  0.00  0.00    +0.000 OA
ATOM     17  C   UNL     1      -1.669  15.557  25.979  0.00  0.00    +0.000 C 
ENDBRANCH  13  16
BRANCH  14  18
ATOM     18  O   UNL     1      -4.351  12.643  25.123  0.00  0.00    +0.000 OA
ATOM     19  H   UNL     1      -4.513  11.740  24.789  0.00  0.00    +0.000 HD
ENDBRANCH  14  18
ENDBRANCH   4  10
BRANCH   8  20
ATOM     20  C   UNL     1       1.301   8.972  19.567  0.00  0.00    +0.000 A 
ATOM     21  C   UNL     1       1.818   9.195  18.285  0.00  0.00    +0.000 A 
ATOM     22  C   UNL     1       2.661   8.255  17.688  0.00  0.00    +0.000 A 
ATOM     23  C   UNL     1       2.994   7.086  18.371  0.00  0.00    +0.000 A 
ATOM     24  C   UNL     1       2.485   6.887  19.661  0.00  0.00    +0.000 A 
ATOM     25  C   UNL     1       1.645   7.814  20.264  0.00  0.00    +0.000 A 
BRANCH  23  26
ATOM     26  O   UNL     1       3.792   6.077  17.897  0.00  0.00    +0.000 OA
ATOM     27  C   UNL     1       4.721   6.437  16.882  0.00  0.00    +0.000 C 
ENDBRANCH  23  26
BRANCH  24  28
ATOM     28  O   UNL     1       2.801   5.754  20.363  0.00  0.00    +0.000 OA
ATOM     29  H   UNL     1       3.777   5.712  20.346  0.00  0.00    +0.000 HD
ENDBRANCH  24  28
ENDBRANCH   8  20
BRANCH   1  31
ATOM     30  C   UNL     1      -3.774  10.970  15.909  0.00  0.00    +0.000 C 
ATOM     31  C   UNL     1      -2.953   9.900  16.626  0.00  0.00    +0.000 C 
ENDBRANCH   1  31
TORSDOF 7
ENDMDL
MODEL 6
REMARK VINA RESULT:      -7.5      1.127      1.653
REMARK  Name = 
REMARK  10 active torsions:
REMARK  status: ('A' for Active; 'I' for Inactive)
REMARK    1  A    between atoms: C_1  and  C_2
REMARK    2  A    between atoms: C_2  and  N_3
REMARK    3  A    between atoms: C_6  and  C_7
REMARK    4  A    between atoms: C_10  and  O_11
REMARK    5  A    between atoms: O_11  and  C_12
REMARK    6  A    between atoms: C_13  and  O_14
REMARK    7  A    between atoms: C_19  and  C_20
REMARK    8  A    between atoms: C_23  and  O_24
REMARK    9  A    between atoms: O_24  and  C_25
REMARK   10  A    between atoms: C_26  and  O_27
REMARK                            x       y       z     vdW  Elec       q    Type
REMARK                         _______ _______ _______ _____ _____    ______ ____
ROOT
ATOM      1  N   UNL     1       1.572   4.381  20.021  0.00  0.00    +0.000 NA
ATOM      2  C   UNL     1       2.862   3.752  19.698  0.00  0.00    +0.000 C 
ATOM      3  C   UNL     1       3.606   4.445  18.586  0.00  0.00    +0.000 C 
ATOM      4  C   UNL     1       4.421   3.741  17.774  0.00  0.00    +0.000 C 
ATOM      5  C   UNL     1       3.407   5.920  18.434  0.00  0.00    +0.000 C 
ATOM      6  O   UNL     1       4.006   6.587  17.592  0.00  0.00    +0.000 OA
ATOM      7  C   UNL     1       2.447   6.577  19.368  0.00  0.00    +0.000 C 
ATOM      8  C   UNL     1       2.194   7.878  19.129  0.00  0.00    +0.000 C 
ATOM      9  C   UNL     1       1.838   5.756  20.461  0.00  0.00    +0.000 C 
ENDROOT
BRANCH   4  10
ATOM     10  C   UNL     1       5.213   4.232  16.642  0.00  0.00    +0.000 A 
ATOM     11  C   UNL     1       4.938   3.773  15.349  0.00  0.00    +0.000 A 
ATOM     12  C   UNL     1       5.723   4.183  14.264  0.00  0.00    +0.000 A 
ATOM     13  C   UNL     1       6.790   5.056  14.465  0.00  0.00    +0.000 A 
ATOM     14  C   UNL     1       7.035   5.532  15.759  0.00  0.00    +0.000 A 
ATOM     15  C   UNL     1       6.261   5.133  16.845  0.00  0.00    +0.000 A 
BRANCH  13  16
ATOM     16  O   UNL     1       7.652   5.512  13.500  0.00  0.00    +0.000 OA
ATOM     17  C   UNL     1       7.579   4.859  12.236  0.00  0.00    +0.000 C 
ENDBRANCH  13  16
BRANCH  14  18
ATOM     18  O   UNL     1       8.068   6.403  15.986  0.00  0.00    +0.000 OA
ATOM     19  H   UNL     1       8.874   5.899  15.761  0.00  0.00    +0.000 HD
ENDBRANCH  14  18
ENDBRANCH   4  10
BRANCH   8  20
ATOM     20  C   UNL     1       1.292   8.702  19.926  0.00  0.00    +0.000 A 
ATOM     21  C   UNL     1       1.222   8.524  21.313  0.00  0.00    +0.000 A 
ATOM     22  C   UNL     1       0.346   9.294  22.082  0.00  0.00    +0.000 A 
ATOM     23  C   UNL     1      -0.464  10.249  21.468  0.00  0.00    +0.000 A 
ATOM     24  C   UNL     1      -0.366  10.429  20.083  0.00  0.00    +0.000 A 
ATOM     25  C   UNL     1       0.500   9.669  19.308  0.00  0.00    +0.000 A 
BRANCH  23  26
ATOM     26  O   UNL     1      -1.375  11.056  22.099  0.00  0.00    +0.000 OA
ATOM     27  C   UNL     1      -0.853  12.222  22.725  0.00  0.00    +0.000 C 
ENDBRANCH  23  26
BRANCH  24  28
ATOM     28  O   UNL     1      -1.139  11.366  19.450  0.00  0.00    +0.000 OA
ATOM     29  H   UNL     1      -2.053  11.179  19.745  0.00  0.00    +0.000 HD
ENDBRANCH  24  28
ENDBRANCH   8  20
BRANCH   1  31
ATOM     30  C   UNL     1       1.771   2.618  21.819  0.00  0.00    +0.000 C 
ATOM     31  C   UNL     1       0.875   3.587  21.051  0.00  0.00    +0.000 C 
ENDBRANCH   1  31
TORSDOF 7
ENDMDL
MODEL 7
REMARK VINA RESULT:      -7.4      2.396      4.043
REMARK  Name = 
REMARK  10 active torsions:
REMARK  status: ('A' for Active; 'I' for Inactive)
REMARK    1  A    between atoms: C_1  and  C_2
REMARK    2  A    between atoms: C_2  and  N_3
REMARK    3  A    between atoms: C_6  and  C_7
REMARK    4  A    between atoms: C_10  and  O_11
REMARK    5  A    between atoms: O_11  and  C_12
REMARK    6  A    between atoms: C_13  and  O_14
REMARK    7  A    between atoms: C_19  and  C_20
REMARK    8  A    between atoms: C_23  and  O_24
REMARK    9  A    between atoms: O_24  and  C_25
REMARK   10  A    between atoms: C_26  and  O_27
REMARK                            x       y       z     vdW  Elec       q    Type
REMARK                         _______ _______ _______ _____ _____    ______ ____
ROOT
ATOM      1  N   UNL     1       0.206   8.250  21.122  0.00  0.00    +0.000 NA
ATOM      2  C   UNL     1       1.202   7.200  21.389  0.00  0.00    +0.000 C 
ATOM      3  C   UNL     1       2.026   6.834  20.182  0.00  0.00    +0.000 C 
ATOM      4  C   UNL     1       2.506   5.581  20.045  0.00  0.00    +0.000 C 
ATOM      5  C   UNL     1       2.286   7.904  19.170  0.00  0.00    +0.000 C 
ATOM      6  O   UNL     1       2.988   7.722  18.177  0.00  0.00    +0.000 OA
ATOM      7  C   UNL     1       1.664   9.238  19.415  0.00  0.00    +0.000 C 
ATOM      8  C   UNL     1       1.811  10.144  18.429  0.00  0.00    +0.000 C 
ATOM      9  C   UNL     1       0.926   9.457  20.698  0.00  0.00    +0.000 C 
ENDROOT
BRANCH   4  10
ATOM     10  C   UNL     1       3.311   5.037  18.946  0.00  0.00    +0.000 A 
ATOM     11  C   UNL     1       2.682   4.581  17.782  0.00  0.00    +0.000 A 
ATOM     12  C   UNL     1       3.427   4.001  16.748  0.00  0.00    +0.000 A 
ATOM     13  C   UNL     1       4.810   3.875  16.871  0.00  0.00    +0.000 A 
ATOM     14  C   UNL     1       5.430   4.363  18.027  0.00  0.00    +0.000 A 
ATOM     15  C   UNL     1       4.700   4.942  19.061  0.00  0.00    +0.000 A 
BRANCH  13  16
ATOM     16  O   UNL     1       5.652   3.303  15.950  0.00  0.00    +0.000 OA
ATOM     17  C   UNL     1       5.944   4.087  14.797  0.00  0.00    +0.000 C 
ENDBRANCH  13  16
BRANCH  14  18
ATOM     18  O   UNL     1       6.790   4.266  18.171  0.00  0.00    +0.000 OA
ATOM     19  H   UNL     1       7.134   5.127  17.864  0.00  0.00    +0.000 HD
ENDBRANCH  14  18
ENDBRANCH   4  10
BRANCH   8  20
ATOM     20  C   UNL     1       1.285  11.504  18.474  0.00  0.00    +0.000 A 
ATOM     21  C   UNL     1       2.152  12.594  18.349  0.00  0.00    +0.000 A 
ATOM     22  C   UNL     1       1.660  13.901  18.411  0.00  0.00    +0.000 A 
ATOM     23  C   UNL     1       0.296  14.122  18.597  0.00  0.00    +0.000 A 
ATOM     24  C   UNL     1      -0.561  13.020  18.699  0.00  0.00    +0.000 A 
ATOM     25  C   UNL     1      -0.083  11.717  18.640  0.00  0.00    +0.000 A 
BRANCH  23  26
ATOM     26  O   UNL     1      -0.314  15.347  18.693  0.00  0.00    +0.000 OA
ATOM     27  C   UNL     1       0.547  16.463  18.888  0.00  0.00    +0.000 C 
ENDBRANCH  23  26
BRANCH  24  28
ATOM     28  O   UNL     1      -1.907  13.203  18.871  0.00  0.00    +0.000 OA
ATOM     29  H   UNL     1      -2.270  13.269  17.966  0.00  0.00    +0.000 HD
ENDBRANCH  24  28
ENDBRANCH   8  20
BRANCH   1  31
ATOM     30  C   UNL     1      -0.279   9.763  23.086  0.00  0.00    +0.000 C 
ATOM     31  C   UNL     1      -0.612   8.479  22.328  0.00  0.00    +0.000 C 
ENDBRANCH   1  31
TORSDOF 7
ENDMDL
MODEL 8
REMARK VINA RESULT:      -7.4      0.995      1.873
REMARK  Name = 
REMARK  10 active torsions:
REMARK  status: ('A' for Active; 'I' for Inactive)
REMARK    1  A    between atoms: C_1  and  C_2
REMARK    2  A    between atoms: C_2  and  N_3
REMARK    3  A    between atoms: C_6  and  C_7
REMARK    4  A    between atoms: C_10  and  O_11
REMARK    5  A    between atoms: O_11  and  C_12
REMARK    6  A    between atoms: C_13  and  O_14
REMARK    7  A    between atoms: C_19  and  C_20
REMARK    8  A    between atoms: C_23  and  O_24
REMARK    9  A    between atoms: O_24  and  C_25
REMARK   10  A    between atoms: C_26  and  O_27
REMARK                            x       y       z     vdW  Elec       q    Type
REMARK                         _______ _______ _______ _____ _____    ______ ____
ROOT
ATOM      1  N   UNL     1       2.273   4.973  19.992  0.00  0.00    +0.000 NA
ATOM      2  C   UNL     1       3.604   4.435  19.670  0.00  0.00    +0.000 C 
ATOM      3  C   UNL     1       4.100   4.837  18.307  0.00  0.00    +0.000 C 
ATOM      4  C   UNL     1       4.924   4.020  17.618  0.00  0.00    +0.000 C 
ATOM      5  C   UNL     1       3.652   6.159  17.768  0.00  0.00    +0.000 C 
ATOM      6  O   UNL     1       4.041   6.601  16.688  0.00  0.00    +0.000 OA
ATOM      7  C   UNL     1       2.707   6.951  18.607  0.00  0.00    +0.000 C 
ATOM      8  C   UNL     1       2.225   8.076  18.045  0.00  0.00    +0.000 C 
ATOM      9  C   UNL     1       2.361   6.439  19.970  0.00  0.00    +0.000 C 
ENDROOT
BRANCH   4  10
ATOM     10  C   UNL     1       5.499   4.231  16.285  0.00  0.00    +0.000 A 
ATOM     11  C   UNL     1       4.882   3.664  15.163  0.00  0.00    +0.000 A 
ATOM     12  C   UNL     1       5.449   3.802  13.891  0.00  0.00    +0.000 A 
ATOM     13  C   UNL     1       6.639   4.510  13.730  0.00  0.00    +0.000 A 
ATOM     14  C   UNL     1       7.229   5.098  14.856  0.00  0.00    +0.000 A 
ATOM     15  C   UNL     1       6.674   4.969  16.125  0.00  0.00    +0.000 A 
BRANCH  13  16
ATOM     16  O   UNL     1       7.314   4.696  12.550  0.00  0.00    +0.000 OA
ATOM     17  C   UNL     1       7.062   3.737  11.527  0.00  0.00    +0.000 C 
ENDBRANCH  13  16
BRANCH  14  18
ATOM     18  O   UNL     1       8.391   5.813  14.727  0.00  0.00    +0.000 OA
ATOM     19  H   UNL     1       8.267   6.347  13.919  0.00  0.00    +0.000 HD
ENDBRANCH  14  18
ENDBRANCH   4  10
BRANCH   8  20
ATOM     20  C   UNL     1       1.295   8.990  18.699  0.00  0.00    +0.000 A 
ATOM     21  C   UNL     1       0.233   9.543  17.976  0.00  0.00    +0.000 A 
ATOM     22  C   UNL     1      -0.651  10.437  18.588  0.00  0.00    +0.000 A 
ATOM     23  C   UNL     1      -0.477  10.779  19.928  0.00  0.00    +0.000 A 
ATOM     24  C   UNL     1       0.579  10.201  20.643  0.00  0.00    +0.000 A 
ATOM     25  C   UNL     1       1.464   9.313  20.045  0.00  0.00    +0.000 A 
BRANCH  23  26
ATOM     26  O   UNL     1      -1.256  11.652  20.643  0.00  0.00    +0.000 OA
ATOM     27  C   UNL     1      -2.292  12.305  19.918  0.00  0.00    +0.000 C 
ENDBRANCH  23  26
BRANCH  24  28
ATOM     28  O   UNL     1       0.772  10.508  21.964  0.00  0.00    +0.000 OA
ATOM     29  H   UNL     1       0.128  11.219  22.154  0.00  0.00    +0.000 HD
ENDBRANCH  24  28
ENDBRANCH   8  20
BRANCH   1  31
ATOM     30  C   UNL     1       1.895   2.937  21.439  0.00  0.00    +0.000 C 
ATOM     31  C   UNL     1       1.829   4.457  21.301  0.00  0.00    +0.000 C 
ENDBRANCH   1  31
TORSDOF 7
ENDMDL
MODEL 9
REMARK VINA RESULT:      -7.3      1.300      1.874
REMARK  Name = 
REMARK  10 active torsions:
REMARK  status: ('A' for Active; 'I' for Inactive)
REMARK    1  A    between atoms: C_1  and  C_2
REMARK    2  A    between atoms: C_2  and  N_3
REMARK    3  A    between atoms: C_6  and  C_7
REMARK    4  A    between atoms: C_10  and  O_11
REMARK    5  A    between atoms: O_11  and  C_12
REMARK    6  A    between atoms: C_13  and  O_14
REMARK    7  A    between atoms: C_19  and  C_20
REMARK    8  A    between atoms: C_23  and  O_24
REMARK    9  A    between atoms: O_24  and  C_25
REMARK   10  A    between atoms: C_26  and  O_27
REMARK                            x       y       z     vdW  Elec       q    Type
REMARK                         _______ _______ _______ _____ _____    ______ ____
ROOT
ATOM      1  N   UNL     1       2.346   5.715  19.715  0.00  0.00    +0.000 NA
ATOM      2  C   UNL     1       3.658   5.103  19.450  0.00  0.00    +0.000 C 
ATOM      3  C   UNL     1       4.161   5.344  18.051  0.00  0.00    +0.000 C 
ATOM      4  C   UNL     1       4.955   4.433  17.451  0.00  0.00    +0.000 C 
ATOM      5  C   UNL     1       3.753   6.616  17.378  0.00  0.00    +0.000 C 
ATOM      6  O   UNL     1       4.151   6.930  16.257  0.00  0.00    +0.000 OA
ATOM      7  C   UNL     1       2.838   7.522  18.131  0.00  0.00    +0.000 C 
ATOM      8  C   UNL     1       2.389   8.597  17.455  0.00  0.00    +0.000 C 
ATOM      9  C   UNL     1       2.482   7.166  19.540  0.00  0.00    +0.000 C 
ENDROOT
BRANCH   4  10
ATOM     10  C   UNL     1       5.530   4.485  16.102  0.00  0.00    +0.000 A 
ATOM     11  C   UNL     1       4.888   3.828  15.046  0.00  0.00    +0.000 A 
ATOM     12  C   UNL     1       5.454   3.813  13.765  0.00  0.00    +0.000 A 
ATOM     13  C   UNL     1       6.667   4.458  13.531  0.00  0.00    +0.000 A 
ATOM     14  C   UNL     1       7.283   5.138  14.589  0.00  0.00    +0.000 A 
ATOM     15  C   UNL     1       6.730   5.160  15.866  0.00  0.00    +0.000 A 
BRANCH  13  16
ATOM     16  O   UNL     1       7.342   4.497  12.337  0.00  0.00    +0.000 OA
ATOM     17  C   UNL     1       7.152   3.381  11.474  0.00  0.00    +0.000 C 
ENDBRANCH  13  16
BRANCH  14  18
ATOM     18  O   UNL     1       8.470   5.793  14.386  0.00  0.00    +0.000 OA
ATOM     19  H   UNL     1       8.234   6.741  14.392  0.00  0.00    +0.000 HD
ENDBRANCH  14  18
ENDBRANCH   4  10
BRANCH   8  20
ATOM     20  C   UNL     1       1.493   9.604  18.010  0.00  0.00    +0.000 A 
ATOM     21  C   UNL     1       0.118   9.354  18.082  0.00  0.00    +0.000 A 
ATOM     22  C   UNL     1      -0.752  10.321  18.593  0.00  0.00    +0.000 A 
ATOM     23  C   UNL     1      -0.249  11.544  19.038  0.00  0.00    +0.000 A 
ATOM     24  C   UNL     1       1.132  11.770  18.978  0.00  0.00    +0.000 A 
ATOM     25  C   UNL     1       2.005  10.817  18.471  0.00  0.00    +0.000 A 
BRANCH  23  26
ATOM     26  O   UNL     1      -0.989  12.582  19.543  0.00  0.00    +0.000 OA
ATOM     27  C   UNL     1      -1.749  12.300  20.712  0.00  0.00    +0.000 C 
ENDBRANCH  23  26
BRANCH  24  28
ATOM     28  O   UNL     1       1.659  12.956  19.416  0.00  0.00    +0.000 OA
ATOM     29  H   UNL     1       1.547  12.937  20.387  0.00  0.00    +0.000 HD
ENDBRANCH  24  28
ENDBRANCH   8  20
BRANCH   1  31
ATOM     30  C   UNL     1       1.852   3.851  21.347  0.00  0.00    +0.000 C 
ATOM     31  C   UNL     1       1.892   5.353  21.071  0.00  0.00    +0.000 C 
ENDBRANCH   1  31
TORSDOF 7
ENDMDL
