MODEL 1
REMARK VINA RESULT:      -8.2      0.000      0.000
REMARK  Name = 
REMARK  8 active torsions:
REMARK  status: ('A' for Active; 'I' for Inactive)
REMARK    1  A    between atoms: C_1  and  C_2
REMARK    2  A    between atoms: C_2  and  O_3
REMARK    3  A    between atoms: O_3  and  C_4
REMARK    4  A    between atoms: C_7  and  N_8
REMARK    5  A    between atoms: C_9  and  C_11
REMARK    6  A    between atoms: C_16  and  C_18
REMARK    7  A    between atoms: C_24  and  S_25
REMARK    8  A    between atoms: S_25  and  N_28
REMARK                            x       y       z     vdW  Elec       q    Type
REMARK                         _______ _______ _______ _____ _____    ______ ____
ROOT
ATOM      1  C   UNL     1      -0.446  10.267  19.057  0.00  0.00    +0.000 A 
ATOM      2  C   UNL     1      -0.224   9.776  17.762  0.00  0.00    +0.000 A 
ATOM      3  C   UNL     1       0.833   8.901  17.472  0.00  0.00    +0.000 A 
ATOM      4  C   UNL     1       1.733   8.530  18.469  0.00  0.00    +0.000 A 
ATOM      5  C   UNL     1       1.477   8.960  19.778  0.00  0.00    +0.000 A 
ATOM      6  C   UNL     1       0.335   9.758  20.090  0.00  0.00    +0.000 A 
ENDROOT
BRANCH   4   7
ATOM      7  N   UNL     1       2.915   7.803  18.159  0.00  0.00    +0.000 N 
ATOM      8  C   UNL     1       3.274   6.608  18.783  0.00  0.00    +0.000 C 
ATOM      9  O   UNL     1       2.810   6.264  19.871  0.00  0.00    +0.000 OA
ATOM     10  H   UNL     1       3.631   8.278  17.621  0.00  0.00    +0.000 HD
BRANCH   8  11
ATOM     11  C   UNL     1       4.299   5.719  18.010  0.00  0.00    +0.000 C 
ATOM     12  C   UNL     1       4.738   6.607  16.817  0.00  0.00    +0.000 C 
ATOM     13  C   UNL     1       5.493   5.680  15.888  0.00  0.00    +0.000 C 
ATOM     14  C   UNL     1       4.839   4.330  16.106  0.00  0.00    +0.000 C 
ATOM     15  N   UNL     1       3.999   4.447  17.298  0.00  0.00    +0.000 N 
ATOM     16  C   UNL     1       3.592   3.230  17.867  0.00  0.00    +0.000 C 
ATOM     17  O   UNL     1       4.000   2.165  17.395  0.00  0.00    +0.000 OA
BRANCH  16  18
ATOM     18  C   UNL     1       2.633   3.264  18.957  0.00  0.00    +0.000 A 
ATOM     19  C   UNL     1       1.275   3.492  18.932  0.00  0.00    +0.000 A 
ATOM     20  C   UNL     1       0.686   3.401  20.228  0.00  0.00    +0.000 A 
ATOM     21  C   UNL     1       1.599   3.014  21.178  0.00  0.00    +0.000 A 
ATOM     22  S   UNL     1       3.162   2.818  20.524  0.00  0.00    +0.000 S 
ENDBRANCH  16  18
ENDBRANCH   8  11
ENDBRANCH   4   7
BRANCH   6  23
ATOM     23  S   UNL     1      -0.003   9.930  21.835  0.00  0.00    +0.000 S 
ATOM     24  O   UNL     1      -0.813   8.792  22.214  0.00  0.00    +0.000 OA
ATOM     25  O   UNL     1       1.306  10.119  22.432  0.00  0.00    +0.000 OA
BRANCH  23  26
ATOM     26  N   UNL     1      -0.929  11.347  22.140  0.00  0.00    +0.000 NA
ATOM     27  C   UNL     1      -1.892  11.275  23.270  0.00  0.00    +0.000 C 
ATOM     28  C   UNL     1      -2.707  12.556  23.485  0.00  0.00    +0.000 C 
ATOM     29  C   UNL     1      -2.027  13.881  23.169  0.00  0.00    +0.000 C 
ATOM     30  C   UNL     1      -1.098  13.821  21.974  0.00  0.00    +0.000 C 
ATOM     31  C   UNL     1      -0.170  12.615  22.010  0.00  0.00    +0.000 C 
ENDBRANCH  23  26
ENDBRANCH   6  23
BRANCH   1  32
ATOM     32  O   UNL     1      -1.465  11.174  19.119  0.00  0.00    +0.000 OA
BRANCH  32  34
ATOM     33  C   UNL     1      -0.260  13.180  18.364  0.00  0.00    +0.000 C 
ATOM     34  C   UNL     1      -1.420  12.236  18.162  0.00  0.00    +0.000 C 
ENDBRANCH  32  34
ENDBRANCH   1  32
TORSDOF 7
ENDMDL
MODEL 2
REMARK VINA RESULT:      -7.8      1.844      3.342
REMARK  Name = 
REMARK  8 active torsions:
REMARK  status: ('A' for Active; 'I' for Inactive)
REMARK    1  A    between atoms: C_1  and  C_2
REMARK    2  A    between atoms: C_2  and  O_3
REMARK    3  A    between atoms: O_3  and  C_4
REMARK    4  A    between atoms: C_7  and  N_8
REMARK    5  A    between atoms: C_9  and  C_11
REMARK    6  A    between atoms: C_16  and  C_18
REMARK    7  A    between atoms: C_24  and  S_25
REMARK    8  A    between atoms: S_25  and  N_28
REMARK                            x       y       z     vdW  Elec       q    Type
REMARK                         _______ _______ _______ _____ _____    ______ ____
ROOT
ATOM      1  C   UNL     1       0.530   8.612  20.671  0.00  0.00    +0.000 A 
ATOM      2  C   UNL     1       1.118   7.420  21.118  0.00  0.00    +0.000 A 
ATOM      3  C   UNL     1       2.132   6.777  20.394  0.00  0.00    +0.000 A 
ATOM      4  C   UNL     1       2.553   7.287  19.167  0.00  0.00    +0.000 A 
ATOM      5  C   UNL     1       2.021   8.514  18.749  0.00  0.00    +0.000 A 
ATOM      6  C   UNL     1       1.071   9.224  19.544  0.00  0.00    +0.000 A 
ENDROOT
BRANCH   4   7
ATOM      7  N   UNL     1       3.437   6.553  18.330  0.00  0.00    +0.000 N 
ATOM      8  C   UNL     1       4.468   5.746  18.812  0.00  0.00    +0.000 C 
ATOM      9  O   UNL     1       4.927   5.869  19.949  0.00  0.00    +0.000 OA
ATOM     10  H   UNL     1       3.458   6.791  17.344  0.00  0.00    +0.000 HD
BRANCH   8  11
ATOM     11  C   UNL     1       5.005   4.664  17.823  0.00  0.00    +0.000 C 
ATOM     12  C   UNL     1       5.394   5.475  16.560  0.00  0.00    +0.000 C 
ATOM     13  C   UNL     1       5.634   4.440  15.481  0.00  0.00    +0.000 C 
ATOM     14  C   UNL     1       4.695   3.306  15.846  0.00  0.00    +0.000 C 
ATOM     15  N   UNL     1       4.211   3.570  17.200  0.00  0.00    +0.000 N 
ATOM     16  C   UNL     1       3.619   2.475  17.850  0.00  0.00    +0.000 C 
ATOM     17  O   UNL     1       3.598   1.372  17.296  0.00  0.00    +0.000 OA
BRANCH  16  18
ATOM     18  C   UNL     1       2.977   2.698  19.134  0.00  0.00    +0.000 A 
ATOM     19  C   UNL     1       3.497   2.623  20.406  0.00  0.00    +0.000 A 
ATOM     20  C   UNL     1       2.535   2.954  21.406  0.00  0.00    +0.000 A 
ATOM     21  C   UNL     1       1.346   3.363  20.855  0.00  0.00    +0.000 A 
ATOM     22  S   UNL     1       1.370   3.291  19.150  0.00  0.00    +0.000 S 
ENDBRANCH  16  18
ENDBRANCH   8  11
ENDBRANCH   4   7
BRANCH   6  23
ATOM     23  S   UNL     1       0.759  10.901  19.018  0.00  0.00    +0.000 S 
ATOM     24  O   UNL     1       0.811  11.725  20.207  0.00  0.00    +0.000 OA
ATOM     25  O   UNL     1       1.712  11.117  17.944  0.00  0.00    +0.000 OA
BRANCH  23  26
ATOM     26  N   UNL     1      -0.821  11.049  18.356  0.00  0.00    +0.000 NA
ATOM     27  C   UNL     1      -1.256   9.963  17.438  0.00  0.00    +0.000 C 
ATOM     28  C   UNL     1      -2.662  10.154  16.858  0.00  0.00    +0.000 C 
ATOM     29  C   UNL     1      -3.696  10.844  17.738  0.00  0.00    +0.000 C 
ATOM     30  C   UNL     1      -3.123  11.952  18.597  0.00  0.00    +0.000 C 
ATOM     31  C   UNL     1      -1.843  11.542  19.311  0.00  0.00    +0.000 C 
ENDBRANCH  23  26
ENDBRANCH   6  23
BRANCH   1  32
ATOM     32  O   UNL     1      -0.498   9.033  21.466  0.00  0.00    +0.000 OA
BRANCH  32  34
ATOM     33  C   UNL     1      -0.982  10.781  23.126  0.00  0.00    +0.000 C 
ATOM     34  C   UNL     1      -0.127   9.605  22.723  0.00  0.00    +0.000 C 
ENDBRANCH  32  34
ENDBRANCH   1  32
TORSDOF 7
ENDMDL
MODEL 3
REMARK VINA RESULT:      -7.8      0.924      1.139
REMARK  Name = 
REMARK  8 active torsions:
REMARK  status: ('A' for Active; 'I' for Inactive)
REMARK    1  A    between atoms: C_1  and  C_2
REMARK    2  A    between atoms: C_2  and  O_3
REMARK    3  A    between atoms: O_3  and  C_4
REMARK    4  A    between atoms: C_7  and  N_8
REMARK    5  A    between atoms: C_9  and  C_11
REMARK    6  A    between atoms: C_16  and  C_18
REMARK    7  A    between atoms: C_24  and  S_25
REMARK    8  A    between atoms: S_25  and  N_28
REMARK                            x       y       z     vdW  Elec       q    Type
REMARK                         _______ _______ _______ _____ _____    ______ ____
ROOT
ATOM      1  C   UNL     1      -0.375  10.542  18.723  0.00  0.00    +0.000 A 
ATOM      2  C   UNL     1      -0.370   9.623  17.664  0.00  0.00    +0.000 A 
ATOM      3  C   UNL     1       0.691   8.729  17.462  0.00  0.00    +0.000 A 
ATOM      4  C   UNL     1       1.810   8.765  18.294  0.00  0.00    +0.000 A 
ATOM      5  C   UNL     1       1.781   9.631  19.395  0.00  0.00    +0.000 A 
ATOM      6  C   UNL     1       0.649  10.459  19.662  0.00  0.00    +0.000 A 
ENDROOT
BRANCH   4   7
ATOM      7  N   UNL     1       2.974   8.005  17.994  0.00  0.00    +0.000 N 
ATOM      8  C   UNL     1       3.309   6.816  18.642  0.00  0.00    +0.000 C 
ATOM      9  O   UNL     1       2.843   6.507  19.740  0.00  0.00    +0.000 OA
ATOM     10  H   UNL     1       3.697   8.451  17.441  0.00  0.00    +0.000 HD
BRANCH   8  11
ATOM     11  C   UNL     1       4.310   5.887  17.885  0.00  0.00    +0.000 C 
ATOM     12  C   UNL     1       4.748   6.732  16.660  0.00  0.00    +0.000 C 
ATOM     13  C   UNL     1       5.477   5.766  15.751  0.00  0.00    +0.000 C 
ATOM     14  C   UNL     1       4.803   4.433  16.017  0.00  0.00    +0.000 C 
ATOM     15  N   UNL     1       3.980   4.600  17.214  0.00  0.00    +0.000 N 
ATOM     16  C   UNL     1       3.560   3.408  17.825  0.00  0.00    +0.000 C 
ATOM     17  O   UNL     1       3.946   2.323  17.380  0.00  0.00    +0.000 OA
BRANCH  16  18
ATOM     18  C   UNL     1       2.616   3.491  18.925  0.00  0.00    +0.000 A 
ATOM     19  C   UNL     1       1.267   3.770  18.911  0.00  0.00    +0.000 A 
ATOM     20  C   UNL     1       0.689   3.716  20.215  0.00  0.00    +0.000 A 
ATOM     21  C   UNL     1       1.597   3.305  21.159  0.00  0.00    +0.000 A 
ATOM     22  S   UNL     1       3.145   3.042  20.491  0.00  0.00    +0.000 S 
ENDBRANCH  16  18
ENDBRANCH   8  11
ENDBRANCH   4   7
BRANCH   6  23
ATOM     23  S   UNL     1       0.656  11.240  21.268  0.00  0.00    +0.000 S 
ATOM     24  O   UNL     1       0.918  10.196  22.235  0.00  0.00    +0.000 OA
ATOM     25  O   UNL     1       1.589  12.342  21.121  0.00  0.00    +0.000 OA
BRANCH  23  26
ATOM     26  N   UNL     1      -0.888  11.903  21.630  0.00  0.00    +0.000 NA
ATOM     27  C   UNL     1      -1.496  11.492  22.923  0.00  0.00    +0.000 C 
ATOM     28  C   UNL     1      -2.881  12.094  23.187  0.00  0.00    +0.000 C 
ATOM     29  C   UNL     1      -3.154  13.491  22.647  0.00  0.00    +0.000 C 
ATOM     30  C   UNL     1      -2.502  13.765  21.307  0.00  0.00    +0.000 C 
ATOM     31  C   UNL     1      -1.044  13.332  21.263  0.00  0.00    +0.000 C 
ENDBRANCH  23  26
ENDBRANCH   6  23
BRANCH   1  32
ATOM     32  O   UNL     1      -1.449  11.384  18.697  0.00  0.00    +0.000 OA
BRANCH  32  34
ATOM     33  C   UNL     1      -3.865  11.724  18.389  0.00  0.00    +0.000 C 
ATOM     34  C   UNL     1      -2.662  10.840  18.170  0.00  0.00    +0.000 C 
ENDBRANCH  32  34
ENDBRANCH   1  32
TORSDOF 7
ENDMDL
MODEL 4
REMARK VINA RESULT:      -7.8      0.830      1.273
REMARK  Name = 
REMARK  8 active torsions:
REMARK  status: ('A' for Active; 'I' for Inactive)
REMARK    1  A    between atoms: C_1  and  C_2
REMARK    2  A    between atoms: C_2  and  O_3
REMARK    3  A    between atoms: O_3  and  C_4
REMARK    4  A    between atoms: C_7  and  N_8
REMARK    5  A    between atoms: C_9  and  C_11
REMARK    6  A    between atoms: C_16  and  C_18
REMARK    7  A    between atoms: C_24  and  S_25
REMARK    8  A    between atoms: S_25  and  N_28
REMARK                            x       y       z     vdW  Elec       q    Type
REMARK                         _______ _______ _______ _____ _____    ______ ____
ROOT
ATOM      1  C   UNL     1      -0.131  10.250  19.071  0.00  0.00    +0.000 A 
ATOM      2  C   UNL     1       0.036   9.706  17.789  0.00  0.00    +0.000 A 
ATOM      3  C   UNL     1       1.052   8.783  17.503  0.00  0.00    +0.000 A 
ATOM      4  C   UNL     1       1.968   8.415  18.487  0.00  0.00    +0.000 A 
ATOM      5  C   UNL     1       1.766   8.901  19.786  0.00  0.00    +0.000 A 
ATOM      6  C   UNL     1       0.662   9.751  20.100  0.00  0.00    +0.000 A 
ENDROOT
BRANCH   4   7
ATOM      7  N   UNL     1       3.114   7.635  18.171  0.00  0.00    +0.000 N 
ATOM      8  C   UNL     1       3.432   6.435  18.806  0.00  0.00    +0.000 C 
ATOM      9  O   UNL     1       2.970   6.126  19.906  0.00  0.00    +0.000 OA
ATOM     10  H   UNL     1       3.842   8.072  17.616  0.00  0.00    +0.000 HD
BRANCH   8  11
ATOM     11  C   UNL     1       4.408   5.493  18.033  0.00  0.00    +0.000 C 
ATOM     12  C   UNL     1       4.888   6.356  16.837  0.00  0.00    +0.000 C 
ATOM     13  C   UNL     1       5.592   5.391  15.907  0.00  0.00    +0.000 C 
ATOM     14  C   UNL     1       4.870   4.076  16.129  0.00  0.00    +0.000 C 
ATOM     15  N   UNL     1       4.041   4.237  17.323  0.00  0.00    +0.000 N 
ATOM     16  C   UNL     1       3.574   3.044  17.896  0.00  0.00    +0.000 C 
ATOM     17  O   UNL     1       3.926   1.959  17.424  0.00  0.00    +0.000 OA
BRANCH  16  18
ATOM     18  C   UNL     1       2.621   3.129  18.988  0.00  0.00    +0.000 A 
ATOM     19  C   UNL     1       1.265   3.364  18.960  0.00  0.00    +0.000 A 
ATOM     20  C   UNL     1       0.681   3.331  20.262  0.00  0.00    +0.000 A 
ATOM     21  C   UNL     1       1.597   2.976  21.223  0.00  0.00    +0.000 A 
ATOM     22  S   UNL     1       3.156   2.743  20.569  0.00  0.00    +0.000 S 
ENDBRANCH  16  18
ENDBRANCH   8  11
ENDBRANCH   4   7
BRANCH   6  23
ATOM     23  S   UNL     1       0.381   9.997  21.846  0.00  0.00    +0.000 S 
ATOM     24  O   UNL     1      -0.849   9.306  22.169  0.00  0.00    +0.000 OA
ATOM     25  O   UNL     1       1.627   9.587  22.466  0.00  0.00    +0.000 OA
BRANCH  23  26
ATOM     26  N   UNL     1       0.144  11.663  22.196  0.00  0.00    +0.000 NA
ATOM     27  C   UNL     1       0.832  12.631  21.301  0.00  0.00    +0.000 C 
ATOM     28  C   UNL     1       0.606  14.101  21.670  0.00  0.00    +0.000 C 
ATOM     29  C   UNL     1      -0.742  14.474  22.274  0.00  0.00    +0.000 C 
ATOM     30  C   UNL     1      -1.313  13.413  23.193  0.00  0.00    +0.000 C 
ATOM     31  C   UNL     1      -1.242  12.016  22.594  0.00  0.00    +0.000 C 
ENDBRANCH  23  26
ENDBRANCH   6  23
BRANCH   1  32
ATOM     32  O   UNL     1      -1.115  11.195  19.128  0.00  0.00    +0.000 OA
BRANCH  32  34
ATOM     33  C   UNL     1      -3.007  11.614  17.615  0.00  0.00    +0.000 C 
ATOM     34  C   UNL     1      -2.418  10.771  18.719  0.00  0.00    +0.000 C 
ENDBRANCH  32  34
ENDBRANCH   1  32
TORSDOF 7
ENDMDL
MODEL 5
REMARK VINA RESULT:      -7.8      1.885      2.974
REMARK  Name = 
REMARK  8 active torsions:
REMARK  status: ('A' for Active; 'I' for Inactive)
REMARK    1  A    between atoms: C_1  and  C_2
REMARK    2  A    between atoms: C_2  and  O_3
REMARK    3  A    between atoms: O_3  and  C_4
REMARK    4  A    between atoms: C_7  and  N_8
REMARK    5  A    between atoms: C_9  and  C_11
REMARK    6  A    between atoms: C_16  and  C_18
REMARK    7  A    between atoms: C_24  and  S_25
REMARK    8  A    between atoms: S_25  and  N_28
REMARK                            x       y       z     vdW  Elec       q    Type
REMARK                         _______ _______ _______ _____ _____    ______ ____
ROOT
ATOM      1  C   UNL     1      -0.059   9.968  20.919  0.00  0.00    +0.000 A 
ATOM      2  C   UNL     1       0.091   8.765  21.624  0.00  0.00    +0.000 A 
ATOM      3  C   UNL     1       1.062   7.816  21.273  0.00  0.00    +0.000 A 
ATOM      4  C   UNL     1       1.881   8.024  20.164  0.00  0.00    +0.000 A 
ATOM      5  C   UNL     1       1.784   9.253  19.498  0.00  0.00    +0.000 A 
ATOM      6  C   UNL     1       0.874  10.264  19.929  0.00  0.00    +0.000 A 
ENDROOT
BRANCH   4   7
ATOM      7  N   UNL     1       2.735   6.996  19.677  0.00  0.00    +0.000 N 
ATOM      8  C   UNL     1       2.691   6.509  18.371  0.00  0.00    +0.000 C 
ATOM      9  O   UNL     1       1.710   6.659  17.641  0.00  0.00    +0.000 OA
ATOM     10  H   UNL     1       3.246   6.446  20.360  0.00  0.00    +0.000 HD
BRANCH   8  11
ATOM     11  C   UNL     1       3.973   5.765  17.879  0.00  0.00    +0.000 C 
ATOM     12  C   UNL     1       4.464   6.621  16.683  0.00  0.00    +0.000 C 
ATOM     13  C   UNL     1       5.519   5.779  15.997  0.00  0.00    +0.000 C 
ATOM     14  C   UNL     1       5.072   4.353  16.254  0.00  0.00    +0.000 C 
ATOM     15  N   UNL     1       4.024   4.407  17.272  0.00  0.00    +0.000 N 
ATOM     16  C   UNL     1       3.731   3.186  17.899  0.00  0.00    +0.000 C 
ATOM     17  O   UNL     1       4.390   2.180  17.620  0.00  0.00    +0.000 OA
BRANCH  16  18
ATOM     18  C   UNL     1       2.599   3.129  18.807  0.00  0.00    +0.000 A 
ATOM     19  C   UNL     1       1.253   3.032  18.536  0.00  0.00    +0.000 A 
ATOM     20  C   UNL     1       0.463   2.966  19.723  0.00  0.00    +0.000 A 
ATOM     21  C   UNL     1       1.243   2.918  20.852  0.00  0.00    +0.000 A 
ATOM     22  S   UNL     1       2.907   3.011  20.488  0.00  0.00    +0.000 S 
ENDBRANCH  16  18
ENDBRANCH   8  11
ENDBRANCH   4   7
BRANCH   6  23
ATOM     23  S   UNL     1       1.120  11.863  19.175  0.00  0.00    +0.000 S 
ATOM     24  O   UNL     1       2.276  11.741  18.312  0.00  0.00    +0.000 OA
ATOM     25  O   UNL     1      -0.176  12.191  18.609  0.00  0.00    +0.000 OA
BRANCH  23  26
ATOM     26  N   UNL     1       1.488  13.049  20.365  0.00  0.00    +0.000 NA
ATOM     27  C   UNL     1       2.781  13.765  20.206  0.00  0.00    +0.000 C 
ATOM     28  C   UNL     1       3.071  14.794  21.304  0.00  0.00    +0.000 C 
ATOM     29  C   UNL     1       1.881  15.530  21.908  0.00  0.00    +0.000 C 
ATOM     30  C   UNL     1       0.639  14.672  22.044  0.00  0.00    +0.000 C 
ATOM     31  C   UNL     1       0.331  13.878  20.784  0.00  0.00    +0.000 C 
ENDBRANCH  23  26
ENDBRANCH   6  23
BRANCH   1  32
ATOM     32  O   UNL     1      -1.114  10.717  21.356  0.00  0.00    +0.000 OA
BRANCH  32  34
ATOM     33  C   UNL     1      -2.092  12.128  23.116  0.00  0.00    +0.000 C 
ATOM     34  C   UNL     1      -1.132  11.022  22.753  0.00  0.00    +0.000 C 
ENDBRANCH  32  34
ENDBRANCH   1  32
TORSDOF 7
ENDMDL
MODEL 6
REMARK VINA RESULT:      -7.7      1.843      3.482
REMARK  Name = 
REMARK  8 active torsions:
REMARK  status: ('A' for Active; 'I' for Inactive)
REMARK    1  A    between atoms: C_1  and  C_2
REMARK    2  A    between atoms: C_2  and  O_3
REMARK    3  A    between atoms: O_3  and  C_4
REMARK    4  A    between atoms: C_7  and  N_8
REMARK    5  A    between atoms: C_9  and  C_11
REMARK    6  A    between atoms: C_16  and  C_18
REMARK    7  A    between atoms: C_24  and  S_25
REMARK    8  A    between atoms: S_25  and  N_28
REMARK                            x       y       z     vdW  Elec       q    Type
REMARK                         _______ _______ _______ _____ _____    ______ ____
ROOT
ATOM      1  C   UNL     1      -0.308   9.911  21.324  0.00  0.00    +0.000 A 
ATOM      2  C   UNL     1       0.255   8.934  22.159  0.00  0.00    +0.000 A 
ATOM      3  C   UNL     1       1.278   8.083  21.717  0.00  0.00    +0.000 A 
ATOM      4  C   UNL     1       1.734   8.153  20.402  0.00  0.00    +0.000 A 
ATOM      5  C   UNL     1       1.226   9.171  19.584  0.00  0.00    +0.000 A 
ATOM      6  C   UNL     1       0.266  10.109  20.072  0.00  0.00    +0.000 A 
ENDROOT
BRANCH   4   7
ATOM      7  N   UNL     1       2.629   7.178  19.880  0.00  0.00    +0.000 N 
ATOM      8  C   UNL     1       2.733   6.871  18.524  0.00  0.00    +0.000 C 
ATOM      9  O   UNL     1       1.845   7.142  17.714  0.00  0.00    +0.000 OA
ATOM     10  H   UNL     1       3.052   6.530  20.536  0.00  0.00    +0.000 HD
BRANCH   8  11
ATOM     11  C   UNL     1       4.056   6.168  18.085  0.00  0.00    +0.000 C 
ATOM     12  C   UNL     1       4.495   6.954  16.822  0.00  0.00    +0.000 C 
ATOM     13  C   UNL     1       5.597   6.124  16.200  0.00  0.00    +0.000 C 
ATOM     14  C   UNL     1       5.236   4.699  16.570  0.00  0.00    +0.000 C 
ATOM     15  N   UNL     1       4.188   4.772  17.587  0.00  0.00    +0.000 N 
ATOM     16  C   UNL     1       3.968   3.589  18.310  0.00  0.00    +0.000 C 
ATOM     17  O   UNL     1       4.686   2.605  18.108  0.00  0.00    +0.000 OA
BRANCH  16  18
ATOM     18  C   UNL     1       2.843   3.537  19.226  0.00  0.00    +0.000 A 
ATOM     19  C   UNL     1       2.811   3.688  20.595  0.00  0.00    +0.000 A 
ATOM     20  C   UNL     1       1.486   3.604  21.119  0.00  0.00    +0.000 A 
ATOM     21  C   UNL     1       0.549   3.488  20.122  0.00  0.00    +0.000 A 
ATOM     22  S   UNL     1       1.263   3.423  18.574  0.00  0.00    +0.000 S 
ENDBRANCH  16  18
ENDBRANCH   8  11
ENDBRANCH   4   7
BRANCH   6  23
ATOM     23  S   UNL     1      -0.015  11.514  19.008  0.00  0.00    +0.000 S 
ATOM     24  O   UNL     1      -0.225  12.655  19.874  0.00  0.00    +0.000 OA
ATOM     25  O   UNL     1       1.113  11.497  18.094  0.00  0.00    +0.000 OA
BRANCH  23  26
ATOM     26  N   UNL     1      -1.445  11.301  18.079  0.00  0.00    +0.000 NA
ATOM     27  C   UNL     1      -1.523  10.061  17.263  0.00  0.00    +0.000 C 
ATOM     28  C   UNL     1      -2.808   9.929  16.437  0.00  0.00    +0.000 C 
ATOM     29  C   UNL     1      -4.085  10.513  17.028  0.00  0.00    +0.000 C 
ATOM     30  C   UNL     1      -3.866  11.794  17.807  0.00  0.00    +0.000 C 
ATOM     31  C   UNL     1      -2.694  11.703  18.773  0.00  0.00    +0.000 C 
ENDBRANCH  23  26
ENDBRANCH   6  23
BRANCH   1  32
ATOM     32  O   UNL     1      -1.350  10.576  21.906  0.00  0.00    +0.000 OA
BRANCH  32  34
ATOM     33  C   UNL     1      -1.732  12.684  23.111  0.00  0.00    +0.000 C 
ATOM     34  C   UNL     1      -1.032  11.349  23.066  0.00  0.00    +0.000 C 
ENDBRANCH  32  34
ENDBRANCH   1  32
TORSDOF 7
ENDMDL
MODEL 7
REMARK VINA RESULT:      -7.5      1.760      3.259
REMARK  Name = 
REMARK  8 active torsions:
REMARK  status: ('A' for Active; 'I' for Inactive)
REMARK    1  A    between atoms: C_1  and  C_2
REMARK    2  A    between atoms: C_2  and  O_3
REMARK    3  A    between atoms: O_3  and  C_4
REMARK    4  A    between atoms: C_7  and  N_8
REMARK    5  A    between atoms: C_9  and  C_11
REMARK    6  A    between atoms: C_16  and  C_18
REMARK    7  A    between atoms: C_24  and  S_25
REMARK    8  A    between atoms: S_25  and  N_28
REMARK                            x       y       z     vdW  Elec       q    Type
REMARK                         _______ _______ _______ _____ _____    ______ ____
ROOT
ATOM      1  C   UNL     1      -0.277   9.886  21.451  0.00  0.00    +0.000 A 
ATOM      2  C   UNL     1       0.416   9.000  22.290  0.00  0.00    +0.000 A 
ATOM      3  C   UNL     1       1.433   8.164  21.807  0.00  0.00    +0.000 A 
ATOM      4  C   UNL     1       1.752   8.155  20.450  0.00  0.00    +0.000 A 
ATOM      5  C   UNL     1       1.114   9.086  19.620  0.00  0.00    +0.000 A 
ATOM      6  C   UNL     1       0.160  10.015  20.136  0.00  0.00    +0.000 A 
ENDROOT
BRANCH   4   7
ATOM      7  N   UNL     1       2.640   7.185  19.910  0.00  0.00    +0.000 N 
ATOM      8  C   UNL     1       2.618   6.774  18.578  0.00  0.00    +0.000 C 
ATOM      9  O   UNL     1       1.635   6.935  17.852  0.00  0.00    +0.000 OA
ATOM     10  H   UNL     1       3.165   6.613  20.563  0.00  0.00    +0.000 HD
BRANCH   8  11
ATOM     11  C   UNL     1       3.925   6.100  18.052  0.00  0.00    +0.000 C 
ATOM     12  C   UNL     1       4.405   7.050  16.924  0.00  0.00    +0.000 C 
ATOM     13  C   UNL     1       5.490   6.287  16.195  0.00  0.00    +0.000 C 
ATOM     14  C   UNL     1       5.079   4.834  16.346  0.00  0.00    +0.000 C 
ATOM     15  N   UNL     1       4.019   4.790  17.352  0.00  0.00    +0.000 N 
ATOM     16  C   UNL     1       3.752   3.521  17.888  0.00  0.00    +0.000 C 
ATOM     17  O   UNL     1       4.442   2.555  17.548  0.00  0.00    +0.000 OA
BRANCH  16  18
ATOM     18  C   UNL     1       2.613   3.371  18.776  0.00  0.00    +0.000 A 
ATOM     19  C   UNL     1       1.279   3.202  18.479  0.00  0.00    +0.000 A 
ATOM     20  C   UNL     1       0.478   3.054  19.651  0.00  0.00    +0.000 A 
ATOM     21  C   UNL     1       1.242   3.020  20.791  0.00  0.00    +0.000 A 
ATOM     22  S   UNL     1       2.903   3.221  20.458  0.00  0.00    +0.000 S 
ENDBRANCH  16  18
ENDBRANCH   8  11
ENDBRANCH   4   7
BRANCH   6  23
ATOM     23  S   UNL     1      -0.296  11.323  19.011  0.00  0.00    +0.000 S 
ATOM     24  O   UNL     1      -0.115  12.568  19.727  0.00  0.00    +0.000 OA
ATOM     25  O   UNL     1       0.487  11.052  17.818  0.00  0.00    +0.000 OA
BRANCH  23  26
ATOM     26  N   UNL     1      -1.958  11.210  18.584  0.00  0.00    +0.000 NA
ATOM     27  C   UNL     1      -2.882  12.144  19.278  0.00  0.00    +0.000 C 
ATOM     28  C   UNL     1      -4.354  11.988  18.879  0.00  0.00    +0.000 C 
ATOM     29  C   UNL     1      -4.651  11.575  17.443  0.00  0.00    +0.000 C 
ATOM     30  C   UNL     1      -3.649  10.594  16.871  0.00  0.00    +0.000 C 
ATOM     31  C   UNL     1      -2.207  11.002  17.137  0.00  0.00    +0.000 C 
ENDBRANCH  23  26
ENDBRANCH   6  23
BRANCH   1  32
ATOM     32  O   UNL     1      -1.288  10.546  22.088  0.00  0.00    +0.000 OA
BRANCH  32  34
ATOM     33  C   UNL     1      -2.079  12.621  23.145  0.00  0.00    +0.000 C 
ATOM     34  C   UNL     1      -0.914  11.722  22.812  0.00  0.00    +0.000 C 
ENDBRANCH  32  34
ENDBRANCH   1  32
TORSDOF 7
ENDMDL
MODEL 8
REMARK VINA RESULT:      -7.5      1.987      3.863
REMARK  Name = 
REMARK  8 active torsions:
REMARK  status: ('A' for Active; 'I' for Inactive)
REMARK    1  A    between atoms: C_1  and  C_2
REMARK    2  A    between atoms: C_2  and  O_3
REMARK    3  A    between atoms: O_3  and  C_4
REMARK    4  A    between atoms: C_7  and  N_8
REMARK    5  A    between atoms: C_9  and  C_11
REMARK    6  A    between atoms: C_16  and  C_18
REMARK    7  A    between atoms: C_24  and  S_25
REMARK    8  A    between atoms: S_25  and  N_28
REMARK                            x       y       z     vdW  Elec       q    Type
REMARK                         _______ _______ _______ _____ _____    ______ ____
ROOT
ATOM      1  C   UNL     1       0.849   9.999  21.580  0.00  0.00    +0.000 A 
ATOM      2  C   UNL     1       1.215   8.697  21.951  0.00  0.00    +0.000 A 
ATOM      3  C   UNL     1       1.685   7.764  21.015  0.00  0.00    +0.000 A 
ATOM      4  C   UNL     1       1.754   8.096  19.663  0.00  0.00    +0.000 A 
ATOM      5  C   UNL     1       1.457   9.416  19.295  0.00  0.00    +0.000 A 
ATOM      6  C   UNL     1       1.088  10.395  20.267  0.00  0.00    +0.000 A 
ENDROOT
BRANCH   4   7
ATOM      7  N   UNL     1       2.042   7.113  18.677  0.00  0.00    +0.000 N 
ATOM      8  C   UNL     1       2.978   6.093  18.853  0.00  0.00    +0.000 C 
ATOM      9  O   UNL     1       3.871   6.153  19.700  0.00  0.00    +0.000 OA
ATOM     10  H   UNL     1       1.715   7.283  17.733  0.00  0.00    +0.000 HD
BRANCH   8  11
ATOM     11  C   UNL     1       2.820   4.856  17.913  0.00  0.00    +0.000 C 
ATOM     12  C   UNL     1       1.792   3.958  18.649  0.00  0.00    +0.000 C 
ATOM     13  C   UNL     1       1.839   2.627  17.929  0.00  0.00    +0.000 C 
ATOM     14  C   UNL     1       3.269   2.529  17.433  0.00  0.00    +0.000 C 
ATOM     15  N   UNL     1       3.872   3.851  17.598  0.00  0.00    +0.000 N 
ATOM     16  C   UNL     1       5.060   4.063  16.881  0.00  0.00    +0.000 C 
ATOM     17  O   UNL     1       5.485   3.184  16.126  0.00  0.00    +0.000 OA
BRANCH  16  18
ATOM     18  C   UNL     1       5.798   5.292  17.114  0.00  0.00    +0.000 A 
ATOM     19  C   UNL     1       5.569   6.563  16.637  0.00  0.00    +0.000 A 
ATOM     20  C   UNL     1       6.513   7.509  17.138  0.00  0.00    +0.000 A 
ATOM     21  C   UNL     1       7.368   6.942  18.052  0.00  0.00    +0.000 A 
ATOM     22  S   UNL     1       7.071   5.275  18.260  0.00  0.00    +0.000 S 
ENDBRANCH  16  18
ENDBRANCH   8  11
ENDBRANCH   4   7
BRANCH   6  23
ATOM     23  S   UNL     1       1.069  12.075  19.666  0.00  0.00    +0.000 S 
ATOM     24  O   UNL     1       1.920  12.842  20.551  0.00  0.00    +0.000 OA
ATOM     25  O   UNL     1       1.411  11.952  18.260  0.00  0.00    +0.000 OA
BRANCH  23  26
ATOM     26  N   UNL     1      -0.513  12.741  19.765  0.00  0.00    +0.000 NA
ATOM     27  C   UNL     1      -1.642  11.784  19.627  0.00  0.00    +0.000 C 
ATOM     28  C   UNL     1      -3.029  12.431  19.701  0.00  0.00    +0.000 C 
ATOM     29  C   UNL     1      -3.190  13.646  20.604  0.00  0.00    +0.000 C 
ATOM     30  C   UNL     1      -1.978  14.555  20.626  0.00  0.00    +0.000 C 
ATOM     31  C   UNL     1      -0.673  13.792  20.801  0.00  0.00    +0.000 C 
ENDBRANCH  23  26
ENDBRANCH   6  23
BRANCH   1  32
ATOM     32  O   UNL     1       0.333  10.725  22.614  0.00  0.00    +0.000 OA
BRANCH  32  34
ATOM     33  C   UNL     1      -1.867  11.524  23.368  0.00  0.00    +0.000 C 
ATOM     34  C   UNL     1      -0.974  10.348  23.057  0.00  0.00    +0.000 C 
ENDBRANCH  32  34
ENDBRANCH   1  32
TORSDOF 7
ENDMDL
MODEL 9
REMARK VINA RESULT:      -7.5      0.810      1.038
REMARK  Name = 
REMARK  8 active torsions:
REMARK  status: ('A' for Active; 'I' for Inactive)
REMARK    1  A    between atoms: C_1  and  C_2
REMARK    2  A    between atoms: C_2  and  O_3
REMARK    3  A    between atoms: O_3  and  C_4
REMARK    4  A    between atoms: C_7  and  N_8
REMARK    5  A    between atoms: C_9  and  C_11
REMARK    6  A    between atoms: C_16  and  C_18
REMARK    7  A    between atoms: C_24  and  S_25
REMARK    8  A    between atoms: S_25  and  N_28
REMARK                            x       y       z     vdW  Elec       q    Type
REMARK                         _______ _______ _______ _____ _____    ______ ____
ROOT
ATOM      1  C   UNL     1      -0.595  10.347  18.857  0.00  0.00    +0.000 A 
ATOM      2  C   UNL     1      -0.486   9.594  17.679  0.00  0.00    +0.000 A 
ATOM      3  C   UNL     1       0.597   8.735  17.445  0.00  0.00    +0.000 A 
ATOM      4  C   UNL     1       1.636   8.644  18.370  0.00  0.00    +0.000 A 
ATOM      5  C   UNL     1       1.501   9.340  19.579  0.00  0.00    +0.000 A 
ATOM      6  C   UNL     1       0.342  10.124  19.862  0.00  0.00    +0.000 A 
ENDROOT
BRANCH   4   7
ATOM      7  N   UNL     1       2.830   7.932  18.068  0.00  0.00    +0.000 N 
ATOM      8  C   UNL     1       3.202   6.745  18.699  0.00  0.00    +0.000 C 
ATOM      9  O   UNL     1       2.737   6.400  19.786  0.00  0.00    +0.000 OA
ATOM     10  H   UNL     1       3.542   8.414  17.531  0.00  0.00    +0.000 HD
BRANCH   8  11
ATOM     11  C   UNL     1       4.242   5.866  17.935  0.00  0.00    +0.000 C 
ATOM     12  C   UNL     1       4.662   6.748  16.730  0.00  0.00    +0.000 C 
ATOM     13  C   UNL     1       5.433   5.826  15.811  0.00  0.00    +0.000 C 
ATOM     14  C   UNL     1       4.805   4.466  16.046  0.00  0.00    +0.000 C 
ATOM     15  N   UNL     1       3.966   4.581  17.238  0.00  0.00    +0.000 N 
ATOM     16  C   UNL     1       3.583   3.364  17.823  0.00  0.00    +0.000 C 
ATOM     17  O   UNL     1       4.011   2.301  17.362  0.00  0.00    +0.000 OA
BRANCH  16  18
ATOM     18  C   UNL     1       2.625   3.392  18.914  0.00  0.00    +0.000 A 
ATOM     19  C   UNL     1       1.265   3.604  18.890  0.00  0.00    +0.000 A 
ATOM     20  C   UNL     1       0.679   3.514  20.188  0.00  0.00    +0.000 A 
ATOM     21  C   UNL     1       1.597   3.141  21.138  0.00  0.00    +0.000 A 
ATOM     22  S   UNL     1       3.162   2.959  20.483  0.00  0.00    +0.000 S 
ENDBRANCH  16  18
ENDBRANCH   8  11
ENDBRANCH   4   7
BRANCH   6  23
ATOM     23  S   UNL     1       0.198  10.661  21.558  0.00  0.00    +0.000 S 
ATOM     24  O   UNL     1      -1.042  10.111  22.063  0.00  0.00    +0.000 OA
ATOM     25  O   UNL     1       1.461  10.274  22.160  0.00  0.00    +0.000 OA
BRANCH  23  26
ATOM     26  N   UNL     1       0.077  12.374  21.648  0.00  0.00    +0.000 NA
ATOM     27  C   UNL     1      -0.740  12.920  22.763  0.00  0.00    +0.000 C 
ATOM     28  C   UNL     1      -0.834  14.450  22.785  0.00  0.00    +0.000 C 
ATOM     29  C   UNL     1       0.376  15.234  22.295  0.00  0.00    +0.000 C 
ATOM     30  C   UNL     1       1.096  14.581  21.132  0.00  0.00    +0.000 C 
ATOM     31  C   UNL     1       1.339  13.095  21.351  0.00  0.00    +0.000 C 
ENDBRANCH  23  26
ENDBRANCH   6  23
BRANCH   1  32
ATOM     32  O   UNL     1      -1.670  11.188  18.858  0.00  0.00    +0.000 OA
BRANCH  32  34
ATOM     33  C   UNL     1      -0.552  13.284  18.224  0.00  0.00    +0.000 C 
ATOM     34  C   UNL     1      -1.625  12.268  17.920  0.00  0.00    +0.000 C 
ENDBRANCH  32  34
ENDBRANCH   1  32
TORSDOF 7
ENDMDL
