MODEL 1
REMARK VINA RESULT:      -9.1      0.000      0.000
REMARK  Name = 
REMARK  13 active torsions:
REMARK  status: ('A' for Active; 'I' for Inactive)
REMARK    1  A    between atoms: C_1  and  C_2
REMARK    2  A    between atoms: C_2  and  C_3
REMARK    3  A    between atoms: C_3  and  S_4
REMARK    4  A    between atoms: C_3  and  C_22
REMARK    5  A    between atoms: S_4  and  C_5
REMARK    6  A    between atoms: C_7  and  O_8
REMARK    7  A    between atoms: C_9  and  C_10
REMARK    8  A    between atoms: C_12  and  C_13
REMARK    9  A    between atoms: C_17  and  O_18
REMARK   10  A    between atoms: O_18  and  C_19
REMARK   11  A    between atoms: C_28  and  C_29
REMARK   12  A    between atoms: C_29  and  C_30
REMARK   13  A    between atoms: C_29  and  C_31
REMARK                            x       y       z     vdW  Elec       q    Type
REMARK                         _______ _______ _______ _____ _____    ______ ____
ROOT
ATOM      1  C   UNL     1       5.584   4.806  19.222  0.00  0.00    +0.000 A 
ATOM      2  N   UNL     1       5.172   3.550  19.370  0.00  0.00    +0.000 NA
ATOM      3  C   UNL     1       3.851   3.389  19.511  0.00  0.00    +0.000 A 
ATOM      4  C   UNL     1       2.911   4.389  19.522  0.00  0.00    +0.000 A 
ATOM      5  C   UNL     1       3.414   5.669  19.332  0.00  0.00    +0.000 A 
ATOM      6  N   UNL     1       4.759   5.870  19.205  0.00  0.00    +0.000 NA
ENDROOT
BRANCH   5   7
ATOM      7  C   UNL     1       2.600   6.915  19.224  0.00  0.00    +0.000 A 
ATOM      8  C   UNL     1       2.464   7.630  18.019  0.00  0.00    +0.000 A 
ATOM      9  C   UNL     1       1.734   8.819  17.941  0.00  0.00    +0.000 A 
ATOM     10  C   UNL     1       1.147   9.345  19.085  0.00  0.00    +0.000 A 
ATOM     11  C   UNL     1       1.262   8.678  20.303  0.00  0.00    +0.000 A 
ATOM     12  C   UNL     1       1.973   7.470  20.365  0.00  0.00    +0.000 A 
BRANCH  11  13
ATOM     13  O   UNL     1       0.650   9.313  21.348  0.00  0.00    +0.000 OA
ATOM     14  C   UNL     1       0.241  10.657  21.136  0.00  0.00    +0.000 C 
ENDBRANCH  11  13
ENDBRANCH   5   7
BRANCH   3  15
ATOM     15  O   UNL     1       3.496   2.084  19.666  0.00  0.00    +0.000 OA
ATOM     16  H   UNL     1       3.681   1.710  18.784  0.00  0.00    +0.000 HD
ENDBRANCH   3  15
BRANCH   4  17
ATOM     17  C   UNL     1       1.535   4.076  19.751  0.00  0.00    +0.000 C 
ATOM     18  N   UNL     1       0.427   3.814  19.961  0.00  0.00    +0.000 NA
ENDBRANCH   4  17
BRANCH   1  19
ATOM     19  S   UNL     1       7.328   5.134  19.251  0.00  0.00    +0.000 S 
BRANCH  19  20
ATOM     20  C   UNL     1       7.649   6.004  17.663  0.00  0.00    +0.000 C 
BRANCH  20  21
ATOM     21  C   UNL     1       7.273   5.175  16.420  0.00  0.00    +0.000 C 
ATOM     22  O   UNL     1       6.651   4.118  16.558  0.00  0.00    +0.000 OA
ATOM     23  N   UNL     1       7.625   5.697  15.190  0.00  0.00    +0.000 N 
ATOM     24  C   UNL     1       7.306   5.089  13.988  0.00  0.00    +0.000 A 
ATOM     25  N   UNL     1       7.927   5.326  12.854  0.00  0.00    +0.000 NA
ATOM     26  N   UNL     1       7.435   4.545  11.812  0.00  0.00    +0.000 NA
ATOM     27  C   UNL     1       6.418   3.795  12.188  0.00  0.00    +0.000 A 
ATOM     28  S   UNL     1       5.990   4.006  13.833  0.00  0.00    +0.000 S 
ATOM     29  H   UNL     1       8.358   6.393  15.136  0.00  0.00    +0.000 HD
BRANCH  27  30
ATOM     30  C   UNL     1       5.623   2.857  11.315  0.00  0.00    +0.000 C 
ATOM     31  C   UNL     1       6.012   1.405  11.590  0.00  0.00    +0.000 C 
ATOM     32  C   UNL     1       4.117   3.048  11.494  0.00  0.00    +0.000 C 
ENDBRANCH  27  30
ENDBRANCH  20  21
BRANCH  20  34
ATOM     33  C   UNL     1       7.835   8.631  17.702  0.00  0.00    +0.000 C 
ATOM     34  C   UNL     1       6.980   7.391  17.519  0.00  0.00    +0.000 C 
ENDBRANCH  20  34
ENDBRANCH  19  20
ENDBRANCH   1  19
TORSDOF 9
ENDMDL
MODEL 2
REMARK VINA RESULT:      -8.8      0.864      1.423
REMARK  Name = 
REMARK  13 active torsions:
REMARK  status: ('A' for Active; 'I' for Inactive)
REMARK    1  A    between atoms: C_1  and  C_2
REMARK    2  A    between atoms: C_2  and  C_3
REMARK    3  A    between atoms: C_3  and  S_4
REMARK    4  A    between atoms: C_3  and  C_22
REMARK    5  A    between atoms: S_4  and  C_5
REMARK    6  A    between atoms: C_7  and  O_8
REMARK    7  A    between atoms: C_9  and  C_10
REMARK    8  A    between atoms: C_12  and  C_13
REMARK    9  A    between atoms: C_17  and  O_18
REMARK   10  A    between atoms: O_18  and  C_19
REMARK   11  A    between atoms: C_28  and  C_29
REMARK   12  A    between atoms: C_29  and  C_30
REMARK   13  A    between atoms: C_29  and  C_31
REMARK                            x       y       z     vdW  Elec       q    Type
REMARK                         _______ _______ _______ _____ _____    ______ ____
ROOT
ATOM      1  C   UNL     1       5.614   5.008  19.403  0.00  0.00    +0.000 A 
ATOM      2  N   UNL     1       5.289   3.721  19.318  0.00  0.00    +0.000 NA
ATOM      3  C   UNL     1       3.985   3.446  19.441  0.00  0.00    +0.000 A 
ATOM      4  C   UNL     1       2.982   4.360  19.648  0.00  0.00    +0.000 A 
ATOM      5  C   UNL     1       3.395   5.684  19.694  0.00  0.00    +0.000 A 
ATOM      6  N   UNL     1       4.721   5.998  19.592  0.00  0.00    +0.000 NA
ENDROOT
BRANCH   5   7
ATOM      7  C   UNL     1       2.499   6.869  19.829  0.00  0.00    +0.000 A 
ATOM      8  C   UNL     1       1.649   7.054  20.936  0.00  0.00    +0.000 A 
ATOM      9  C   UNL     1       0.783   8.147  21.031  0.00  0.00    +0.000 A 
ATOM     10  C   UNL     1       0.721   9.070  19.995  0.00  0.00    +0.000 A 
ATOM     11  C   UNL     1       1.536   8.925  18.875  0.00  0.00    +0.000 A 
ATOM     12  C   UNL     1       2.423   7.839  18.802  0.00  0.00    +0.000 A 
BRANCH  11  13
ATOM     13  O   UNL     1       1.362   9.894  17.927  0.00  0.00    +0.000 OA
ATOM     14  C   UNL     1       1.406  11.243  18.368  0.00  0.00    +0.000 C 
ENDBRANCH  11  13
ENDBRANCH   5   7
BRANCH   3  15
ATOM     15  O   UNL     1       3.721   2.114  19.354  0.00  0.00    +0.000 OA
ATOM     16  H   UNL     1       2.823   2.102  18.973  0.00  0.00    +0.000 HD
ENDBRANCH   3  15
BRANCH   4  17
ATOM     17  C   UNL     1       1.636   3.915  19.830  0.00  0.00    +0.000 C 
ATOM     18  N   UNL     1       0.538   3.568  19.955  0.00  0.00    +0.000 NA
ENDBRANCH   4  17
BRANCH   1  19
ATOM     19  S   UNL     1       7.333   5.445  19.473  0.00  0.00    +0.000 S 
BRANCH  19  20
ATOM     20  C   UNL     1       7.687   6.153  17.813  0.00  0.00    +0.000 C 
BRANCH  20  21
ATOM     21  C   UNL     1       7.300   5.219  16.650  0.00  0.00    +0.000 C 
ATOM     22  O   UNL     1       6.824   4.107  16.895  0.00  0.00    +0.000 OA
ATOM     23  N   UNL     1       7.473   5.710  15.371  0.00  0.00    +0.000 N 
ATOM     24  C   UNL     1       7.120   5.003  14.233  0.00  0.00    +0.000 A 
ATOM     25  N   UNL     1       7.602   5.246  13.034  0.00  0.00    +0.000 NA
ATOM     26  N   UNL     1       7.114   4.358  12.081  0.00  0.00    +0.000 NA
ATOM     27  C   UNL     1       6.231   3.518  12.587  0.00  0.00    +0.000 A 
ATOM     28  S   UNL     1       5.934   3.770  14.255  0.00  0.00    +0.000 S 
ATOM     29  H   UNL     1       8.110   6.481  15.215  0.00  0.00    +0.000 HD
BRANCH  27  30
ATOM     30  C   UNL     1       5.477   2.449  11.838  0.00  0.00    +0.000 C 
ATOM     31  C   UNL     1       4.324   3.059  11.044  0.00  0.00    +0.000 C 
ATOM     32  C   UNL     1       6.390   1.643  10.916  0.00  0.00    +0.000 C 
ENDBRANCH  27  30
ENDBRANCH  20  21
BRANCH  20  34
ATOM     33  C   UNL     1       7.899   8.777  17.741  0.00  0.00    +0.000 C 
ATOM     34  C   UNL     1       7.053   7.535  17.533  0.00  0.00    +0.000 C 
ENDBRANCH  20  34
ENDBRANCH  19  20
ENDBRANCH   1  19
TORSDOF 9
ENDMDL
MODEL 3
REMARK VINA RESULT:      -8.2      4.716      8.891
REMARK  Name = 
REMARK  13 active torsions:
REMARK  status: ('A' for Active; 'I' for Inactive)
REMARK    1  A    between atoms: C_1  and  C_2
REMARK    2  A    between atoms: C_2  and  C_3
REMARK    3  A    between atoms: C_3  and  S_4
REMARK    4  A    between atoms: C_3  and  C_22
REMARK    5  A    between atoms: S_4  and  C_5
REMARK    6  A    between atoms: C_7  and  O_8
REMARK    7  A    between atoms: C_9  and  C_10
REMARK    8  A    between atoms: C_12  and  C_13
REMARK    9  A    between atoms: C_17  and  O_18
REMARK   10  A    between atoms: O_18  and  C_19
REMARK   11  A    between atoms: C_28  and  C_29
REMARK   12  A    between atoms: C_29  and  C_30
REMARK   13  A    between atoms: C_29  and  C_31
REMARK                            x       y       z     vdW  Elec       q    Type
REMARK                         _______ _______ _______ _____ _____    ______ ____
ROOT
ATOM      1  C   UNL     1       2.063   7.005  19.913  0.00  0.00    +0.000 A 
ATOM      2  N   UNL     1       1.348   6.049  20.501  0.00  0.00    +0.000 NA
ATOM      3  C   UNL     1       1.596   4.803  20.083  0.00  0.00    +0.000 A 
ATOM      4  C   UNL     1       2.499   4.439  19.115  0.00  0.00    +0.000 A 
ATOM      5  C   UNL     1       3.228   5.487  18.570  0.00  0.00    +0.000 A 
ATOM      6  N   UNL     1       2.987   6.773  18.961  0.00  0.00    +0.000 NA
ENDROOT
BRANCH   5   7
ATOM      7  C   UNL     1       4.322   5.353  17.563  0.00  0.00    +0.000 A 
ATOM      8  C   UNL     1       4.337   4.333  16.593  0.00  0.00    +0.000 A 
ATOM      9  C   UNL     1       5.388   4.193  15.683  0.00  0.00    +0.000 A 
ATOM     10  C   UNL     1       6.476   5.055  15.745  0.00  0.00    +0.000 A 
ATOM     11  C   UNL     1       6.510   6.073  16.695  0.00  0.00    +0.000 A 
ATOM     12  C   UNL     1       5.436   6.224  17.586  0.00  0.00    +0.000 A 
BRANCH  11  13
ATOM     13  O   UNL     1       7.644   6.837  16.655  0.00  0.00    +0.000 OA
ATOM     14  C   UNL     1       7.748   7.888  17.604  0.00  0.00    +0.000 C 
ENDBRANCH  11  13
ENDBRANCH   5   7
BRANCH   3  15
ATOM     15  O   UNL     1       0.827   3.876  20.716  0.00  0.00    +0.000 OA
ATOM     16  H   UNL     1       1.481   3.199  20.970  0.00  0.00    +0.000 HD
ENDBRANCH   3  15
BRANCH   4  17
ATOM     17  C   UNL     1       2.610   3.070  18.718  0.00  0.00    +0.000 C 
ATOM     18  N   UNL     1       2.715   1.969  18.376  0.00  0.00    +0.000 NA
ENDBRANCH   4  17
BRANCH   1  19
ATOM     19  S   UNL     1       1.648   8.698  20.244  0.00  0.00    +0.000 S 
BRANCH  19  20
ATOM     20  C   UNL     1       1.109   9.357  18.614  0.00  0.00    +0.000 C 
BRANCH  20  21
ATOM     21  C   UNL     1      -0.362   9.814  18.591  0.00  0.00    +0.000 C 
ATOM     22  O   UNL     1      -0.988   9.906  19.651  0.00  0.00    +0.000 OA
ATOM     23  N   UNL     1      -0.895  10.144  17.360  0.00  0.00    +0.000 N 
ATOM     24  C   UNL     1      -2.185  10.620  17.195  0.00  0.00    +0.000 A 
ATOM     25  N   UNL     1      -2.847  10.579  16.059  0.00  0.00    +0.000 NA
ATOM     26  N   UNL     1      -4.138  11.082  16.185  0.00  0.00    +0.000 NA
ATOM     27  C   UNL     1      -4.379  11.542  17.397  0.00  0.00    +0.000 A 
ATOM     28  S   UNL     1      -3.039  11.401  18.455  0.00  0.00    +0.000 S 
ATOM     29  H   UNL     1      -0.457   9.793  16.518  0.00  0.00    +0.000 HD
BRANCH  27  30
ATOM     30  C   UNL     1      -5.655  12.187  17.876  0.00  0.00    +0.000 C 
ATOM     31  C   UNL     1      -6.287  13.023  16.765  0.00  0.00    +0.000 C 
ATOM     32  C   UNL     1      -6.654  11.158  18.402  0.00  0.00    +0.000 C 
ENDBRANCH  27  30
ENDBRANCH  20  21
BRANCH  20  34
ATOM     33  C   UNL     1       1.932  11.855  18.756  0.00  0.00    +0.000 C 
ATOM     34  C   UNL     1       1.966  10.512  18.049  0.00  0.00    +0.000 C 
ENDBRANCH  20  34
ENDBRANCH  19  20
ENDBRANCH   1  19
TORSDOF 9
ENDMDL
MODEL 4
REMARK VINA RESULT:      -7.8      4.501      9.024
REMARK  Name = 
REMARK  13 active torsions:
REMARK  status: ('A' for Active; 'I' for Inactive)
REMARK    1  A    between atoms: C_1  and  C_2
REMARK    2  A    between atoms: C_2  and  C_3
REMARK    3  A    between atoms: C_3  and  S_4
REMARK    4  A    between atoms: C_3  and  C_22
REMARK    5  A    between atoms: S_4  and  C_5
REMARK    6  A    between atoms: C_7  and  O_8
REMARK    7  A    between atoms: C_9  and  C_10
REMARK    8  A    between atoms: C_12  and  C_13
REMARK    9  A    between atoms: C_17  and  O_18
REMARK   10  A    between atoms: O_18  and  C_19
REMARK   11  A    between atoms: C_28  and  C_29
REMARK   12  A    between atoms: C_29  and  C_30
REMARK   13  A    between atoms: C_29  and  C_31
REMARK                            x       y       z     vdW  Elec       q    Type
REMARK                         _______ _______ _______ _____ _____    ______ ____
ROOT
ATOM      1  C   UNL     1       2.143   6.880  20.054  0.00  0.00    +0.000 A 
ATOM      2  N   UNL     1       1.235   5.988  20.440  0.00  0.00    +0.000 NA
ATOM      3  C   UNL     1       1.494   4.719  20.102  0.00  0.00    +0.000 A 
ATOM      4  C   UNL     1       2.587   4.275  19.401  0.00  0.00    +0.000 A 
ATOM      5  C   UNL     1       3.504   5.260  19.060  0.00  0.00    +0.000 A 
ATOM      6  N   UNL     1       3.262   6.568  19.372  0.00  0.00    +0.000 NA
ENDROOT
BRANCH   5   7
ATOM      7  C   UNL     1       4.807   5.032  18.369  0.00  0.00    +0.000 A 
ATOM      8  C   UNL     1       6.044   5.356  18.959  0.00  0.00    +0.000 A 
ATOM      9  C   UNL     1       7.255   5.177  18.285  0.00  0.00    +0.000 A 
ATOM     10  C   UNL     1       7.256   4.699  16.981  0.00  0.00    +0.000 A 
ATOM     11  C   UNL     1       6.056   4.374  16.352  0.00  0.00    +0.000 A 
ATOM     12  C   UNL     1       4.847   4.530  17.047  0.00  0.00    +0.000 A 
BRANCH  11  13
ATOM     13  O   UNL     1       6.201   3.931  15.066  0.00  0.00    +0.000 OA
ATOM     14  C   UNL     1       6.896   4.780  14.165  0.00  0.00    +0.000 C 
ENDBRANCH  11  13
ENDBRANCH   5   7
BRANCH   3  15
ATOM     15  O   UNL     1       0.525   3.859  20.519  0.00  0.00    +0.000 OA
ATOM     16  H   UNL     1       1.044   3.117  20.880  0.00  0.00    +0.000 HD
ENDBRANCH   3  15
BRANCH   4  17
ATOM     17  C   UNL     1       2.700   2.895  19.049  0.00  0.00    +0.000 C 
ATOM     18  N   UNL     1       2.817   1.779  18.761  0.00  0.00    +0.000 NA
ENDBRANCH   4  17
BRANCH   1  19
ATOM     19  S   UNL     1       1.778   8.604  20.263  0.00  0.00    +0.000 S 
BRANCH  19  20
ATOM     20  C   UNL     1       1.177   9.141  18.611  0.00  0.00    +0.000 C 
BRANCH  20  21
ATOM     21  C   UNL     1      -0.288   9.620  18.614  0.00  0.00    +0.000 C 
ATOM     22  O   UNL     1      -0.889   9.732  19.686  0.00  0.00    +0.000 OA
ATOM     23  N   UNL     1      -0.842   9.945  17.391  0.00  0.00    +0.000 N 
ATOM     24  C   UNL     1      -2.128  10.439  17.248  0.00  0.00    +0.000 A 
ATOM     25  N   UNL     1      -2.814  10.396  16.127  0.00  0.00    +0.000 NA
ATOM     26  N   UNL     1      -4.095  10.920  16.275  0.00  0.00    +0.000 NA
ATOM     27  C   UNL     1      -4.303  11.396  17.487  0.00  0.00    +0.000 A 
ATOM     28  S   UNL     1      -2.943  11.245  18.518  0.00  0.00    +0.000 S 
ATOM     29  H   UNL     1      -0.427   9.580  16.543  0.00  0.00    +0.000 HD
BRANCH  27  30
ATOM     30  C   UNL     1      -5.559  12.064  17.986  0.00  0.00    +0.000 C 
ATOM     31  C   UNL     1      -5.277  12.856  19.261  0.00  0.00    +0.000 C 
ATOM     32  C   UNL     1      -6.187  12.967  16.926  0.00  0.00    +0.000 C 
ENDBRANCH  27  30
ENDBRANCH  20  21
BRANCH  20  34
ATOM     33  C   UNL     1       2.014  11.636  18.500  0.00  0.00    +0.000 C 
ATOM     34  C   UNL     1       2.024  10.234  17.920  0.00  0.00    +0.000 C 
ENDBRANCH  20  34
ENDBRANCH  19  20
ENDBRANCH   1  19
TORSDOF 9
ENDMDL
MODEL 5
REMARK VINA RESULT:      -7.6      4.340      9.943
REMARK  Name = 
REMARK  13 active torsions:
REMARK  status: ('A' for Active; 'I' for Inactive)
REMARK    1  A    between atoms: C_1  and  C_2
REMARK    2  A    between atoms: C_2  and  C_3
REMARK    3  A    between atoms: C_3  and  S_4
REMARK    4  A    between atoms: C_3  and  C_22
REMARK    5  A    between atoms: S_4  and  C_5
REMARK    6  A    between atoms: C_7  and  O_8
REMARK    7  A    between atoms: C_9  and  C_10
REMARK    8  A    between atoms: C_12  and  C_13
REMARK    9  A    between atoms: C_17  and  O_18
REMARK   10  A    between atoms: O_18  and  C_19
REMARK   11  A    between atoms: C_28  and  C_29
REMARK   12  A    between atoms: C_29  and  C_30
REMARK   13  A    between atoms: C_29  and  C_31
REMARK                            x       y       z     vdW  Elec       q    Type
REMARK                         _______ _______ _______ _____ _____    ______ ____
ROOT
ATOM      1  C   UNL     1       1.915   6.426  20.495  0.00  0.00    +0.000 A 
ATOM      2  N   UNL     1       1.066   5.410  20.630  0.00  0.00    +0.000 NA
ATOM      3  C   UNL     1       1.395   4.293  19.971  0.00  0.00    +0.000 A 
ATOM      4  C   UNL     1       2.504   4.116  19.181  0.00  0.00    +0.000 A 
ATOM      5  C   UNL     1       3.357   5.209  19.114  0.00  0.00    +0.000 A 
ATOM      6  N   UNL     1       3.041   6.372  19.759  0.00  0.00    +0.000 NA
ENDROOT
BRANCH   5   7
ATOM      7  C   UNL     1       4.662   5.250  18.392  0.00  0.00    +0.000 A 
ATOM      8  C   UNL     1       5.900   5.172  19.060  0.00  0.00    +0.000 A 
ATOM      9  C   UNL     1       7.116   5.254  18.376  0.00  0.00    +0.000 A 
ATOM     10  C   UNL     1       7.124   5.453  17.002  0.00  0.00    +0.000 A 
ATOM     11  C   UNL     1       5.924   5.546  16.299  0.00  0.00    +0.000 A 
ATOM     12  C   UNL     1       4.708   5.434  16.991  0.00  0.00    +0.000 A 
BRANCH  11  13
ATOM     13  O   UNL     1       6.077   5.758  14.957  0.00  0.00    +0.000 OA
ATOM     14  C   UNL     1       6.866   4.818  14.242  0.00  0.00    +0.000 C 
ENDBRANCH  11  13
ENDBRANCH   5   7
BRANCH   3  15
ATOM     15  O   UNL     1       0.484   3.297  20.143  0.00  0.00    +0.000 OA
ATOM     16  H   UNL     1      -0.054   3.631  20.885  0.00  0.00    +0.000 HD
ENDBRANCH   3  15
BRANCH   4  17
ATOM     17  C   UNL     1       2.694   2.886  18.479  0.00  0.00    +0.000 C 
ATOM     18  N   UNL     1       2.823   1.890  17.902  0.00  0.00    +0.000 NA
ENDBRANCH   4  17
BRANCH   1  19
ATOM     19  S   UNL     1       1.451   8.009  21.149  0.00  0.00    +0.000 S 
BRANCH  19  20
ATOM     20  C   UNL     1       0.853   8.945  19.683  0.00  0.00    +0.000 C 
BRANCH  20  21
ATOM     21  C   UNL     1       0.072  10.222  20.044  0.00  0.00    +0.000 C 
ATOM     22  O   UNL     1      -0.403  10.921  19.144  0.00  0.00    +0.000 OA
ATOM     23  N   UNL     1      -0.094  10.495  21.389  0.00  0.00    +0.000 N 
ATOM     24  C   UNL     1      -0.817  11.577  21.860  0.00  0.00    +0.000 A 
ATOM     25  N   UNL     1      -0.685  12.085  23.066  0.00  0.00    +0.000 NA
ATOM     26  N   UNL     1      -1.500  13.196  23.261  0.00  0.00    +0.000 NA
ATOM     27  C   UNL     1      -2.264  13.445  22.215  0.00  0.00    +0.000 A 
ATOM     28  S   UNL     1      -2.043  12.330  20.933  0.00  0.00    +0.000 S 
ATOM     29  H   UNL     1       0.532  10.072  22.063  0.00  0.00    +0.000 HD
BRANCH  27  30
ATOM     30  C   UNL     1      -3.287  14.545  22.091  0.00  0.00    +0.000 C 
ATOM     31  C   UNL     1      -4.683  14.022  22.430  0.00  0.00    +0.000 C 
ATOM     32  C   UNL     1      -2.943  15.748  22.967  0.00  0.00    +0.000 C 
ENDBRANCH  27  30
ENDBRANCH  20  21
BRANCH  20  34
ATOM     33  C   UNL     1       2.159   8.444  17.451  0.00  0.00    +0.000 C 
ATOM     34  C   UNL     1       1.942   9.338  18.658  0.00  0.00    +0.000 C 
ENDBRANCH  20  34
ENDBRANCH  19  20
ENDBRANCH   1  19
TORSDOF 9
ENDMDL
MODEL 6
REMARK VINA RESULT:      -7.5      4.815      9.796
REMARK  Name = 
REMARK  13 active torsions:
REMARK  status: ('A' for Active; 'I' for Inactive)
REMARK    1  A    between atoms: C_1  and  C_2
REMARK    2  A    between atoms: C_2  and  C_3
REMARK    3  A    between atoms: C_3  and  S_4
REMARK    4  A    between atoms: C_3  and  C_22
REMARK    5  A    between atoms: S_4  and  C_5
REMARK    6  A    between atoms: C_7  and  O_8
REMARK    7  A    between atoms: C_9  and  C_10
REMARK    8  A    between atoms: C_12  and  C_13
REMARK    9  A    between atoms: C_17  and  O_18
REMARK   10  A    between atoms: O_18  and  C_19
REMARK   11  A    between atoms: C_28  and  C_29
REMARK   12  A    between atoms: C_29  and  C_30
REMARK   13  A    between atoms: C_29  and  C_31
REMARK                            x       y       z     vdW  Elec       q    Type
REMARK                         _______ _______ _______ _____ _____    ______ ____
ROOT
ATOM      1  C   UNL     1       2.500   7.563  18.522  0.00  0.00    +0.000 A 
ATOM      2  N   UNL     1       2.163   6.965  19.662  0.00  0.00    +0.000 NA
ATOM      3  C   UNL     1       2.803   5.819  19.923  0.00  0.00    +0.000 A 
ATOM      4  C   UNL     1       3.749   5.222  19.128  0.00  0.00    +0.000 A 
ATOM      5  C   UNL     1       4.069   5.921  17.972  0.00  0.00    +0.000 A 
ATOM      6  N   UNL     1       3.421   7.083  17.666  0.00  0.00    +0.000 NA
ENDROOT
BRANCH   5   7
ATOM      7  C   UNL     1       5.117   5.530  16.983  0.00  0.00    +0.000 A 
ATOM      8  C   UNL     1       6.439   6.009  17.052  0.00  0.00    +0.000 A 
ATOM      9  C   UNL     1       7.400   5.669  16.095  0.00  0.00    +0.000 A 
ATOM     10  C   UNL     1       7.049   4.865  15.019  0.00  0.00    +0.000 A 
ATOM     11  C   UNL     1       5.749   4.375  14.903  0.00  0.00    +0.000 A 
ATOM     12  C   UNL     1       4.800   4.698  15.884  0.00  0.00    +0.000 A 
BRANCH  11  13
ATOM     13  O   UNL     1       5.537   3.610  13.790  0.00  0.00    +0.000 OA
ATOM     14  C   UNL     1       6.440   3.781  12.708  0.00  0.00    +0.000 C 
ENDBRANCH  11  13
ENDBRANCH   5   7
BRANCH   3  15
ATOM     15  O   UNL     1       2.407   5.255  21.097  0.00  0.00    +0.000 OA
ATOM     16  H   UNL     1       1.455   5.468  21.121  0.00  0.00    +0.000 HD
ENDBRANCH   3  15
BRANCH   4  17
ATOM     17  C   UNL     1       4.302   3.958  19.501  0.00  0.00    +0.000 C 
ATOM     18  N   UNL     1       4.771   2.939  19.788  0.00  0.00    +0.000 NA
ENDBRANCH   4  17
BRANCH   1  19
ATOM     19  S   UNL     1       1.550   8.964  17.988  0.00  0.00    +0.000 S 
BRANCH  19  20
ATOM     20  C   UNL     1       1.170   9.870  19.542  0.00  0.00    +0.000 C 
BRANCH  20  21
ATOM     21  C   UNL     1       1.218  11.402  19.389  0.00  0.00    +0.000 C 
ATOM     22  O   UNL     1       1.883  11.903  18.477  0.00  0.00    +0.000 OA
ATOM     23  N   UNL     1       0.462  12.143  20.276  0.00  0.00    +0.000 N 
ATOM     24  C   UNL     1       0.369  13.524  20.225  0.00  0.00    +0.000 A 
ATOM     25  N   UNL     1      -0.003  14.277  21.236  0.00  0.00    +0.000 NA
ATOM     26  N   UNL     1       0.034  15.632  20.925  0.00  0.00    +0.000 NA
ATOM     27  C   UNL     1       0.373  15.847  19.668  0.00  0.00    +0.000 A 
ATOM     28  S   UNL     1       0.653  14.405  18.786  0.00  0.00    +0.000 S 
ATOM     29  H   UNL     1       0.174  11.728  21.153  0.00  0.00    +0.000 HD
BRANCH  27  30
ATOM     30  C   UNL     1       0.478  17.185  18.982  0.00  0.00    +0.000 C 
ATOM     31  C   UNL     1       1.768  17.273  18.168  0.00  0.00    +0.000 C 
ATOM     32  C   UNL     1      -0.732  17.470  18.094  0.00  0.00    +0.000 C 
ENDBRANCH  27  30
ENDBRANCH  20  21
BRANCH  20  34
ATOM     33  C   UNL     1      -0.160   8.812  21.554  0.00  0.00    +0.000 C 
ATOM     34  C   UNL     1      -0.178   9.510  20.207  0.00  0.00    +0.000 C 
ENDBRANCH  20  34
ENDBRANCH  19  20
ENDBRANCH   1  19
TORSDOF 9
ENDMDL
MODEL 7
REMARK VINA RESULT:      -7.4      4.640      9.529
REMARK  Name = 
REMARK  13 active torsions:
REMARK  status: ('A' for Active; 'I' for Inactive)
REMARK    1  A    between atoms: C_1  and  C_2
REMARK    2  A    between atoms: C_2  and  C_3
REMARK    3  A    between atoms: C_3  and  S_4
REMARK    4  A    between atoms: C_3  and  C_22
REMARK    5  A    between atoms: S_4  and  C_5
REMARK    6  A    between atoms: C_7  and  O_8
REMARK    7  A    between atoms: C_9  and  C_10
REMARK    8  A    between atoms: C_12  and  C_13
REMARK    9  A    between atoms: C_17  and  O_18
REMARK   10  A    between atoms: O_18  and  C_19
REMARK   11  A    between atoms: C_28  and  C_29
REMARK   12  A    between atoms: C_29  and  C_30
REMARK   13  A    between atoms: C_29  and  C_31
REMARK                            x       y       z     vdW  Elec       q    Type
REMARK                         _______ _______ _______ _____ _____    ______ ____
ROOT
ATOM      1  C   UNL     1       2.554   7.647  18.443  0.00  0.00    +0.000 A 
ATOM      2  N   UNL     1       2.218   7.089  19.603  0.00  0.00    +0.000 NA
ATOM      3  C   UNL     1       2.836   5.937  19.889  0.00  0.00    +0.000 A 
ATOM      4  C   UNL     1       3.759   5.296  19.100  0.00  0.00    +0.000 A 
ATOM      5  C   UNL     1       4.080   5.955  17.921  0.00  0.00    +0.000 A 
ATOM      6  N   UNL     1       3.454   7.122  17.589  0.00  0.00    +0.000 NA
ENDROOT
BRANCH   5   7
ATOM      7  C   UNL     1       5.106   5.513  16.931  0.00  0.00    +0.000 A 
ATOM      8  C   UNL     1       6.472   5.829  17.064  0.00  0.00    +0.000 A 
ATOM      9  C   UNL     1       7.417   5.445  16.108  0.00  0.00    +0.000 A 
ATOM     10  C   UNL     1       7.010   4.763  14.969  0.00  0.00    +0.000 A 
ATOM     11  C   UNL     1       5.667   4.437  14.789  0.00  0.00    +0.000 A 
ATOM     12  C   UNL     1       4.730   4.801  15.768  0.00  0.00    +0.000 A 
BRANCH  11  13
ATOM     13  O   UNL     1       5.403   3.779  13.619  0.00  0.00    +0.000 OA
ATOM     14  C   UNL     1       6.439   3.751  12.648  0.00  0.00    +0.000 C 
ENDBRANCH  11  13
ENDBRANCH   5   7
BRANCH   3  15
ATOM     15  O   UNL     1       2.443   5.414  21.083  0.00  0.00    +0.000 OA
ATOM     16  H   UNL     1       1.760   4.772  20.815  0.00  0.00    +0.000 HD
ENDBRANCH   3  15
BRANCH   4  17
ATOM     17  C   UNL     1       4.289   4.031  19.501  0.00  0.00    +0.000 C 
ATOM     18  N   UNL     1       4.693   2.998  19.832  0.00  0.00    +0.000 NA
ENDBRANCH   4  17
BRANCH   1  19
ATOM     19  S   UNL     1       1.629   9.053  17.880  0.00  0.00    +0.000 S 
BRANCH  19  20
ATOM     20  C   UNL     1       1.164   9.934  19.425  0.00  0.00    +0.000 C 
BRANCH  20  21
ATOM     21  C   UNL     1       1.014  11.457  19.244  0.00  0.00    +0.000 C 
ATOM     22  O   UNL     1      -0.073  11.994  19.478  0.00  0.00    +0.000 OA
ATOM     23  N   UNL     1       2.143  12.156  18.863  0.00  0.00    +0.000 N 
ATOM     24  C   UNL     1       2.169  13.532  18.714  0.00  0.00    +0.000 A 
ATOM     25  N   UNL     1       3.067  14.181  18.006  0.00  0.00    +0.000 NA
ATOM     26  N   UNL     1       2.831  15.552  17.987  0.00  0.00    +0.000 NA
ATOM     27  C   UNL     1       1.800  15.892  18.736  0.00  0.00    +0.000 A 
ATOM     28  S   UNL     1       1.062  14.559  19.520  0.00  0.00    +0.000 S 
ATOM     29  H   UNL     1       2.908  11.663  18.420  0.00  0.00    +0.000 HD
BRANCH  27  30
ATOM     30  C   UNL     1       1.284  17.289  18.975  0.00  0.00    +0.000 C 
ATOM     31  C   UNL     1      -0.233  17.279  19.154  0.00  0.00    +0.000 C 
ATOM     32  C   UNL     1       1.959  17.950  20.175  0.00  0.00    +0.000 C 
ENDBRANCH  27  30
ENDBRANCH  20  21
BRANCH  20  34
ATOM     33  C   UNL     1      -0.031   9.014  21.584  0.00  0.00    +0.000 C 
ATOM     34  C   UNL     1      -0.114   9.418  20.124  0.00  0.00    +0.000 C 
ENDBRANCH  20  34
ENDBRANCH  19  20
ENDBRANCH   1  19
TORSDOF 9
ENDMDL
MODEL 8
REMARK VINA RESULT:      -7.4      1.380      1.440
REMARK  Name = 
REMARK  13 active torsions:
REMARK  status: ('A' for Active; 'I' for Inactive)
REMARK    1  A    between atoms: C_1  and  C_2
REMARK    2  A    between atoms: C_2  and  C_3
REMARK    3  A    between atoms: C_3  and  S_4
REMARK    4  A    between atoms: C_3  and  C_22
REMARK    5  A    between atoms: S_4  and  C_5
REMARK    6  A    between atoms: C_7  and  O_8
REMARK    7  A    between atoms: C_9  and  C_10
REMARK    8  A    between atoms: C_12  and  C_13
REMARK    9  A    between atoms: C_17  and  O_18
REMARK   10  A    between atoms: O_18  and  C_19
REMARK   11  A    between atoms: C_28  and  C_29
REMARK   12  A    between atoms: C_29  and  C_30
REMARK   13  A    between atoms: C_29  and  C_31
REMARK                            x       y       z     vdW  Elec       q    Type
REMARK                         _______ _______ _______ _____ _____    ______ ____
ROOT
ATOM      1  C   UNL     1       5.962   5.137  19.335  0.00  0.00    +0.000 A 
ATOM      2  N   UNL     1       5.679   3.838  19.292  0.00  0.00    +0.000 NA
ATOM      3  C   UNL     1       4.378   3.533  19.215  0.00  0.00    +0.000 A 
ATOM      4  C   UNL     1       3.338   4.429  19.186  0.00  0.00    +0.000 A 
ATOM      5  C   UNL     1       3.714   5.765  19.203  0.00  0.00    +0.000 A 
ATOM      6  N   UNL     1       5.033   6.110  19.301  0.00  0.00    +0.000 NA
ENDROOT
BRANCH   5   7
ATOM      7  C   UNL     1       2.787   6.930  19.100  0.00  0.00    +0.000 A 
ATOM      8  C   UNL     1       2.616   7.659  17.907  0.00  0.00    +0.000 A 
ATOM      9  C   UNL     1       1.777   8.774  17.835  0.00  0.00    +0.000 A 
ATOM     10  C   UNL     1       1.111   9.212  18.972  0.00  0.00    +0.000 A 
ATOM     11  C   UNL     1       1.257   8.529  20.178  0.00  0.00    +0.000 A 
ATOM     12  C   UNL     1       2.079   7.394  20.233  0.00  0.00    +0.000 A 
BRANCH  11  13
ATOM     13  O   UNL     1       0.558   9.076  21.218  0.00  0.00    +0.000 OA
ATOM     14  C   UNL     1      -0.369  10.105  20.903  0.00  0.00    +0.000 C 
ENDBRANCH  11  13
ENDBRANCH   5   7
BRANCH   3  15
ATOM     15  O   UNL     1       4.156   2.191  19.184  0.00  0.00    +0.000 OA
ATOM     16  H   UNL     1       4.813   1.885  18.532  0.00  0.00    +0.000 HD
ENDBRANCH   3  15
BRANCH   4  17
ATOM     17  C   UNL     1       1.989   3.959  19.172  0.00  0.00    +0.000 C 
ATOM     18  N   UNL     1       0.887   3.602  19.158  0.00  0.00    +0.000 NA
ENDBRANCH   4  17
BRANCH   1  19
ATOM     19  S   UNL     1       7.637   5.628  19.659  0.00  0.00    +0.000 S 
BRANCH  19  20
ATOM     20  C   UNL     1       8.058   6.742  18.258  0.00  0.00    +0.000 C 
BRANCH  20  21
ATOM     21  C   UNL     1       7.536   6.245  16.897  0.00  0.00    +0.000 C 
ATOM     22  O   UNL     1       7.722   6.929  15.886  0.00  0.00    +0.000 OA
ATOM     23  N   UNL     1       6.912   5.012  16.879  0.00  0.00    +0.000 N 
ATOM     24  C   UNL     1       6.441   4.417  15.721  0.00  0.00    +0.000 A 
ATOM     25  N   UNL     1       5.531   3.469  15.696  0.00  0.00    +0.000 NA
ATOM     26  N   UNL     1       5.208   3.083  14.399  0.00  0.00    +0.000 NA
ATOM     27  C   UNL     1       5.935   3.712  13.495  0.00  0.00    +0.000 A 
ATOM     28  S   UNL     1       7.067   4.804  14.176  0.00  0.00    +0.000 S 
ATOM     29  H   UNL     1       6.538   4.631  17.739  0.00  0.00    +0.000 HD
BRANCH  27  30
ATOM     30  C   UNL     1       5.877   3.517  12.002  0.00  0.00    +0.000 C 
ATOM     31  C   UNL     1       6.799   2.377  11.571  0.00  0.00    +0.000 C 
ATOM     32  C   UNL     1       4.453   3.263  11.512  0.00  0.00    +0.000 C 
ENDBRANCH  27  30
ENDBRANCH  20  21
BRANCH  20  34
ATOM     33  C   UNL     1       8.663   9.303  18.369  0.00  0.00    +0.000 C 
ATOM     34  C   UNL     1       7.610   8.212  18.422  0.00  0.00    +0.000 C 
ENDBRANCH  20  34
ENDBRANCH  19  20
ENDBRANCH   1  19
TORSDOF 9
ENDMDL
MODEL 9
REMARK VINA RESULT:      -7.4      4.605      9.570
REMARK  Name = 
REMARK  13 active torsions:
REMARK  status: ('A' for Active; 'I' for Inactive)
REMARK    1  A    between atoms: C_1  and  C_2
REMARK    2  A    between atoms: C_2  and  C_3
REMARK    3  A    between atoms: C_3  and  S_4
REMARK    4  A    between atoms: C_3  and  C_22
REMARK    5  A    between atoms: S_4  and  C_5
REMARK    6  A    between atoms: C_7  and  O_8
REMARK    7  A    between atoms: C_9  and  C_10
REMARK    8  A    between atoms: C_12  and  C_13
REMARK    9  A    between atoms: C_17  and  O_18
REMARK   10  A    between atoms: O_18  and  C_19
REMARK   11  A    between atoms: C_28  and  C_29
REMARK   12  A    between atoms: C_29  and  C_30
REMARK   13  A    between atoms: C_29  and  C_31
REMARK                            x       y       z     vdW  Elec       q    Type
REMARK                         _______ _______ _______ _____ _____    ______ ____
ROOT
ATOM      1  C   UNL     1       2.426   7.984  18.543  0.00  0.00    +0.000 A 
ATOM      2  N   UNL     1       1.909   7.392  19.616  0.00  0.00    +0.000 NA
ATOM      3  C   UNL     1       2.414   6.187  19.909  0.00  0.00    +0.000 A 
ATOM      4  C   UNL     1       3.391   5.526  19.207  0.00  0.00    +0.000 A 
ATOM      5  C   UNL     1       3.901   6.220  18.119  0.00  0.00    +0.000 A 
ATOM      6  N   UNL     1       3.395   7.443  17.780  0.00  0.00    +0.000 NA
ENDROOT
BRANCH   5   7
ATOM      7  C   UNL     1       5.018   5.761  17.242  0.00  0.00    +0.000 A 
ATOM      8  C   UNL     1       6.323   6.281  17.342  0.00  0.00    +0.000 A 
ATOM      9  C   UNL     1       7.350   5.873  16.487  0.00  0.00    +0.000 A 
ATOM     10  C   UNL     1       7.086   4.954  15.479  0.00  0.00    +0.000 A 
ATOM     11  C   UNL     1       5.808   4.418  15.335  0.00  0.00    +0.000 A 
ATOM     12  C   UNL     1       4.790   4.813  16.217  0.00  0.00    +0.000 A 
BRANCH  11  13
ATOM     13  O   UNL     1       5.684   3.539  14.295  0.00  0.00    +0.000 OA
ATOM     14  C   UNL     1       6.357   3.867  13.089  0.00  0.00    +0.000 C 
ENDBRANCH  11  13
ENDBRANCH   5   7
BRANCH   3  15
ATOM     15  O   UNL     1       1.838   5.633  21.011  0.00  0.00    +0.000 OA
ATOM     16  H   UNL     1       0.894   5.610  20.765  0.00  0.00    +0.000 HD
ENDBRANCH   3  15
BRANCH   4  17
ATOM     17  C   UNL     1       3.786   4.209  19.597  0.00  0.00    +0.000 C 
ATOM     18  N   UNL     1       4.094   3.133  19.891  0.00  0.00    +0.000 NA
ENDBRANCH   4  17
BRANCH   1  19
ATOM     19  S   UNL     1       1.669   9.476  17.952  0.00  0.00    +0.000 S 
BRANCH  19  20
ATOM     20  C   UNL     1       0.747  10.120  19.406  0.00  0.00    +0.000 C 
BRANCH  20  21
ATOM     21  C   UNL     1       1.267  11.480  19.911  0.00  0.00    +0.000 C 
ATOM     22  O   UNL     1       1.154  11.770  21.106  0.00  0.00    +0.000 OA
ATOM     23  N   UNL     1       1.882  12.298  18.983  0.00  0.00    +0.000 N 
ATOM     24  C   UNL     1       2.442  13.523  19.305  0.00  0.00    +0.000 A 
ATOM     25  N   UNL     1       2.682  14.477  18.433  0.00  0.00    +0.000 NA
ATOM     26  N   UNL     1       3.205  15.618  19.032  0.00  0.00    +0.000 NA
ATOM     27  C   UNL     1       3.400  15.458  20.327  0.00  0.00    +0.000 A 
ATOM     28  S   UNL     1       2.968  13.898  20.890  0.00  0.00    +0.000 S 
ATOM     29  H   UNL     1       1.704  12.155  17.997  0.00  0.00    +0.000 HD
BRANCH  27  30
ATOM     30  C   UNL     1       3.983  16.470  21.280  0.00  0.00    +0.000 C 
ATOM     31  C   UNL     1       4.557  17.662  20.515  0.00  0.00    +0.000 C 
ATOM     32  C   UNL     1       2.959  16.943  22.310  0.00  0.00    +0.000 C 
ENDBRANCH  27  30
ENDBRANCH  20  21
BRANCH  20  34
ATOM     33  C   UNL     1      -1.353  10.156  17.817  0.00  0.00    +0.000 C 
ATOM     34  C   UNL     1      -0.782  10.244  19.220  0.00  0.00    +0.000 C 
ENDBRANCH  20  34
ENDBRANCH  19  20
ENDBRANCH   1  19
TORSDOF 9
ENDMDL
