MODEL 1
REMARK VINA RESULT:      -7.8      0.000      0.000
REMARK  Name = 
REMARK  16 active torsions:
REMARK  status: ('A' for Active; 'I' for Inactive)
REMARK    1  A    between atoms: C_1  and  O_2
REMARK    2  A    between atoms: O_2  and  C_3
REMARK    3  A    between atoms: C_9  and  C_10
REMARK    4  A    between atoms: C_10  and  C_11
REMARK    5  A    between atoms: C_11  and  O_12
REMARK    6  A    between atoms: O_12  and  C_13
REMARK    7  A    between atoms: C_15  and  C_16
REMARK    8  A    between atoms: C_18  and  C_19
REMARK    9  A    between atoms: N_21  and  C_22
REMARK   10  A    between atoms: N_21  and  C_26
REMARK   11  A    between atoms: C_22  and  C_23
REMARK   12  A    between atoms: C_23  and  C_24
REMARK   13  A    between atoms: C_23  and  C_25
REMARK   14  A    between atoms: C_26  and  C_27
REMARK   15  A    between atoms: C_27  and  C_28
REMARK   16  A    between atoms: C_27  and  C_29
REMARK                            x       y       z     vdW  Elec       q    Type
REMARK                         _______ _______ _______ _____ _____    ______ ____
ROOT
ATOM      1  C   UNL     1       2.346   7.298  19.169  0.00  0.00    +0.000 A 
ATOM      2  C   UNL     1       1.945   6.436  20.189  0.00  0.00    +0.000 A 
ATOM      3  C   UNL     1       2.239   5.074  20.103  0.00  0.00    +0.000 A 
ATOM      4  C   UNL     1       1.732   4.123  21.152  0.00  0.00    +0.000 C 
ATOM      5  C   UNL     1       3.022   4.616  19.030  0.00  0.00    +0.000 A 
ATOM      6  C   UNL     1       3.431   5.482  17.988  0.00  0.00    +0.000 A 
ATOM      7  C   UNL     1       2.958   6.792  18.021  0.00  0.00    +0.000 A 
ENDROOT
BRANCH   6   8
ATOM      8  C   UNL     1       4.332   4.905  16.928  0.00  0.00    +0.000 C 
ATOM      9  O   UNL     1       3.954   3.835  16.443  0.00  0.00    +0.000 OA
ATOM     10  N   UNL     1       5.593   5.457  16.574  0.00  0.00    +0.000 N 
BRANCH  10  11
ATOM     11  C   UNL     1       6.085   6.817  16.853  0.00  0.00    +0.000 C 
BRANCH  11  12
ATOM     12  C   UNL     1       7.494   6.851  17.499  0.00  0.00    +0.000 C 
ATOM     13  C   UNL     1       7.984   8.274  17.775  0.00  0.00    +0.000 C 
ATOM     14  C   UNL     1       7.510   6.034  18.791  0.00  0.00    +0.000 C 
ENDBRANCH  11  12
ENDBRANCH  10  11
BRANCH  10  15
ATOM     15  C   UNL     1       6.475   4.599  15.740  0.00  0.00    +0.000 C 
BRANCH  15  16
ATOM     16  C   UNL     1       6.422   4.882  14.215  0.00  0.00    +0.000 C 
ATOM     17  C   UNL     1       7.765   5.376  13.676  0.00  0.00    +0.000 C 
ATOM     18  C   UNL     1       5.996   3.633  13.436  0.00  0.00    +0.000 C 
ENDBRANCH  15  16
ENDBRANCH  10  15
ENDBRANCH   6   8
BRANCH   1  19
ATOM     19  O   UNL     1       2.197   8.663  19.217  0.00  0.00    +0.000 OA
BRANCH  19  20
ATOM     20  C   UNL     1       1.081   9.150  18.451  0.00  0.00    +0.000 C 
BRANCH  20  21
ATOM     21  C   UNL     1       0.194  10.072  19.296  0.00  0.00    +0.000 C 
BRANCH  21  28
ATOM     22  C   UNL     1      -1.849  11.618  19.183  0.00  0.00    +0.000 A 
ATOM     23  C   UNL     1      -3.004  12.049  18.513  0.00  0.00    +0.000 A 
ATOM     24  C   UNL     1      -3.424  11.415  17.343  0.00  0.00    +0.000 A 
ATOM     25  C   UNL     1      -2.684  10.360  16.828  0.00  0.00    +0.000 A 
ATOM     26 CL   UNL     1      -3.185   9.594  15.372  0.00  0.00    +0.000 Cl
ATOM     27  C   UNL     1      -1.528   9.929  17.476  0.00  0.00    +0.000 A 
ATOM     28  C   UNL     1      -1.098  10.547  18.666  0.00  0.00    +0.000 A 
BRANCH  22  30
ATOM     29  C   UNL     1      -2.210  12.189  21.453  0.00  0.00    +0.000 C 
ATOM     30  O   UNL     1      -1.361  12.229  20.310  0.00  0.00    +0.000 OA
ENDBRANCH  22  30
ENDBRANCH  21  28
ENDBRANCH  20  21
ENDBRANCH  19  20
ENDBRANCH   1  19
TORSDOF 10
ENDMDL
MODEL 2
REMARK VINA RESULT:      -7.7      0.962      1.105
REMARK  Name = 
REMARK  16 active torsions:
REMARK  status: ('A' for Active; 'I' for Inactive)
REMARK    1  A    between atoms: C_1  and  O_2
REMARK    2  A    between atoms: O_2  and  C_3
REMARK    3  A    between atoms: C_9  and  C_10
REMARK    4  A    between atoms: C_10  and  C_11
REMARK    5  A    between atoms: C_11  and  O_12
REMARK    6  A    between atoms: O_12  and  C_13
REMARK    7  A    between atoms: C_15  and  C_16
REMARK    8  A    between atoms: C_18  and  C_19
REMARK    9  A    between atoms: N_21  and  C_22
REMARK   10  A    between atoms: N_21  and  C_26
REMARK   11  A    between atoms: C_22  and  C_23
REMARK   12  A    between atoms: C_23  and  C_24
REMARK   13  A    between atoms: C_23  and  C_25
REMARK   14  A    between atoms: C_26  and  C_27
REMARK   15  A    between atoms: C_27  and  C_28
REMARK   16  A    between atoms: C_27  and  C_29
REMARK                            x       y       z     vdW  Elec       q    Type
REMARK                         _______ _______ _______ _____ _____    ______ ____
ROOT
ATOM      1  C   UNL     1       2.339   6.403  19.954  0.00  0.00    +0.000 A 
ATOM      2  C   UNL     1       1.976   5.431  20.886  0.00  0.00    +0.000 A 
ATOM      3  C   UNL     1       2.221   4.084  20.617  0.00  0.00    +0.000 A 
ATOM      4  C   UNL     1       1.752   3.023  21.574  0.00  0.00    +0.000 C 
ATOM      5  C   UNL     1       2.920   3.742  19.447  0.00  0.00    +0.000 A 
ATOM      6  C   UNL     1       3.289   4.720  18.492  0.00  0.00    +0.000 A 
ATOM      7  C   UNL     1       2.861   6.027  18.715  0.00  0.00    +0.000 A 
ENDROOT
BRANCH   6   8
ATOM      8  C   UNL     1       4.103   4.257  17.313  0.00  0.00    +0.000 C 
ATOM      9  O   UNL     1       3.740   3.189  16.811  0.00  0.00    +0.000 OA
ATOM     10  N   UNL     1       5.282   4.908  16.859  0.00  0.00    +0.000 N 
BRANCH  10  11
ATOM     11  C   UNL     1       5.718   6.282  17.160  0.00  0.00    +0.000 C 
BRANCH  11  12
ATOM     12  C   UNL     1       7.206   6.386  17.585  0.00  0.00    +0.000 C 
ATOM     13  C   UNL     1       7.732   7.822  17.550  0.00  0.00    +0.000 C 
ATOM     14  C   UNL     1       7.406   5.791  18.979  0.00  0.00    +0.000 C 
ENDBRANCH  11  12
ENDBRANCH  10  11
BRANCH  10  15
ATOM     15  C   UNL     1       6.119   4.152  15.890  0.00  0.00    +0.000 C 
BRANCH  15  16
ATOM     16  C   UNL     1       6.138   4.723  14.447  0.00  0.00    +0.000 C 
ATOM     17  C   UNL     1       7.533   5.197  14.036  0.00  0.00    +0.000 C 
ATOM     18  C   UNL     1       5.642   3.685  13.435  0.00  0.00    +0.000 C 
ENDBRANCH  15  16
ENDBRANCH  10  15
ENDBRANCH   6   8
BRANCH   1  19
ATOM     19  O   UNL     1       2.237   7.755  20.176  0.00  0.00    +0.000 OA
BRANCH  19  20
ATOM     20  C   UNL     1       0.915   8.279  19.953  0.00  0.00    +0.000 C 
BRANCH  20  21
ATOM     21  C   UNL     1       0.922   9.812  19.964  0.00  0.00    +0.000 C 
BRANCH  21  28
ATOM     22  C   UNL     1      -0.986  11.489  20.312  0.00  0.00    +0.000 A 
ATOM     23  C   UNL     1      -2.128  12.139  19.824  0.00  0.00    +0.000 A 
ATOM     24  C   UNL     1      -2.654  11.809  18.574  0.00  0.00    +0.000 A 
ATOM     25  C   UNL     1      -2.030  10.840  17.799  0.00  0.00    +0.000 A 
ATOM     26 CL   UNL     1      -2.659  10.450  16.247  0.00  0.00    +0.000 Cl
ATOM     27  C   UNL     1      -0.887  10.196  18.266  0.00  0.00    +0.000 A 
ATOM     28  C   UNL     1      -0.352  10.505  19.531  0.00  0.00    +0.000 A 
BRANCH  22  30
ATOM     29  C   UNL     1      -1.088  11.359  22.674  0.00  0.00    +0.000 C 
ATOM     30  O   UNL     1      -0.397  11.802  21.511  0.00  0.00    +0.000 OA
ENDBRANCH  22  30
ENDBRANCH  21  28
ENDBRANCH  20  21
ENDBRANCH  19  20
ENDBRANCH   1  19
TORSDOF 10
ENDMDL
MODEL 3
REMARK VINA RESULT:      -7.6      1.982      2.481
REMARK  Name = 
REMARK  16 active torsions:
REMARK  status: ('A' for Active; 'I' for Inactive)
REMARK    1  A    between atoms: C_1  and  O_2
REMARK    2  A    between atoms: O_2  and  C_3
REMARK    3  A    between atoms: C_9  and  C_10
REMARK    4  A    between atoms: C_10  and  C_11
REMARK    5  A    between atoms: C_11  and  O_12
REMARK    6  A    between atoms: O_12  and  C_13
REMARK    7  A    between atoms: C_15  and  C_16
REMARK    8  A    between atoms: C_18  and  C_19
REMARK    9  A    between atoms: N_21  and  C_22
REMARK   10  A    between atoms: N_21  and  C_26
REMARK   11  A    between atoms: C_22  and  C_23
REMARK   12  A    between atoms: C_23  and  C_24
REMARK   13  A    between atoms: C_23  and  C_25
REMARK   14  A    between atoms: C_26  and  C_27
REMARK   15  A    between atoms: C_27  and  C_28
REMARK   16  A    between atoms: C_27  and  C_29
REMARK                            x       y       z     vdW  Elec       q    Type
REMARK                         _______ _______ _______ _____ _____    ______ ____
ROOT
ATOM      1  C   UNL     1       2.265   6.539  19.889  0.00  0.00    +0.000 A 
ATOM      2  C   UNL     1       1.735   5.520  20.679  0.00  0.00    +0.000 A 
ATOM      3  C   UNL     1       1.911   4.187  20.305  0.00  0.00    +0.000 A 
ATOM      4  C   UNL     1       1.266   3.086  21.101  0.00  0.00    +0.000 C 
ATOM      5  C   UNL     1       2.707   3.897  19.184  0.00  0.00    +0.000 A 
ATOM      6  C   UNL     1       3.246   4.923  18.372  0.00  0.00    +0.000 A 
ATOM      7  C   UNL     1       2.891   6.235  18.678  0.00  0.00    +0.000 A 
ENDROOT
BRANCH   6   8
ATOM      8  C   UNL     1       4.148   4.505  17.241  0.00  0.00    +0.000 C 
ATOM      9  O   UNL     1       3.806   3.475  16.651  0.00  0.00    +0.000 OA
ATOM     10  N   UNL     1       5.375   5.148  16.927  0.00  0.00    +0.000 N 
BRANCH  10  11
ATOM     11  C   UNL     1       5.814   6.492  17.340  0.00  0.00    +0.000 C 
BRANCH  11  12
ATOM     12  C   UNL     1       7.336   6.593  17.620  0.00  0.00    +0.000 C 
ATOM     13  C   UNL     1       7.842   8.037  17.616  0.00  0.00    +0.000 C 
ATOM     14  C   UNL     1       7.681   5.923  18.949  0.00  0.00    +0.000 C 
ENDBRANCH  11  12
ENDBRANCH  10  11
BRANCH  10  15
ATOM     15  C   UNL     1       6.275   4.424  15.990  0.00  0.00    +0.000 C 
BRANCH  15  16
ATOM     16  C   UNL     1       6.192   4.879  14.509  0.00  0.00    +0.000 C 
ATOM     17  C   UNL     1       7.557   5.294  13.958  0.00  0.00    +0.000 C 
ATOM     18  C   UNL     1       5.608   3.773  13.624  0.00  0.00    +0.000 C 
ENDBRANCH  15  16
ENDBRANCH  10  15
ENDBRANCH   6   8
BRANCH   1  19
ATOM     19  O   UNL     1       2.236   7.869  20.232  0.00  0.00    +0.000 OA
BRANCH  19  20
ATOM     20  C   UNL     1       1.473   8.683  19.323  0.00  0.00    +0.000 C 
BRANCH  20  21
ATOM     21  C   UNL     1       0.319   9.384  20.049  0.00  0.00    +0.000 C 
BRANCH  21  28
ATOM     22  C   UNL     1      -0.736  11.159  18.528  0.00  0.00    +0.000 A 
ATOM     23  C   UNL     1      -1.017  12.506  18.257  0.00  0.00    +0.000 A 
ATOM     24  C   UNL     1      -0.530  13.515  19.089  0.00  0.00    +0.000 A 
ATOM     25  C   UNL     1       0.226  13.182  20.204  0.00  0.00    +0.000 A 
ATOM     26 CL   UNL     1       0.806  14.422  21.246  0.00  0.00    +0.000 Cl
ATOM     27  C   UNL     1       0.503  11.848  20.493  0.00  0.00    +0.000 A 
ATOM     28  C   UNL     1       0.033  10.818  19.656  0.00  0.00    +0.000 A 
BRANCH  22  30
ATOM     29  C   UNL     1      -2.642  10.002  17.734  0.00  0.00    +0.000 C 
ATOM     30  O   UNL     1      -1.224  10.123  17.775  0.00  0.00    +0.000 OA
ENDBRANCH  22  30
ENDBRANCH  21  28
ENDBRANCH  20  21
ENDBRANCH  19  20
ENDBRANCH   1  19
TORSDOF 10
ENDMDL
MODEL 4
REMARK VINA RESULT:      -7.5      2.694      3.078
REMARK  Name = 
REMARK  16 active torsions:
REMARK  status: ('A' for Active; 'I' for Inactive)
REMARK    1  A    between atoms: C_1  and  O_2
REMARK    2  A    between atoms: O_2  and  C_3
REMARK    3  A    between atoms: C_9  and  C_10
REMARK    4  A    between atoms: C_10  and  C_11
REMARK    5  A    between atoms: C_11  and  O_12
REMARK    6  A    between atoms: O_12  and  C_13
REMARK    7  A    between atoms: C_15  and  C_16
REMARK    8  A    between atoms: C_18  and  C_19
REMARK    9  A    between atoms: N_21  and  C_22
REMARK   10  A    between atoms: N_21  and  C_26
REMARK   11  A    between atoms: C_22  and  C_23
REMARK   12  A    between atoms: C_23  and  C_24
REMARK   13  A    between atoms: C_23  and  C_25
REMARK   14  A    between atoms: C_26  and  C_27
REMARK   15  A    between atoms: C_27  and  C_28
REMARK   16  A    between atoms: C_27  and  C_29
REMARK                            x       y       z     vdW  Elec       q    Type
REMARK                         _______ _______ _______ _____ _____    ______ ____
ROOT
ATOM      1  C   UNL     1       2.099   6.472  19.899  0.00  0.00    +0.000 A 
ATOM      2  C   UNL     1       1.769   5.544  20.886  0.00  0.00    +0.000 A 
ATOM      3  C   UNL     1       1.945   4.181  20.644  0.00  0.00    +0.000 A 
ATOM      4  C   UNL     1       1.508   3.168  21.666  0.00  0.00    +0.000 C 
ATOM      5  C   UNL     1       2.545   3.777  19.438  0.00  0.00    +0.000 A 
ATOM      6  C   UNL     1       2.879   4.711  18.428  0.00  0.00    +0.000 A 
ATOM      7  C   UNL     1       2.516   6.039  18.639  0.00  0.00    +0.000 A 
ENDROOT
BRANCH   6   8
ATOM      8  C   UNL     1       3.588   4.182  17.210  0.00  0.00    +0.000 C 
ATOM      9  O   UNL     1       3.077   3.182  16.698  0.00  0.00    +0.000 OA
ATOM     10  N   UNL     1       4.823   4.693  16.728  0.00  0.00    +0.000 N 
BRANCH  10  11
ATOM     11  C   UNL     1       5.439   5.993  17.043  0.00  0.00    +0.000 C 
BRANCH  11  12
ATOM     12  C   UNL     1       6.794   5.878  17.788  0.00  0.00    +0.000 C 
ATOM     13  C   UNL     1       7.604   7.175  17.744  0.00  0.00    +0.000 C 
ATOM     14  C   UNL     1       6.573   5.449  19.238  0.00  0.00    +0.000 C 
ENDBRANCH  11  12
ENDBRANCH  10  11
BRANCH  10  15
ATOM     15  C   UNL     1       5.525   3.864  15.712  0.00  0.00    +0.000 C 
BRANCH  15  16
ATOM     16  C   UNL     1       5.867   4.595  14.386  0.00  0.00    +0.000 C 
ATOM     17  C   UNL     1       7.347   4.974  14.305  0.00  0.00    +0.000 C 
ATOM     18  C   UNL     1       5.502   3.735  13.172  0.00  0.00    +0.000 C 
ENDBRANCH  15  16
ENDBRANCH  10  15
ENDBRANCH   6   8
BRANCH   1  19
ATOM     19  O   UNL     1       2.062   7.833  20.084  0.00  0.00    +0.000 OA
BRANCH  19  20
ATOM     20  C   UNL     1       1.281   8.241  21.222  0.00  0.00    +0.000 C 
BRANCH  20  21
ATOM     21  C   UNL     1       0.057   9.054  20.786  0.00  0.00    +0.000 C 
BRANCH  21  28
ATOM     22  C   UNL     1       0.818  11.369  19.987  0.00  0.00    +0.000 A 
ATOM     23  C   UNL     1       0.811  12.763  20.139  0.00  0.00    +0.000 A 
ATOM     24  C   UNL     1       0.159  13.356  21.221  0.00  0.00    +0.000 A 
ATOM     25  C   UNL     1      -0.504  12.561  22.145  0.00  0.00    +0.000 A 
ATOM     26 CL   UNL     1      -1.331  13.290  23.465  0.00  0.00    +0.000 Cl
ATOM     27  C   UNL     1      -0.516  11.175  21.999  0.00  0.00    +0.000 A 
ATOM     28  C   UNL     1       0.150  10.559  20.923  0.00  0.00    +0.000 A 
BRANCH  22  30
ATOM     29  C   UNL     1       2.263  11.531  18.118  0.00  0.00    +0.000 C 
ATOM     30  O   UNL     1       1.401  10.732  18.922  0.00  0.00    +0.000 OA
ENDBRANCH  22  30
ENDBRANCH  21  28
ENDBRANCH  20  21
ENDBRANCH  19  20
ENDBRANCH   1  19
TORSDOF 10
ENDMDL
MODEL 5
REMARK VINA RESULT:      -7.5      0.943      1.161
REMARK  Name = 
REMARK  16 active torsions:
REMARK  status: ('A' for Active; 'I' for Inactive)
REMARK    1  A    between atoms: C_1  and  O_2
REMARK    2  A    between atoms: O_2  and  C_3
REMARK    3  A    between atoms: C_9  and  C_10
REMARK    4  A    between atoms: C_10  and  C_11
REMARK    5  A    between atoms: C_11  and  O_12
REMARK    6  A    between atoms: O_12  and  C_13
REMARK    7  A    between atoms: C_15  and  C_16
REMARK    8  A    between atoms: C_18  and  C_19
REMARK    9  A    between atoms: N_21  and  C_22
REMARK   10  A    between atoms: N_21  and  C_26
REMARK   11  A    between atoms: C_22  and  C_23
REMARK   12  A    between atoms: C_23  and  C_24
REMARK   13  A    between atoms: C_23  and  C_25
REMARK   14  A    between atoms: C_26  and  C_27
REMARK   15  A    between atoms: C_27  and  C_28
REMARK   16  A    between atoms: C_27  and  C_29
REMARK                            x       y       z     vdW  Elec       q    Type
REMARK                         _______ _______ _______ _____ _____    ______ ____
ROOT
ATOM      1  C   UNL     1       2.348   6.613  19.639  0.00  0.00    +0.000 A 
ATOM      2  C   UNL     1       1.967   5.715  20.635  0.00  0.00    +0.000 A 
ATOM      3  C   UNL     1       2.113   4.343  20.427  0.00  0.00    +0.000 A 
ATOM      4  C   UNL     1       1.621   3.364  21.457  0.00  0.00    +0.000 C 
ATOM      5  C   UNL     1       2.735   3.898  19.248  0.00  0.00    +0.000 A 
ATOM      6  C   UNL     1       3.122   4.801  18.229  0.00  0.00    +0.000 A 
ATOM      7  C   UNL     1       2.789   6.142  18.401  0.00  0.00    +0.000 A 
ENDROOT
BRANCH   6   8
ATOM      8  C   UNL     1       3.851   4.228  17.042  0.00  0.00    +0.000 C 
ATOM      9  O   UNL     1       3.403   3.158  16.618  0.00  0.00    +0.000 OA
ATOM     10  N   UNL     1       5.042   4.781  16.501  0.00  0.00    +0.000 N 
BRANCH  10  11
ATOM     11  C   UNL     1       5.571   6.141  16.704  0.00  0.00    +0.000 C 
BRANCH  11  12
ATOM     12  C   UNL     1       6.593   6.246  17.866  0.00  0.00    +0.000 C 
ATOM     13  C   UNL     1       7.377   4.950  18.082  0.00  0.00    +0.000 C 
ATOM     14  C   UNL     1       7.559   7.406  17.625  0.00  0.00    +0.000 C 
ENDBRANCH  11  12
ENDBRANCH  10  11
BRANCH  10  15
ATOM     15  C   UNL     1       5.787   3.925  15.539  0.00  0.00    +0.000 C 
BRANCH  15  16
ATOM     16  C   UNL     1       5.981   4.535  14.126  0.00  0.00    +0.000 C 
ATOM     17  C   UNL     1       7.417   5.011  13.898  0.00  0.00    +0.000 C 
ATOM     18  C   UNL     1       5.607   3.528  13.033  0.00  0.00    +0.000 C 
ENDBRANCH  15  16
ENDBRANCH  10  15
ENDBRANCH   6   8
BRANCH   1  19
ATOM     19  O   UNL     1       2.342   7.978  19.795  0.00  0.00    +0.000 OA
BRANCH  19  20
ATOM     20  C   UNL     1       1.022   8.551  19.818  0.00  0.00    +0.000 C 
BRANCH  20  21
ATOM     21  C   UNL     1       0.926   9.748  18.864  0.00  0.00    +0.000 C 
BRANCH  21  28
ATOM     22  C   UNL     1      -1.074  11.251  19.427  0.00  0.00    +0.000 A 
ATOM     23  C   UNL     1      -2.332  11.768  19.085  0.00  0.00    +0.000 A 
ATOM     24  C   UNL     1      -2.988  11.336  17.931  0.00  0.00    +0.000 A 
ATOM     25  C   UNL     1      -2.383  10.398  17.106  0.00  0.00    +0.000 A 
ATOM     26 CL   UNL     1      -3.177   9.882  15.670  0.00  0.00    +0.000 Cl
ATOM     27  C   UNL     1      -1.128   9.885  17.427  0.00  0.00    +0.000 A 
ATOM     28  C   UNL     1      -0.459  10.298  18.595  0.00  0.00    +0.000 A 
BRANCH  22  30
ATOM     29  C   UNL     1      -0.000  13.048  20.534  0.00  0.00    +0.000 C 
ATOM     30  O   UNL     1      -0.361  11.670  20.521  0.00  0.00    +0.000 OA
ENDBRANCH  22  30
ENDBRANCH  21  28
ENDBRANCH  20  21
ENDBRANCH  19  20
ENDBRANCH   1  19
TORSDOF 10
ENDMDL
MODEL 6
REMARK VINA RESULT:      -7.4      1.020      1.284
REMARK  Name = 
REMARK  16 active torsions:
REMARK  status: ('A' for Active; 'I' for Inactive)
REMARK    1  A    between atoms: C_1  and  O_2
REMARK    2  A    between atoms: O_2  and  C_3
REMARK    3  A    between atoms: C_9  and  C_10
REMARK    4  A    between atoms: C_10  and  C_11
REMARK    5  A    between atoms: C_11  and  O_12
REMARK    6  A    between atoms: O_12  and  C_13
REMARK    7  A    between atoms: C_15  and  C_16
REMARK    8  A    between atoms: C_18  and  C_19
REMARK    9  A    between atoms: N_21  and  C_22
REMARK   10  A    between atoms: N_21  and  C_26
REMARK   11  A    between atoms: C_22  and  C_23
REMARK   12  A    between atoms: C_23  and  C_24
REMARK   13  A    between atoms: C_23  and  C_25
REMARK   14  A    between atoms: C_26  and  C_27
REMARK   15  A    between atoms: C_27  and  C_28
REMARK   16  A    between atoms: C_27  and  C_29
REMARK                            x       y       z     vdW  Elec       q    Type
REMARK                         _______ _______ _______ _____ _____    ______ ____
ROOT
ATOM      1  C   UNL     1       1.882   6.537  19.555  0.00  0.00    +0.000 A 
ATOM      2  C   UNL     1       1.780   5.673  20.645  0.00  0.00    +0.000 A 
ATOM      3  C   UNL     1       2.371   4.411  20.588  0.00  0.00    +0.000 A 
ATOM      4  C   UNL     1       2.189   3.438  21.721  0.00  0.00    +0.000 C 
ATOM      5  C   UNL     1       3.144   4.073  19.464  0.00  0.00    +0.000 A 
ATOM      6  C   UNL     1       3.251   4.941  18.351  0.00  0.00    +0.000 A 
ATOM      7  C   UNL     1       2.494   6.110  18.375  0.00  0.00    +0.000 A 
ENDROOT
BRANCH   6   8
ATOM      8  C   UNL     1       4.166   4.516  17.233  0.00  0.00    +0.000 C 
ATOM      9  O   UNL     1       3.835   3.481  16.648  0.00  0.00    +0.000 OA
ATOM     10  N   UNL     1       5.394   5.163  16.926  0.00  0.00    +0.000 N 
BRANCH  10  11
ATOM     11  C   UNL     1       5.822   6.512  17.333  0.00  0.00    +0.000 C 
BRANCH  11  12
ATOM     12  C   UNL     1       7.342   6.624  17.621  0.00  0.00    +0.000 C 
ATOM     13  C   UNL     1       7.842   8.070  17.598  0.00  0.00    +0.000 C 
ATOM     14  C   UNL     1       7.681   5.975  18.962  0.00  0.00    +0.000 C 
ENDBRANCH  11  12
ENDBRANCH  10  11
BRANCH  10  15
ATOM     15  C   UNL     1       6.307   4.435  16.005  0.00  0.00    +0.000 C 
BRANCH  15  16
ATOM     16  C   UNL     1       6.224   4.865  14.516  0.00  0.00    +0.000 C 
ATOM     17  C   UNL     1       7.585   5.296  13.966  0.00  0.00    +0.000 C 
ATOM     18  C   UNL     1       5.665   3.735  13.645  0.00  0.00    +0.000 C 
ENDBRANCH  15  16
ENDBRANCH  10  15
ENDBRANCH   6   8
BRANCH   1  19
ATOM     19  O   UNL     1       1.427   7.834  19.560  0.00  0.00    +0.000 OA
BRANCH  19  20
ATOM     20  C   UNL     1       2.323   8.763  18.925  0.00  0.00    +0.000 C 
BRANCH  20  21
ATOM     21  C   UNL     1       1.595   9.588  17.858  0.00  0.00    +0.000 C 
BRANCH  21  28
ATOM     22  C   UNL     1      -0.015  11.001  19.268  0.00  0.00    +0.000 A 
ATOM     23  C   UNL     1      -1.309  11.487  19.502  0.00  0.00    +0.000 A 
ATOM     24  C   UNL     1      -2.378  11.075  18.704  0.00  0.00    +0.000 A 
ATOM     25  C   UNL     1      -2.154  10.188  17.659  0.00  0.00    +0.000 A 
ATOM     26 CL   UNL     1      -3.464   9.698  16.658  0.00  0.00    +0.000 Cl
ATOM     27  C   UNL     1      -0.871   9.707  17.408  0.00  0.00    +0.000 A 
ATOM     28  C   UNL     1       0.215  10.101  18.211  0.00  0.00    +0.000 A 
BRANCH  22  30
ATOM     29  C   UNL     1       1.039  11.132  21.384  0.00  0.00    +0.000 C 
ATOM     30  O   UNL     1       1.081  11.404  19.987  0.00  0.00    +0.000 OA
ENDBRANCH  22  30
ENDBRANCH  21  28
ENDBRANCH  20  21
ENDBRANCH  19  20
ENDBRANCH   1  19
TORSDOF 10
ENDMDL
MODEL 7
REMARK VINA RESULT:      -7.3      1.939      2.641
REMARK  Name = 
REMARK  16 active torsions:
REMARK  status: ('A' for Active; 'I' for Inactive)
REMARK    1  A    between atoms: C_1  and  O_2
REMARK    2  A    between atoms: O_2  and  C_3
REMARK    3  A    between atoms: C_9  and  C_10
REMARK    4  A    between atoms: C_10  and  C_11
REMARK    5  A    between atoms: C_11  and  O_12
REMARK    6  A    between atoms: O_12  and  C_13
REMARK    7  A    between atoms: C_15  and  C_16
REMARK    8  A    between atoms: C_18  and  C_19
REMARK    9  A    between atoms: N_21  and  C_22
REMARK   10  A    between atoms: N_21  and  C_26
REMARK   11  A    between atoms: C_22  and  C_23
REMARK   12  A    between atoms: C_23  and  C_24
REMARK   13  A    between atoms: C_23  and  C_25
REMARK   14  A    between atoms: C_26  and  C_27
REMARK   15  A    between atoms: C_27  and  C_28
REMARK   16  A    between atoms: C_27  and  C_29
REMARK                            x       y       z     vdW  Elec       q    Type
REMARK                         _______ _______ _______ _____ _____    ______ ____
ROOT
ATOM      1  C   UNL     1       2.386   6.534  19.661  0.00  0.00    +0.000 A 
ATOM      2  C   UNL     1       1.974   5.639  20.648  0.00  0.00    +0.000 A 
ATOM      3  C   UNL     1       2.320   4.291  20.551  0.00  0.00    +0.000 A 
ATOM      4  C   UNL     1       1.805   3.302  21.561  0.00  0.00    +0.000 C 
ATOM      5  C   UNL     1       3.164   3.880  19.505  0.00  0.00    +0.000 A 
ATOM      6  C   UNL     1       3.584   4.780  18.496  0.00  0.00    +0.000 A 
ATOM      7  C   UNL     1       3.063   6.071  18.532  0.00  0.00    +0.000 A 
ENDROOT
BRANCH   6   8
ATOM      8  C   UNL     1       4.549   4.256  17.465  0.00  0.00    +0.000 C 
ATOM      9  O   UNL     1       4.335   3.101  17.084  0.00  0.00    +0.000 OA
ATOM     10  N   UNL     1       5.704   4.960  17.031  0.00  0.00    +0.000 N 
BRANCH  10  11
ATOM     11  C   UNL     1       5.984   6.399  17.178  0.00  0.00    +0.000 C 
BRANCH  11  12
ATOM     12  C   UNL     1       7.445   6.712  17.592  0.00  0.00    +0.000 C 
ATOM     13  C   UNL     1       7.747   8.212  17.605  0.00  0.00    +0.000 C 
ATOM     14  C   UNL     1       7.755   6.105  18.960  0.00  0.00    +0.000 C 
ENDBRANCH  11  12
ENDBRANCH  10  11
BRANCH  10  15
ATOM     15  C   UNL     1       6.697   4.176  16.250  0.00  0.00    +0.000 C 
BRANCH  15  16
ATOM     16  C   UNL     1       6.510   4.221  14.710  0.00  0.00    +0.000 C 
ATOM     17  C   UNL     1       5.082   4.599  14.316  0.00  0.00    +0.000 C 
ATOM     18  C   UNL     1       7.488   5.207  14.063  0.00  0.00    +0.000 C 
ENDBRANCH  15  16
ENDBRANCH  10  15
ENDBRANCH   6   8
BRANCH   1  19
ATOM     19  O   UNL     1       2.185   7.892  19.726  0.00  0.00    +0.000 OA
BRANCH  19  20
ATOM     20  C   UNL     1       2.076   8.522  18.438  0.00  0.00    +0.000 C 
BRANCH  20  21
ATOM     21  C   UNL     1       0.714   9.208  18.274  0.00  0.00    +0.000 C 
BRANCH  21  28
ATOM     22  C   UNL     1      -0.519  11.195  19.326  0.00  0.00    +0.000 A 
ATOM     23  C   UNL     1      -1.030  11.836  20.464  0.00  0.00    +0.000 A 
ATOM     24  C   UNL     1      -0.825  11.296  21.735  0.00  0.00    +0.000 A 
ATOM     25  C   UNL     1      -0.124  10.106  21.872  0.00  0.00    +0.000 A 
ATOM     26 CL   UNL     1       0.107   9.425  23.435  0.00  0.00    +0.000 Cl
ATOM     27  C   UNL     1       0.377   9.452  20.750  0.00  0.00    +0.000 A 
ATOM     28  C   UNL     1       0.194   9.989  19.462  0.00  0.00    +0.000 A 
BRANCH  22  30
ATOM     29  C   UNL     1      -2.078  11.633  17.598  0.00  0.00    +0.000 C 
ATOM     30  O   UNL     1      -0.727  11.651  18.049  0.00  0.00    +0.000 OA
ENDBRANCH  22  30
ENDBRANCH  21  28
ENDBRANCH  20  21
ENDBRANCH  19  20
ENDBRANCH   1  19
TORSDOF 10
ENDMDL
MODEL 8
REMARK VINA RESULT:      -7.3      1.948      2.533
REMARK  Name = 
REMARK  16 active torsions:
REMARK  status: ('A' for Active; 'I' for Inactive)
REMARK    1  A    between atoms: C_1  and  O_2
REMARK    2  A    between atoms: O_2  and  C_3
REMARK    3  A    between atoms: C_9  and  C_10
REMARK    4  A    between atoms: C_10  and  C_11
REMARK    5  A    between atoms: C_11  and  O_12
REMARK    6  A    between atoms: O_12  and  C_13
REMARK    7  A    between atoms: C_15  and  C_16
REMARK    8  A    between atoms: C_18  and  C_19
REMARK    9  A    between atoms: N_21  and  C_22
REMARK   10  A    between atoms: N_21  and  C_26
REMARK   11  A    between atoms: C_22  and  C_23
REMARK   12  A    between atoms: C_23  and  C_24
REMARK   13  A    between atoms: C_23  and  C_25
REMARK   14  A    between atoms: C_26  and  C_27
REMARK   15  A    between atoms: C_27  and  C_28
REMARK   16  A    between atoms: C_27  and  C_29
REMARK                            x       y       z     vdW  Elec       q    Type
REMARK                         _______ _______ _______ _____ _____    ______ ____
ROOT
ATOM      1  C   UNL     1       2.284   6.423  19.815  0.00  0.00    +0.000 A 
ATOM      2  C   UNL     1       1.779   5.467  20.696  0.00  0.00    +0.000 A 
ATOM      3  C   UNL     1       1.901   4.110  20.393  0.00  0.00    +0.000 A 
ATOM      4  C   UNL     1       1.281   3.075  21.291  0.00  0.00    +0.000 C 
ATOM      5  C   UNL     1       2.621   3.733  19.247  0.00  0.00    +0.000 A 
ATOM      6  C   UNL     1       3.133   4.695  18.344  0.00  0.00    +0.000 A 
ATOM      7  C   UNL     1       2.828   6.031  18.590  0.00  0.00    +0.000 A 
ENDROOT
BRANCH   6   8
ATOM      8  C   UNL     1       3.955   4.186  17.189  0.00  0.00    +0.000 C 
ATOM      9  O   UNL     1       3.657   3.057  16.790  0.00  0.00    +0.000 OA
ATOM     10  N   UNL     1       5.078   4.872  16.653  0.00  0.00    +0.000 N 
BRANCH  10  11
ATOM     11  C   UNL     1       5.425   6.293  16.824  0.00  0.00    +0.000 C 
BRANCH  11  12
ATOM     12  C   UNL     1       6.458   6.552  17.950  0.00  0.00    +0.000 C 
ATOM     13  C   UNL     1       6.993   5.260  18.571  0.00  0.00    +0.000 C 
ATOM     14  C   UNL     1       7.618   7.399  17.427  0.00  0.00    +0.000 C 
ENDBRANCH  11  12
ENDBRANCH  10  11
BRANCH  10  15
ATOM     15  C   UNL     1       5.947   4.091  15.732  0.00  0.00    +0.000 C 
BRANCH  15  16
ATOM     16  C   UNL     1       6.047   4.648  14.287  0.00  0.00    +0.000 C 
ATOM     17  C   UNL     1       7.468   5.096  13.942  0.00  0.00    +0.000 C 
ATOM     18  C   UNL     1       5.584   3.608  13.261  0.00  0.00    +0.000 C 
ENDBRANCH  15  16
ENDBRANCH  10  15
ENDBRANCH   6   8
BRANCH   1  19
ATOM     19  O   UNL     1       2.306   7.771  20.078  0.00  0.00    +0.000 OA
BRANCH  19  20
ATOM     20  C   UNL     1       1.649   8.566  19.075  0.00  0.00    +0.000 C 
BRANCH  20  21
ATOM     21  C   UNL     1       0.490   9.367  19.681  0.00  0.00    +0.000 C 
BRANCH  21  28
ATOM     22  C   UNL     1      -0.935  11.202  18.595  0.00  0.00    +0.000 A 
ATOM     23  C   UNL     1      -1.083  12.536  18.187  0.00  0.00    +0.000 A 
ATOM     24  C   UNL     1      -0.029  13.440  18.320  0.00  0.00    +0.000 A 
ATOM     25  C   UNL     1       1.172  13.021  18.876  0.00  0.00    +0.000 A 
ATOM     26 CL   UNL     1       2.464  14.139  19.065  0.00  0.00    +0.000 Cl
ATOM     27  C   UNL     1       1.329  11.702  19.297  0.00  0.00    +0.000 A 
ATOM     28  C   UNL     1       0.281  10.772  19.156  0.00  0.00    +0.000 A 
BRANCH  22  30
ATOM     29  C   UNL     1      -2.352   9.892  17.223  0.00  0.00    +0.000 C 
ATOM     30  O   UNL     1      -1.948  10.280  18.532  0.00  0.00    +0.000 OA
ENDBRANCH  22  30
ENDBRANCH  21  28
ENDBRANCH  20  21
ENDBRANCH  19  20
ENDBRANCH   1  19
TORSDOF 10
ENDMDL
MODEL 9
REMARK VINA RESULT:      -7.2      1.942      2.576
REMARK  Name = 
REMARK  16 active torsions:
REMARK  status: ('A' for Active; 'I' for Inactive)
REMARK    1  A    between atoms: C_1  and  O_2
REMARK    2  A    between atoms: O_2  and  C_3
REMARK    3  A    between atoms: C_9  and  C_10
REMARK    4  A    between atoms: C_10  and  C_11
REMARK    5  A    between atoms: C_11  and  O_12
REMARK    6  A    between atoms: O_12  and  C_13
REMARK    7  A    between atoms: C_15  and  C_16
REMARK    8  A    between atoms: C_18  and  C_19
REMARK    9  A    between atoms: N_21  and  C_22
REMARK   10  A    between atoms: N_21  and  C_26
REMARK   11  A    between atoms: C_22  and  C_23
REMARK   12  A    between atoms: C_23  and  C_24
REMARK   13  A    between atoms: C_23  and  C_25
REMARK   14  A    between atoms: C_26  and  C_27
REMARK   15  A    between atoms: C_27  and  C_28
REMARK   16  A    between atoms: C_27  and  C_29
REMARK                            x       y       z     vdW  Elec       q    Type
REMARK                         _______ _______ _______ _____ _____    ______ ____
ROOT
ATOM      1  C   UNL     1       2.136   6.174  19.695  0.00  0.00    +0.000 A 
ATOM      2  C   UNL     1       2.071   5.219  20.709  0.00  0.00    +0.000 A 
ATOM      3  C   UNL     1       2.563   3.933  20.483  0.00  0.00    +0.000 A 
ATOM      4  C   UNL     1       2.416   2.870  21.538  0.00  0.00    +0.000 C 
ATOM      5  C   UNL     1       3.204   3.655  19.264  0.00  0.00    +0.000 A 
ATOM      6  C   UNL     1       3.271   4.616  18.227  0.00  0.00    +0.000 A 
ATOM      7  C   UNL     1       2.605   5.823  18.428  0.00  0.00    +0.000 A 
ENDROOT
BRANCH   6   8
ATOM      8  C   UNL     1       4.048   4.243  16.992  0.00  0.00    +0.000 C 
ATOM      9  O   UNL     1       3.371   3.802  16.059  0.00  0.00    +0.000 OA
ATOM     10  N   UNL     1       5.466   4.267  16.911  0.00  0.00    +0.000 N 
BRANCH  10  11
ATOM     11  C   UNL     1       6.403   4.974  17.801  0.00  0.00    +0.000 C 
BRANCH  11  12
ATOM     12  C   UNL     1       6.851   6.358  17.263  0.00  0.00    +0.000 C 
ATOM     13  C   UNL     1       5.673   7.293  16.984  0.00  0.00    +0.000 C 
ATOM     14  C   UNL     1       7.824   7.021  18.237  0.00  0.00    +0.000 C 
ENDBRANCH  11  12
ENDBRANCH  10  11
BRANCH  10  15
ATOM     15  C   UNL     1       6.069   3.583  15.736  0.00  0.00    +0.000 C 
BRANCH  15  16
ATOM     16  C   UNL     1       6.030   4.389  14.411  0.00  0.00    +0.000 C 
ATOM     17  C   UNL     1       7.397   4.980  14.059  0.00  0.00    +0.000 C 
ATOM     18  C   UNL     1       5.545   3.518  13.248  0.00  0.00    +0.000 C 
ENDBRANCH  15  16
ENDBRANCH  10  15
ENDBRANCH   6   8
BRANCH   1  19
ATOM     19  O   UNL     1       1.777   7.490  19.858  0.00  0.00    +0.000 OA
BRANCH  19  20
ATOM     20  C   UNL     1       2.299   8.362  18.841  0.00  0.00    +0.000 C 
BRANCH  20  21
ATOM     21  C   UNL     1       1.171   8.931  17.971  0.00  0.00    +0.000 C 
BRANCH  21  28
ATOM     22  C   UNL     1      -0.854  10.493  18.161  0.00  0.00    +0.000 A 
ATOM     23  C   UNL     1      -1.453  11.634  18.714  0.00  0.00    +0.000 A 
ATOM     24  C   UNL     1      -0.733  12.473  19.565  0.00  0.00    +0.000 A 
ATOM     25  C   UNL     1       0.584  12.166  19.881  0.00  0.00    +0.000 A 
ATOM     26 CL   UNL     1       1.466  13.184  20.951  0.00  0.00    +0.000 Cl
ATOM     27  C   UNL     1       1.188  11.030  19.349  0.00  0.00    +0.000 A 
ATOM     28  C   UNL     1       0.481  10.181  18.476  0.00  0.00    +0.000 A 
BRANCH  22  30
ATOM     29  C   UNL     1      -2.928   9.814  17.242  0.00  0.00    +0.000 C 
ATOM     30  O   UNL     1      -1.524   9.607  17.356  0.00  0.00    +0.000 OA
ENDBRANCH  22  30
ENDBRANCH  21  28
ENDBRANCH  20  21
ENDBRANCH  19  20
ENDBRANCH   1  19
TORSDOF 10
ENDMDL
