MODEL 1
REMARK VINA RESULT:      -8.5      0.000      0.000
REMARK  Name = 
REMARK  9 active torsions:
REMARK  status: ('A' for Active; 'I' for Inactive)
REMARK    1  A    between atoms: C_1  and  C_2
REMARK    2  A    between atoms: C_8  and  C_9
REMARK    3  A    between atoms: C_9  and  C_11
REMARK    4  A    between atoms: C_15  and  O_16
REMARK    5  A    between atoms: C_20  and  O_21
REMARK    6  A    between atoms: O_21  and  C_22
REMARK    7  A    between atoms: C_25  and  C_26
REMARK    8  A    between atoms: C_27  and  C_28
REMARK    9  A    between atoms: C_28  and  O_30
REMARK                            x       y       z     vdW  Elec       q    Type
REMARK                         _______ _______ _______ _____ _____    ______ ____
ROOT
ATOM      1  C   UNL     1       4.459   5.496  17.235  0.00  0.00    +0.000 A 
ATOM      2  S   UNL     1       4.382   3.837  16.808  0.00  0.00    +0.000 S 
ATOM      3  C   UNL     1       2.986   3.562  17.761  0.00  0.00    +0.000 A 
ATOM      4  C   UNL     1       2.180   2.402  17.746  0.00  0.00    +0.000 A 
ATOM      5  C   UNL     1       1.116   2.327  18.638  0.00  0.00    +0.000 A 
ATOM      6  C   UNL     1       0.882   3.330  19.559  0.00  0.00    +0.000 A 
ATOM      7  C   UNL     1       1.695   4.466  19.574  0.00  0.00    +0.000 A 
ATOM      8  C   UNL     1       2.738   4.638  18.619  0.00  0.00    +0.000 A 
ATOM      9  C   UNL     1       3.612   5.754  18.304  0.00  0.00    +0.000 A 
ENDROOT
BRANCH   1  10
ATOM     10  C   UNL     1       5.380   6.413  16.550  0.00  0.00    +0.000 C 
ATOM     11  O   UNL     1       5.313   6.626  15.340  0.00  0.00    +0.000 OA
BRANCH  10  19
ATOM     12  C   UNL     1       7.232   4.889  18.452  0.00  0.00    +0.000 C 
ATOM     13  C   UNL     1       7.387   6.357  18.160  0.00  0.00    +0.000 A 
ATOM     14  C   UNL     1       8.440   7.040  18.805  0.00  0.00    +0.000 A 
ATOM     15  C   UNL     1       8.641   8.405  18.612  0.00  0.00    +0.000 A 
ATOM     16  C   UNL     1       7.764   9.105  17.804  0.00  0.00    +0.000 A 
ATOM     17  F   UNL     1       7.945  10.418  17.613  0.00  0.00    +0.000 F 
ATOM     18  C   UNL     1       6.694   8.467  17.188  0.00  0.00    +0.000 A 
ATOM     19  C   UNL     1       6.517   7.077  17.305  0.00  0.00    +0.000 A 
ENDBRANCH  10  19
ENDBRANCH   1  10
BRANCH   5  20
ATOM     20  O   UNL     1       0.274   1.255  18.641  0.00  0.00    +0.000 OA
ATOM     21  H   UNL     1       0.005   1.066  19.555  0.00  0.00    +0.000 HD
ENDBRANCH   5  20
BRANCH   9  22
ATOM     22  O   UNL     1       3.660   6.963  18.924  0.00  0.00    +0.000 OA
BRANCH  22  23
ATOM     23  C   UNL     1       2.619   7.857  18.949  0.00  0.00    +0.000 A 
ATOM     24  C   UNL     1       2.289   8.465  17.738  0.00  0.00    +0.000 A 
ATOM     25  C   UNL     1       1.194   9.336  17.662  0.00  0.00    +0.000 A 
ATOM     26  C   UNL     1       0.408   9.596  18.792  0.00  0.00    +0.000 A 
ATOM     27  C   UNL     1       0.775   9.008  20.011  0.00  0.00    +0.000 A 
ATOM     28  C   UNL     1       1.851   8.117  20.082  0.00  0.00    +0.000 A 
BRANCH  26  29
ATOM     29  C   UNL     1      -0.766  10.473  18.661  0.00  0.00    +0.000 C 
ATOM     30  C   UNL     1      -1.791  10.222  17.831  0.00  0.00    +0.000 C 
BRANCH  30  31
ATOM     31  C   UNL     1      -2.896  11.194  17.711  0.00  0.00    +0.000 C 
ATOM     32  O   UNL     1      -3.778  11.348  18.536  0.00  0.00    +0.000 OA
BRANCH  31  33
ATOM     33  O   UNL     1      -2.817  11.907  16.569  0.00  0.00    +0.000 OA
ATOM     34  H   UNL     1      -2.879  12.874  16.668  0.00  0.00    +0.000 HD
ENDBRANCH  31  33
ENDBRANCH  30  31
ENDBRANCH  26  29
ENDBRANCH  22  23
ENDBRANCH   9  22
TORSDOF 8
ENDMDL
MODEL 2
REMARK VINA RESULT:      -8.4      0.577      1.065
REMARK  Name = 
REMARK  9 active torsions:
REMARK  status: ('A' for Active; 'I' for Inactive)
REMARK    1  A    between atoms: C_1  and  C_2
REMARK    2  A    between atoms: C_8  and  C_9
REMARK    3  A    between atoms: C_9  and  C_11
REMARK    4  A    between atoms: C_15  and  O_16
REMARK    5  A    between atoms: C_20  and  O_21
REMARK    6  A    between atoms: O_21  and  C_22
REMARK    7  A    between atoms: C_25  and  C_26
REMARK    8  A    between atoms: C_27  and  C_28
REMARK    9  A    between atoms: C_28  and  O_30
REMARK                            x       y       z     vdW  Elec       q    Type
REMARK                         _______ _______ _______ _____ _____    ______ ____
ROOT
ATOM      1  C   UNL     1       4.458   5.509  17.219  0.00  0.00    +0.000 A 
ATOM      2  S   UNL     1       4.430   3.838  16.835  0.00  0.00    +0.000 S 
ATOM      3  C   UNL     1       3.014   3.556  17.757  0.00  0.00    +0.000 A 
ATOM      4  C   UNL     1       2.235   2.378  17.751  0.00  0.00    +0.000 A 
ATOM      5  C   UNL     1       1.148   2.303  18.615  0.00  0.00    +0.000 A 
ATOM      6  C   UNL     1       0.865   3.324  19.501  0.00  0.00    +0.000 A 
ATOM      7  C   UNL     1       1.652   4.478  19.507  0.00  0.00    +0.000 A 
ATOM      8  C   UNL     1       2.717   4.649  18.578  0.00  0.00    +0.000 A 
ATOM      9  C   UNL     1       3.575   5.776  18.256  0.00  0.00    +0.000 A 
ENDROOT
BRANCH   1  10
ATOM     10  C   UNL     1       5.377   6.428  16.534  0.00  0.00    +0.000 C 
ATOM     11  O   UNL     1       5.310   6.643  15.325  0.00  0.00    +0.000 OA
BRANCH  10  19
ATOM     12  C   UNL     1       7.239   4.902  18.427  0.00  0.00    +0.000 C 
ATOM     13  C   UNL     1       7.388   6.372  18.140  0.00  0.00    +0.000 A 
ATOM     14  C   UNL     1       8.439   7.056  18.787  0.00  0.00    +0.000 A 
ATOM     15  C   UNL     1       8.635   8.423  18.599  0.00  0.00    +0.000 A 
ATOM     16  C   UNL     1       7.754   9.124  17.797  0.00  0.00    +0.000 A 
ATOM     17  F   UNL     1       7.929  10.438  17.611  0.00  0.00    +0.000 F 
ATOM     18  C   UNL     1       6.685   8.484  17.180  0.00  0.00    +0.000 A 
ATOM     19  C   UNL     1       6.513   7.093  17.291  0.00  0.00    +0.000 A 
ENDBRANCH  10  19
ENDBRANCH   1  10
BRANCH   5  20
ATOM     20  O   UNL     1       0.330   1.212  18.624  0.00  0.00    +0.000 OA
ATOM     21  H   UNL     1       0.425   0.751  19.473  0.00  0.00    +0.000 HD
ENDBRANCH   5  20
BRANCH   9  22
ATOM     22  O   UNL     1       3.579   7.002  18.844  0.00  0.00    +0.000 OA
BRANCH  22  23
ATOM     23  C   UNL     1       2.485   7.829  18.905  0.00  0.00    +0.000 A 
ATOM     24  C   UNL     1       1.903   8.004  20.160  0.00  0.00    +0.000 A 
ATOM     25  C   UNL     1       0.827   8.887  20.322  0.00  0.00    +0.000 A 
ATOM     26  C   UNL     1       0.332   9.615  19.233  0.00  0.00    +0.000 A 
ATOM     27  C   UNL     1       0.901   9.401  17.970  0.00  0.00    +0.000 A 
ATOM     28  C   UNL     1       1.993   8.540  17.813  0.00  0.00    +0.000 A 
BRANCH  26  29
ATOM     29  C   UNL     1      -0.764  10.573  19.452  0.00  0.00    +0.000 C 
ATOM     30  C   UNL     1      -1.635  10.934  18.496  0.00  0.00    +0.000 C 
BRANCH  30  31
ATOM     31  C   UNL     1      -2.661  11.957  18.783  0.00  0.00    +0.000 C 
ATOM     32  O   UNL     1      -3.858  11.803  18.622  0.00  0.00    +0.000 OA
BRANCH  31  33
ATOM     33  O   UNL     1      -2.117  13.097  19.254  0.00  0.00    +0.000 OA
ATOM     34  H   UNL     1      -2.683  13.624  19.845  0.00  0.00    +0.000 HD
ENDBRANCH  31  33
ENDBRANCH  30  31
ENDBRANCH  26  29
ENDBRANCH  22  23
ENDBRANCH   9  22
TORSDOF 8
ENDMDL
MODEL 3
REMARK VINA RESULT:      -8.3      4.254      8.438
REMARK  Name = 
REMARK  9 active torsions:
REMARK  status: ('A' for Active; 'I' for Inactive)
REMARK    1  A    between atoms: C_1  and  C_2
REMARK    2  A    between atoms: C_8  and  C_9
REMARK    3  A    between atoms: C_9  and  C_11
REMARK    4  A    between atoms: C_15  and  O_16
REMARK    5  A    between atoms: C_20  and  O_21
REMARK    6  A    between atoms: O_21  and  C_22
REMARK    7  A    between atoms: C_25  and  C_26
REMARK    8  A    between atoms: C_27  and  C_28
REMARK    9  A    between atoms: C_28  and  O_30
REMARK                            x       y       z     vdW  Elec       q    Type
REMARK                         _______ _______ _______ _____ _____    ______ ____
ROOT
ATOM      1  C   UNL     1       0.181  12.426  19.517  0.00  0.00    +0.000 A 
ATOM      2  S   UNL     1      -1.320  13.248  19.625  0.00  0.00    +0.000 S 
ATOM      3  C   UNL     1      -2.179  11.969  18.876  0.00  0.00    +0.000 A 
ATOM      4  C   UNL     1      -3.582  11.838  18.800  0.00  0.00    +0.000 A 
ATOM      5  C   UNL     1      -4.107  10.760  18.096  0.00  0.00    +0.000 A 
ATOM      6  C   UNL     1      -3.284   9.869  17.435  0.00  0.00    +0.000 A 
ATOM      7  C   UNL     1      -1.897  10.016  17.506  0.00  0.00    +0.000 A 
ATOM      8  C   UNL     1      -1.305  11.045  18.293  0.00  0.00    +0.000 A 
ATOM      9  C   UNL     1       0.067  11.333  18.670  0.00  0.00    +0.000 A 
ENDROOT
BRANCH   1  10
ATOM     10  C   UNL     1       1.375  12.936  20.206  0.00  0.00    +0.000 C 
ATOM     11  O   UNL     1       1.858  12.369  21.185  0.00  0.00    +0.000 OA
BRANCH  10  19
ATOM     12  C   UNL     1       1.339  15.455  21.946  0.00  0.00    +0.000 C 
ATOM     13  C   UNL     1       2.021  15.395  20.605  0.00  0.00    +0.000 A 
ATOM     14  C   UNL     1       2.663  16.566  20.151  0.00  0.00    +0.000 A 
ATOM     15  C   UNL     1       3.297  16.608  18.910  0.00  0.00    +0.000 A 
ATOM     16  C   UNL     1       3.256  15.490  18.097  0.00  0.00    +0.000 A 
ATOM     17  F   UNL     1       3.858  15.518  16.902  0.00  0.00    +0.000 F 
ATOM     18  C   UNL     1       2.595  14.336  18.501  0.00  0.00    +0.000 A 
ATOM     19  C   UNL     1       2.016  14.244  19.780  0.00  0.00    +0.000 A 
ENDBRANCH  10  19
ENDBRANCH   1  10
BRANCH   5  20
ATOM     20  O   UNL     1      -5.453  10.553  18.025  0.00  0.00    +0.000 OA
ATOM     21  H   UNL     1      -5.632   9.602  18.111  0.00  0.00    +0.000 HD
ENDBRANCH   5  20
BRANCH   9  22
ATOM     22  O   UNL     1       1.184  10.654  18.293  0.00  0.00    +0.000 OA
BRANCH  22  23
ATOM     23  C   UNL     1       1.502   9.394  18.732  0.00  0.00    +0.000 A 
ATOM     24  C   UNL     1       2.129   8.551  17.815  0.00  0.00    +0.000 A 
ATOM     25  C   UNL     1       2.552   7.274  18.204  0.00  0.00    +0.000 A 
ATOM     26  C   UNL     1       2.365   6.830  19.519  0.00  0.00    +0.000 A 
ATOM     27  C   UNL     1       1.699   7.672  20.420  0.00  0.00    +0.000 A 
ATOM     28  C   UNL     1       1.302   8.958  20.041  0.00  0.00    +0.000 A 
BRANCH  26  29
ATOM     29  C   UNL     1       2.870   5.502  19.905  0.00  0.00    +0.000 C 
ATOM     30  C   UNL     1       3.698   4.773  19.140  0.00  0.00    +0.000 C 
BRANCH  30  31
ATOM     31  C   UNL     1       4.098   3.419  19.573  0.00  0.00    +0.000 C 
ATOM     32  O   UNL     1       3.392   2.656  20.207  0.00  0.00    +0.000 OA
BRANCH  31  33
ATOM     33  O   UNL     1       5.352   3.115  19.180  0.00  0.00    +0.000 OA
ATOM     34  H   UNL     1       5.826   3.814  18.696  0.00  0.00    +0.000 HD
ENDBRANCH  31  33
ENDBRANCH  30  31
ENDBRANCH  26  29
ENDBRANCH  22  23
ENDBRANCH   9  22
TORSDOF 8
ENDMDL
MODEL 4
REMARK VINA RESULT:      -8.0      4.953      9.805
REMARK  Name = 
REMARK  9 active torsions:
REMARK  status: ('A' for Active; 'I' for Inactive)
REMARK    1  A    between atoms: C_1  and  C_2
REMARK    2  A    between atoms: C_8  and  C_9
REMARK    3  A    between atoms: C_9  and  C_11
REMARK    4  A    between atoms: C_15  and  O_16
REMARK    5  A    between atoms: C_20  and  O_21
REMARK    6  A    between atoms: O_21  and  C_22
REMARK    7  A    between atoms: C_25  and  C_26
REMARK    8  A    between atoms: C_27  and  C_28
REMARK    9  A    between atoms: C_28  and  O_30
REMARK                            x       y       z     vdW  Elec       q    Type
REMARK                         _______ _______ _______ _____ _____    ______ ____
ROOT
ATOM      1  C   UNL     1      -1.416  11.990  20.545  0.00  0.00    +0.000 A 
ATOM      2  S   UNL     1      -2.925  12.532  19.938  0.00  0.00    +0.000 S 
ATOM      3  C   UNL     1      -2.835  11.524  18.556  0.00  0.00    +0.000 A 
ATOM      4  C   UNL     1      -3.879  11.267  17.641  0.00  0.00    +0.000 A 
ATOM      5  C   UNL     1      -3.606  10.468  16.536  0.00  0.00    +0.000 A 
ATOM      6  C   UNL     1      -2.334   9.983  16.300  0.00  0.00    +0.000 A 
ATOM      7  C   UNL     1      -1.305  10.256  17.205  0.00  0.00    +0.000 A 
ATOM      8  C   UNL     1      -1.552  10.988  18.402  0.00  0.00    +0.000 A 
ATOM      9  C   UNL     1      -0.736  11.277  19.568  0.00  0.00    +0.000 A 
ENDROOT
BRANCH   1  10
ATOM     10  C   UNL     1      -0.972  12.348  21.899  0.00  0.00    +0.000 C 
ATOM     11  O   UNL     1       0.173  12.128  22.293  0.00  0.00    +0.000 OA
BRANCH  10  19
ATOM     12  C   UNL     1      -0.845  15.258  22.842  0.00  0.00    +0.000 C 
ATOM     13  C   UNL     1      -1.898  14.290  23.311  0.00  0.00    +0.000 A 
ATOM     14  C   UNL     1      -2.857  14.770  24.228  0.00  0.00    +0.000 A 
ATOM     15  C   UNL     1      -3.853  13.936  24.734  0.00  0.00    +0.000 A 
ATOM     16  C   UNL     1      -3.869  12.606  24.358  0.00  0.00    +0.000 A 
ATOM     17  F   UNL     1      -4.819  11.793  24.839  0.00  0.00    +0.000 F 
ATOM     18  C   UNL     1      -2.912  12.096  23.488  0.00  0.00    +0.000 A 
ATOM     19  C   UNL     1      -1.946  12.934  22.904  0.00  0.00    +0.000 A 
ENDBRANCH  10  19
ENDBRANCH   1  10
BRANCH   5  20
ATOM     20  O   UNL     1      -4.583  10.144  15.642  0.00  0.00    +0.000 OA
ATOM     21  H   UNL     1      -5.443  10.157  16.093  0.00  0.00    +0.000 HD
ENDBRANCH   5  20
BRANCH   9  22
ATOM     22  O   UNL     1       0.560  10.919  19.775  0.00  0.00    +0.000 OA
BRANCH  22  23
ATOM     23  C   UNL     1       0.978   9.629  19.980  0.00  0.00    +0.000 A 
ATOM     24  C   UNL     1       0.569   9.020  21.166  0.00  0.00    +0.000 A 
ATOM     25  C   UNL     1       0.893   7.681  21.420  0.00  0.00    +0.000 A 
ATOM     26  C   UNL     1       1.616   6.931  20.484  0.00  0.00    +0.000 A 
ATOM     27  C   UNL     1       2.054   7.567  19.313  0.00  0.00    +0.000 A 
ATOM     28  C   UNL     1       1.708   8.895  19.046  0.00  0.00    +0.000 A 
BRANCH  26  29
ATOM     29  C   UNL     1       1.892   5.513  20.762  0.00  0.00    +0.000 C 
ATOM     30  C   UNL     1       1.126   4.506  20.309  0.00  0.00    +0.000 C 
BRANCH  30  31
ATOM     31  C   UNL     1       1.436   3.115  20.696  0.00  0.00    +0.000 C 
ATOM     32  O   UNL     1       1.353   2.154  19.954  0.00  0.00    +0.000 OA
BRANCH  31  33
ATOM     33  O   UNL     1       1.829   3.026  21.983  0.00  0.00    +0.000 OA
ATOM     34  H   UNL     1       1.981   2.125  22.318  0.00  0.00    +0.000 HD
ENDBRANCH  31  33
ENDBRANCH  30  31
ENDBRANCH  26  29
ENDBRANCH  22  23
ENDBRANCH   9  22
TORSDOF 8
ENDMDL
MODEL 5
REMARK VINA RESULT:      -8.0      4.931      9.783
REMARK  Name = 
REMARK  9 active torsions:
REMARK  status: ('A' for Active; 'I' for Inactive)
REMARK    1  A    between atoms: C_1  and  C_2
REMARK    2  A    between atoms: C_8  and  C_9
REMARK    3  A    between atoms: C_9  and  C_11
REMARK    4  A    between atoms: C_15  and  O_16
REMARK    5  A    between atoms: C_20  and  O_21
REMARK    6  A    between atoms: O_21  and  C_22
REMARK    7  A    between atoms: C_25  and  C_26
REMARK    8  A    between atoms: C_27  and  C_28
REMARK    9  A    between atoms: C_28  and  O_30
REMARK                            x       y       z     vdW  Elec       q    Type
REMARK                         _______ _______ _______ _____ _____    ______ ____
ROOT
ATOM      1  C   UNL     1      -1.455  11.890  20.684  0.00  0.00    +0.000 A 
ATOM      2  S   UNL     1      -2.989  12.452  20.166  0.00  0.00    +0.000 S 
ATOM      3  C   UNL     1      -2.889  11.625  18.669  0.00  0.00    +0.000 A 
ATOM      4  C   UNL     1      -3.939  11.448  17.742  0.00  0.00    +0.000 A 
ATOM      5  C   UNL     1      -3.658  10.800  16.544  0.00  0.00    +0.000 A 
ATOM      6  C   UNL     1      -2.376  10.392  16.235  0.00  0.00    +0.000 A 
ATOM      7  C   UNL     1      -1.342  10.586  17.154  0.00  0.00    +0.000 A 
ATOM      8  C   UNL     1      -1.593  11.155  18.435  0.00  0.00    +0.000 A 
ATOM      9  C   UNL     1      -0.768  11.326  19.618  0.00  0.00    +0.000 A 
ENDROOT
BRANCH   1  10
ATOM     10  C   UNL     1      -1.000  12.093  22.066  0.00  0.00    +0.000 C 
ATOM     11  O   UNL     1       0.066  11.640  22.480  0.00  0.00    +0.000 OA
BRANCH  10  19
ATOM     12  C   UNL     1      -0.489  14.971  22.979  0.00  0.00    +0.000 C 
ATOM     13  C   UNL     1      -1.654  14.151  23.466  0.00  0.00    +0.000 A 
ATOM     14  C   UNL     1      -2.535  14.759  24.386  0.00  0.00    +0.000 A 
ATOM     15  C   UNL     1      -3.625  14.065  24.909  0.00  0.00    +0.000 A 
ATOM     16  C   UNL     1      -3.817  12.745  24.546  0.00  0.00    +0.000 A 
ATOM     17  F   UNL     1      -4.859  12.067  25.043  0.00  0.00    +0.000 F 
ATOM     18  C   UNL     1      -2.942  12.108  23.674  0.00  0.00    +0.000 A 
ATOM     19  C   UNL     1      -1.881  12.810  23.073  0.00  0.00    +0.000 A 
ENDBRANCH  10  19
ENDBRANCH   1  10
BRANCH   5  20
ATOM     20  O   UNL     1      -4.639  10.556  15.628  0.00  0.00    +0.000 OA
ATOM     21  H   UNL     1      -5.487  10.873  15.980  0.00  0.00    +0.000 HD
ENDBRANCH   5  20
BRANCH   9  22
ATOM     22  O   UNL     1       0.542  10.989  19.764  0.00  0.00    +0.000 OA
BRANCH  22  23
ATOM     23  C   UNL     1       1.021   9.707  19.672  0.00  0.00    +0.000 A 
ATOM     24  C   UNL     1       1.639   9.354  18.472  0.00  0.00    +0.000 A 
ATOM     25  C   UNL     1       2.218   8.088  18.322  0.00  0.00    +0.000 A 
ATOM     26  C   UNL     1       2.199   7.165  19.375  0.00  0.00    +0.000 A 
ATOM     27  C   UNL     1       1.541   7.518  20.562  0.00  0.00    +0.000 A 
ATOM     28  C   UNL     1       0.987   8.792  20.723  0.00  0.00    +0.000 A 
BRANCH  26  29
ATOM     29  C   UNL     1       2.864   5.864  19.199  0.00  0.00    +0.000 C 
ATOM     30  C   UNL     1       2.842   5.169  18.050  0.00  0.00    +0.000 C 
BRANCH  30  31
ATOM     31  C   UNL     1       3.476   3.837  17.983  0.00  0.00    +0.000 C 
ATOM     32  O   UNL     1       3.194   2.897  18.704  0.00  0.00    +0.000 OA
BRANCH  31  33
ATOM     33  O   UNL     1       4.416   3.776  17.018  0.00  0.00    +0.000 OA
ATOM     34  H   UNL     1       5.123   4.442  17.072  0.00  0.00    +0.000 HD
ENDBRANCH  31  33
ENDBRANCH  30  31
ENDBRANCH  26  29
ENDBRANCH  22  23
ENDBRANCH   9  22
TORSDOF 8
ENDMDL
MODEL 6
REMARK VINA RESULT:      -8.0      4.304      8.441
REMARK  Name = 
REMARK  9 active torsions:
REMARK  status: ('A' for Active; 'I' for Inactive)
REMARK    1  A    between atoms: C_1  and  C_2
REMARK    2  A    between atoms: C_8  and  C_9
REMARK    3  A    between atoms: C_9  and  C_11
REMARK    4  A    between atoms: C_15  and  O_16
REMARK    5  A    between atoms: C_20  and  O_21
REMARK    6  A    between atoms: O_21  and  C_22
REMARK    7  A    between atoms: C_25  and  C_26
REMARK    8  A    between atoms: C_27  and  C_28
REMARK    9  A    between atoms: C_28  and  O_30
REMARK                            x       y       z     vdW  Elec       q    Type
REMARK                         _______ _______ _______ _____ _____    ______ ____
ROOT
ATOM      1  C   UNL     1       0.262  12.481  19.539  0.00  0.00    +0.000 A 
ATOM      2  S   UNL     1      -1.230  13.326  19.553  0.00  0.00    +0.000 S 
ATOM      3  C   UNL     1      -2.084  12.016  18.855  0.00  0.00    +0.000 A 
ATOM      4  C   UNL     1      -3.486  11.898  18.743  0.00  0.00    +0.000 A 
ATOM      5  C   UNL     1      -4.005  10.787  18.088  0.00  0.00    +0.000 A 
ATOM      6  C   UNL     1      -3.176   9.848  17.506  0.00  0.00    +0.000 A 
ATOM      7  C   UNL     1      -1.789   9.982  17.611  0.00  0.00    +0.000 A 
ATOM      8  C   UNL     1      -1.207  11.048  18.354  0.00  0.00    +0.000 A 
ATOM      9  C   UNL     1       0.158  11.341  18.755  0.00  0.00    +0.000 A 
ENDROOT
BRANCH   1  10
ATOM     10  C   UNL     1       1.442  13.015  20.233  0.00  0.00    +0.000 C 
ATOM     11  O   UNL     1       1.918  12.473  21.230  0.00  0.00    +0.000 OA
BRANCH  10  19
ATOM     12  C   UNL     1       1.508  15.520  21.993  0.00  0.00    +0.000 C 
ATOM     13  C   UNL     1       2.129  15.465  20.623  0.00  0.00    +0.000 A 
ATOM     14  C   UNL     1       2.762  16.634  20.150  0.00  0.00    +0.000 A 
ATOM     15  C   UNL     1       3.340  16.680  18.883  0.00  0.00    +0.000 A 
ATOM     16  C   UNL     1       3.252  15.570  18.064  0.00  0.00    +0.000 A 
ATOM     17  F   UNL     1       3.801  15.602  16.843  0.00  0.00    +0.000 F 
ATOM     18  C   UNL     1       2.598  14.418  18.487  0.00  0.00    +0.000 A 
ATOM     19  C   UNL     1       2.076  14.321  19.790  0.00  0.00    +0.000 A 
ENDBRANCH  10  19
ENDBRANCH   1  10
BRANCH   5  20
ATOM     20  O   UNL     1      -5.351  10.592  17.989  0.00  0.00    +0.000 OA
ATOM     21  H   UNL     1      -5.804  11.197  18.599  0.00  0.00    +0.000 HD
ENDBRANCH   5  20
BRANCH   9  22
ATOM     22  O   UNL     1       1.276  10.627  18.453  0.00  0.00    +0.000 OA
BRANCH  22  23
ATOM     23  C   UNL     1       1.537   9.369  18.933  0.00  0.00    +0.000 A 
ATOM     24  C   UNL     1       1.110   9.093  20.231  0.00  0.00    +0.000 A 
ATOM     25  C   UNL     1       1.274   7.811  20.771  0.00  0.00    +0.000 A 
ATOM     26  C   UNL     1       1.853   6.786  20.012  0.00  0.00    +0.000 A 
ATOM     27  C   UNL     1       2.313   7.087  18.723  0.00  0.00    +0.000 A 
ATOM     28  C   UNL     1       2.125   8.359  18.173  0.00  0.00    +0.000 A 
BRANCH  26  29
ATOM     29  C   UNL     1       1.960   5.438  20.594  0.00  0.00    +0.000 C 
ATOM     30  C   UNL     1       2.933   4.568  20.276  0.00  0.00    +0.000 C 
BRANCH  30  31
ATOM     31  C   UNL     1       2.923   3.210  20.854  0.00  0.00    +0.000 C 
ATOM     32  O   UNL     1       3.402   2.225  20.321  0.00  0.00    +0.000 OA
BRANCH  31  33
ATOM     33  O   UNL     1       2.317   3.179  22.059  0.00  0.00    +0.000 OA
ATOM     34  H   UNL     1       2.470   2.378  22.590  0.00  0.00    +0.000 HD
ENDBRANCH  31  33
ENDBRANCH  30  31
ENDBRANCH  26  29
ENDBRANCH  22  23
ENDBRANCH   9  22
TORSDOF 8
ENDMDL
MODEL 7
REMARK VINA RESULT:      -7.9      4.844      9.427
REMARK  Name = 
REMARK  9 active torsions:
REMARK  status: ('A' for Active; 'I' for Inactive)
REMARK    1  A    between atoms: C_1  and  C_2
REMARK    2  A    between atoms: C_8  and  C_9
REMARK    3  A    between atoms: C_9  and  C_11
REMARK    4  A    between atoms: C_15  and  O_16
REMARK    5  A    between atoms: C_20  and  O_21
REMARK    6  A    between atoms: O_21  and  C_22
REMARK    7  A    between atoms: C_25  and  C_26
REMARK    8  A    between atoms: C_27  and  C_28
REMARK    9  A    between atoms: C_28  and  O_30
REMARK                            x       y       z     vdW  Elec       q    Type
REMARK                         _______ _______ _______ _____ _____    ______ ____
ROOT
ATOM      1  C   UNL     1      -1.308  12.099  20.854  0.00  0.00    +0.000 A 
ATOM      2  S   UNL     1      -2.892  12.653  20.501  0.00  0.00    +0.000 S 
ATOM      3  C   UNL     1      -2.938  11.845  18.992  0.00  0.00    +0.000 A 
ATOM      4  C   UNL     1      -4.076  11.668  18.174  0.00  0.00    +0.000 A 
ATOM      5  C   UNL     1      -3.913  11.037  16.946  0.00  0.00    +0.000 A 
ATOM      6  C   UNL     1      -2.665  10.643  16.503  0.00  0.00    +0.000 A 
ATOM      7  C   UNL     1      -1.545  10.836  17.315  0.00  0.00    +0.000 A 
ATOM      8  C   UNL     1      -1.669  11.389  18.622  0.00  0.00    +0.000 A 
ATOM      9  C   UNL     1      -0.729  11.554  19.717  0.00  0.00    +0.000 A 
ENDROOT
BRANCH   1  10
ATOM     10  C   UNL     1      -0.718  12.291  22.185  0.00  0.00    +0.000 C 
ATOM     11  O   UNL     1      -0.311  11.349  22.864  0.00  0.00    +0.000 OA
BRANCH  10  19
ATOM     12  C   UNL     1       1.245  14.461  21.281  0.00  0.00    +0.000 C 
ATOM     13  C   UNL     1       0.229  14.677  22.371  0.00  0.00    +0.000 A 
ATOM     14  C   UNL     1       0.201  15.945  22.989  0.00  0.00    +0.000 A 
ATOM     15  C   UNL     1      -0.690  16.225  24.024  0.00  0.00    +0.000 A 
ATOM     16  C   UNL     1      -1.530  15.224  24.475  0.00  0.00    +0.000 A 
ATOM     17  F   UNL     1      -2.389  15.479  25.471  0.00  0.00    +0.000 F 
ATOM     18  C   UNL     1      -1.496  13.953  23.913  0.00  0.00    +0.000 A 
ATOM     19  C   UNL     1      -0.662  13.670  22.816  0.00  0.00    +0.000 A 
ENDBRANCH  10  19
ENDBRANCH   1  10
BRANCH   5  20
ATOM     20  O   UNL     1      -4.980  10.795  16.131  0.00  0.00    +0.000 OA
ATOM     21  H   UNL     1      -5.541  11.586  16.101  0.00  0.00    +0.000 HD
ENDBRANCH   5  20
BRANCH   9  22
ATOM     22  O   UNL     1       0.591  11.227  19.724  0.00  0.00    +0.000 OA
BRANCH  22  23
ATOM     23  C   UNL     1       1.075   9.972  19.455  0.00  0.00    +0.000 A 
ATOM     24  C   UNL     1       1.573   9.756  18.170  0.00  0.00    +0.000 A 
ATOM     25  C   UNL     1       2.149   8.524  17.834  0.00  0.00    +0.000 A 
ATOM     26  C   UNL     1       2.248   7.500  18.784  0.00  0.00    +0.000 A 
ATOM     27  C   UNL     1       1.709   7.717  20.060  0.00  0.00    +0.000 A 
ATOM     28  C   UNL     1       1.158   8.956  20.404  0.00  0.00    +0.000 A 
BRANCH  26  29
ATOM     29  C   UNL     1       2.908   6.239  18.411  0.00  0.00    +0.000 C 
ATOM     30  C   UNL     1       2.250   5.170  17.935  0.00  0.00    +0.000 C 
BRANCH  30  31
ATOM     31  C   UNL     1       2.983   3.919  17.653  0.00  0.00    +0.000 C 
ATOM     32  O   UNL     1       4.191   3.792  17.726  0.00  0.00    +0.000 OA
BRANCH  31  33
ATOM     33  O   UNL     1       2.152   2.917  17.301  0.00  0.00    +0.000 OA
ATOM     34  H   UNL     1       1.907   2.881  16.359  0.00  0.00    +0.000 HD
ENDBRANCH  31  33
ENDBRANCH  30  31
ENDBRANCH  26  29
ENDBRANCH  22  23
ENDBRANCH   9  22
TORSDOF 8
ENDMDL
MODEL 8
REMARK VINA RESULT:      -7.9      4.742      9.668
REMARK  Name = 
REMARK  9 active torsions:
REMARK  status: ('A' for Active; 'I' for Inactive)
REMARK    1  A    between atoms: C_1  and  C_2
REMARK    2  A    between atoms: C_8  and  C_9
REMARK    3  A    between atoms: C_9  and  C_11
REMARK    4  A    between atoms: C_15  and  O_16
REMARK    5  A    between atoms: C_20  and  O_21
REMARK    6  A    between atoms: O_21  and  C_22
REMARK    7  A    between atoms: C_25  and  C_26
REMARK    8  A    between atoms: C_27  and  C_28
REMARK    9  A    between atoms: C_28  and  O_30
REMARK                            x       y       z     vdW  Elec       q    Type
REMARK                         _______ _______ _______ _____ _____    ______ ____
ROOT
ATOM      1  C   UNL     1      -1.487  11.990  20.890  0.00  0.00    +0.000 A 
ATOM      2  S   UNL     1      -3.041  12.535  20.409  0.00  0.00    +0.000 S 
ATOM      3  C   UNL     1      -2.950  11.743  18.893  0.00  0.00    +0.000 A 
ATOM      4  C   UNL     1      -4.011  11.566  17.979  0.00  0.00    +0.000 A 
ATOM      5  C   UNL     1      -3.738  10.951  16.762  0.00  0.00    +0.000 A 
ATOM      6  C   UNL     1      -2.453  10.573  16.424  0.00  0.00    +0.000 A 
ATOM      7  C   UNL     1      -1.408  10.766  17.331  0.00  0.00    +0.000 A 
ATOM      8  C   UNL     1      -1.649  11.303  18.628  0.00  0.00    +0.000 A 
ATOM      9  C   UNL     1      -0.808  11.463  19.801  0.00  0.00    +0.000 A 
ENDROOT
BRANCH   1  10
ATOM     10  C   UNL     1      -1.015  12.172  22.269  0.00  0.00    +0.000 C 
ATOM     11  O   UNL     1      -0.394  11.296  22.870  0.00  0.00    +0.000 OA
BRANCH  10  19
ATOM     12  C   UNL     1      -3.508  12.433  24.027  0.00  0.00    +0.000 C 
ATOM     13  C   UNL     1      -2.491  13.533  23.878  0.00  0.00    +0.000 A 
ATOM     14  C   UNL     1      -2.722  14.730  24.590  0.00  0.00    +0.000 A 
ATOM     15  C   UNL     1      -1.846  15.810  24.490  0.00  0.00    +0.000 A 
ATOM     16  C   UNL     1      -0.756  15.714  23.645  0.00  0.00    +0.000 A 
ATOM     17  F   UNL     1       0.091  16.746  23.539  0.00  0.00    +0.000 F 
ATOM     18  C   UNL     1      -0.527  14.563  22.900  0.00  0.00    +0.000 A 
ATOM     19  C   UNL     1      -1.352  13.433  23.044  0.00  0.00    +0.000 A 
ENDBRANCH  10  19
ENDBRANCH   1  10
BRANCH   5  20
ATOM     20  O   UNL     1      -4.728  10.708  15.857  0.00  0.00    +0.000 OA
ATOM     21  H   UNL     1      -4.882   9.751  15.804  0.00  0.00    +0.000 HD
ENDBRANCH   5  20
BRANCH   9  22
ATOM     22  O   UNL     1       0.510  11.148  19.918  0.00  0.00    +0.000 OA
BRANCH  22  23
ATOM     23  C   UNL     1       1.034   9.913  19.634  0.00  0.00    +0.000 A 
ATOM     24  C   UNL     1       1.589   9.746  18.365  0.00  0.00    +0.000 A 
ATOM     25  C   UNL     1       2.208   8.538  18.019  0.00  0.00    +0.000 A 
ATOM     26  C   UNL     1       2.292   7.488  18.943  0.00  0.00    +0.000 A 
ATOM     27  C   UNL     1       1.695   7.655  20.201  0.00  0.00    +0.000 A 
ATOM     28  C   UNL     1       1.101   8.871  20.557  0.00  0.00    +0.000 A 
BRANCH  26  29
ATOM     29  C   UNL     1       2.996   6.253  18.562  0.00  0.00    +0.000 C 
ATOM     30  C   UNL     1       3.824   5.588  19.384  0.00  0.00    +0.000 C 
BRANCH  30  31
ATOM     31  C   UNL     1       4.545   4.396  18.895  0.00  0.00    +0.000 C 
ATOM     32  O   UNL     1       5.576   3.963  19.376  0.00  0.00    +0.000 OA
BRANCH  31  33
ATOM     33  O   UNL     1       3.925   3.830  17.840  0.00  0.00    +0.000 OA
ATOM     34  H   UNL     1       3.339   3.080  18.046  0.00  0.00    +0.000 HD
ENDBRANCH  31  33
ENDBRANCH  30  31
ENDBRANCH  26  29
ENDBRANCH  22  23
ENDBRANCH   9  22
TORSDOF 8
ENDMDL
MODEL 9
REMARK VINA RESULT:      -7.9      5.010      9.670
REMARK  Name = 
REMARK  9 active torsions:
REMARK  status: ('A' for Active; 'I' for Inactive)
REMARK    1  A    between atoms: C_1  and  C_2
REMARK    2  A    between atoms: C_8  and  C_9
REMARK    3  A    between atoms: C_9  and  C_11
REMARK    4  A    between atoms: C_15  and  O_16
REMARK    5  A    between atoms: C_20  and  O_21
REMARK    6  A    between atoms: O_21  and  C_22
REMARK    7  A    between atoms: C_25  and  C_26
REMARK    8  A    between atoms: C_27  and  C_28
REMARK    9  A    between atoms: C_28  and  O_30
REMARK                            x       y       z     vdW  Elec       q    Type
REMARK                         _______ _______ _______ _____ _____    ______ ____
ROOT
ATOM      1  C   UNL     1      -1.493  12.182  21.039  0.00  0.00    +0.000 A 
ATOM      2  S   UNL     1      -3.059  12.709  20.581  0.00  0.00    +0.000 S 
ATOM      3  C   UNL     1      -3.005  11.873  19.088  0.00  0.00    +0.000 A 
ATOM      4  C   UNL     1      -4.089  11.667  18.206  0.00  0.00    +0.000 A 
ATOM      5  C   UNL     1      -3.845  11.015  17.003  0.00  0.00    +0.000 A 
ATOM      6  C   UNL     1      -2.568  10.630  16.643  0.00  0.00    +0.000 A 
ATOM      7  C   UNL     1      -1.501  10.852  17.517  0.00  0.00    +0.000 A 
ATOM      8  C   UNL     1      -1.710  11.427  18.803  0.00  0.00    +0.000 A 
ATOM      9  C   UNL     1      -0.840  11.623  19.949  0.00  0.00    +0.000 A 
ENDROOT
BRANCH   1  10
ATOM     10  C   UNL     1      -0.986  12.406  22.399  0.00  0.00    +0.000 C 
ATOM     11  O   UNL     1      -0.607  11.482  23.118  0.00  0.00    +0.000 OA
BRANCH  10  19
ATOM     12  C   UNL     1       1.091  14.540  21.690  0.00  0.00    +0.000 C 
ATOM     13  C   UNL     1      -0.041  14.786  22.651  0.00  0.00    +0.000 A 
ATOM     14  C   UNL     1      -0.126  16.066  23.239  0.00  0.00    +0.000 A 
ATOM     15  C   UNL     1      -1.128  16.374  24.158  0.00  0.00    +0.000 A 
ATOM     16  C   UNL     1      -2.026  15.389  24.527  0.00  0.00    +0.000 A 
ATOM     17  F   UNL     1      -2.991  15.671  25.411  0.00  0.00    +0.000 F 
ATOM     18  C   UNL     1      -1.941  14.108  23.995  0.00  0.00    +0.000 A 
ATOM     19  C   UNL     1      -0.989  13.796  23.008  0.00  0.00    +0.000 A 
ENDBRANCH  10  19
ENDBRANCH   1  10
BRANCH   5  20
ATOM     20  O   UNL     1      -4.858  10.744  16.130  0.00  0.00    +0.000 OA
ATOM     21  H   UNL     1      -5.697  10.719  16.618  0.00  0.00    +0.000 HD
ENDBRANCH   5  20
BRANCH   9  22
ATOM     22  O   UNL     1       0.481  11.314  20.042  0.00  0.00    +0.000 OA
BRANCH  22  23
ATOM     23  C   UNL     1       0.975  10.035  20.012  0.00  0.00    +0.000 A 
ATOM     24  C   UNL     1       0.836   9.283  21.178  0.00  0.00    +0.000 A 
ATOM     25  C   UNL     1       1.249   7.945  21.209  0.00  0.00    +0.000 A 
ATOM     26  C   UNL     1       1.793   7.339  20.068  0.00  0.00    +0.000 A 
ATOM     27  C   UNL     1       1.962   8.117  18.915  0.00  0.00    +0.000 A 
ATOM     28  C   UNL     1       1.524   9.445  18.875  0.00  0.00    +0.000 A 
BRANCH  26  29
ATOM     29  C   UNL     1       2.166   5.917  20.122  0.00  0.00    +0.000 C 
ATOM     30  C   UNL     1       1.339   4.948  20.548  0.00  0.00    +0.000 C 
BRANCH  30  31
ATOM     31  C   UNL     1       1.820   3.555  20.637  0.00  0.00    +0.000 C 
ATOM     32  O   UNL     1       2.895   3.164  20.219  0.00  0.00    +0.000 OA
BRANCH  31  33
ATOM     33  O   UNL     1       0.924   2.751  21.244  0.00  0.00    +0.000 OA
ATOM     34  H   UNL     1       0.340   2.244  20.652  0.00  0.00    +0.000 HD
ENDBRANCH  31  33
ENDBRANCH  30  31
ENDBRANCH  26  29
ENDBRANCH  22  23
ENDBRANCH   9  22
TORSDOF 8
ENDMDL
