MODEL 1
REMARK VINA RESULT:      -7.6      0.000      0.000
REMARK  Name = 
REMARK  6 active torsions:
REMARK  status: ('A' for Active; 'I' for Inactive)
REMARK    1  A    between atoms: C_1  and  C_2
REMARK    2  A    between atoms: C_2  and  C_3
REMARK    3  A    between atoms: C_2  and  N_13
REMARK    4  A    between atoms: N_5  and  C_6
REMARK    5  A    between atoms: C_6  and  C_7
REMARK    6  A    between atoms: C_15  and  N_16
REMARK                            x       y       z     vdW  Elec       q    Type
REMARK                         _______ _______ _______ _____ _____    ______ ____
ROOT
ATOM      1  C   UNL     1       5.031   5.964  16.933  0.00  0.00    +0.000 C 
ATOM      2  O   UNL     1       4.584   6.903  16.277  0.00  0.00    +0.000 OA
ATOM      3  N   UNL     1       4.278   5.296  17.875  0.00  0.00    +0.000 N 
ATOM      4  H   UNL     1       4.704   4.585  18.459  0.00  0.00    +0.000 HD
ENDROOT
BRANCH   1   6
ATOM      5  C   UNL     1       7.503   6.449  17.137  0.00  0.00    +0.000 C 
ATOM      6  C   UNL     1       6.443   5.425  16.734  0.00  0.00    +0.000 C 
BRANCH   6   7
ATOM      7  N   UNL     1       6.608   5.003  15.347  0.00  0.00    +0.000 N 
ATOM      8  C   UNL     1       5.823   4.135  14.639  0.00  0.00    +0.000 A 
ATOM      9  C   UNL     1       6.385   4.055  13.381  0.00  0.00    +0.000 A 
ATOM     10  C   UNL     1       7.496   4.910  13.425  0.00  0.00    +0.000 A 
ATOM     11  N   UNL     1       7.639   5.496  14.621  0.00  0.00    +0.000 NA
BRANCH   9  12
ATOM     12  N   UNL     1       5.926   3.271  12.280  0.00  0.00    +0.000 N 
ATOM     13  O   UNL     1       4.733   3.375  11.966  0.00  0.00    +0.000 OA
ATOM     14  O   UNL     1       6.762   2.546  11.726  0.00  0.00    +0.000 OA
ENDBRANCH   9  12
ENDBRANCH   6   7
ENDBRANCH   1   6
BRANCH   3  15
ATOM     15  C   UNL     1       2.906   5.666  18.148  0.00  0.00    +0.000 C 
BRANCH  15  16
ATOM     16  C   UNL     1       2.280   4.713  19.132  0.00  0.00    +0.000 A 
ATOM     17  C   UNL     1       2.620   4.751  20.491  0.00  0.00    +0.000 A 
ATOM     18  C   UNL     1       2.050   3.846  21.388  0.00  0.00    +0.000 A 
ATOM     19  C   UNL     1       1.139   2.892  20.937  0.00  0.00    +0.000 A 
ATOM     20  C   UNL     1       0.797   2.842  19.587  0.00  0.00    +0.000 A 
ATOM     21  C   UNL     1       1.367   3.746  18.688  0.00  0.00    +0.000 A 
ENDBRANCH  15  16
ENDBRANCH   3  15
TORSDOF 5
ENDMDL
MODEL 2
REMARK VINA RESULT:      -7.5      1.392      1.614
REMARK  Name = 
REMARK  6 active torsions:
REMARK  status: ('A' for Active; 'I' for Inactive)
REMARK    1  A    between atoms: C_1  and  C_2
REMARK    2  A    between atoms: C_2  and  C_3
REMARK    3  A    between atoms: C_2  and  N_13
REMARK    4  A    between atoms: N_5  and  C_6
REMARK    5  A    between atoms: C_6  and  C_7
REMARK    6  A    between atoms: C_15  and  N_16
REMARK                            x       y       z     vdW  Elec       q    Type
REMARK                         _______ _______ _______ _____ _____    ______ ____
ROOT
ATOM      1  C   UNL     1       6.218   4.756  17.666  0.00  0.00    +0.000 C 
ATOM      2  O   UNL     1       7.274   4.318  18.119  0.00  0.00    +0.000 OA
ATOM      3  N   UNL     1       4.987   4.327  18.113  0.00  0.00    +0.000 N 
ATOM      4  H   UNL     1       4.139   4.644  17.656  0.00  0.00    +0.000 HD
ENDROOT
BRANCH   1   6
ATOM      5  C   UNL     1       4.851   6.607  16.618  0.00  0.00    +0.000 C 
ATOM      6  C   UNL     1       6.174   5.844  16.598  0.00  0.00    +0.000 C 
BRANCH   6   7
ATOM      7  N   UNL     1       6.427   5.248  15.290  0.00  0.00    +0.000 N 
ATOM      8  C   UNL     1       5.594   4.439  14.567  0.00  0.00    +0.000 A 
ATOM      9  C   UNL     1       6.278   4.131  13.409  0.00  0.00    +0.000 A 
ATOM     10  C   UNL     1       7.506   4.800  13.523  0.00  0.00    +0.000 A 
ATOM     11  N   UNL     1       7.605   5.488  14.667  0.00  0.00    +0.000 NA
BRANCH   9  12
ATOM     12  N   UNL     1       5.825   3.309  12.333  0.00  0.00    +0.000 N 
ATOM     13  O   UNL     1       4.632   3.397  12.013  0.00  0.00    +0.000 OA
ATOM     14  O   UNL     1       6.666   2.570  11.804  0.00  0.00    +0.000 OA
ENDBRANCH   9  12
ENDBRANCH   6   7
ENDBRANCH   1   6
BRANCH   3  15
ATOM     15  C   UNL     1       4.866   3.328  19.152  0.00  0.00    +0.000 C 
BRANCH  15  16
ATOM     16  C   UNL     1       3.461   3.286  19.694  0.00  0.00    +0.000 A 
ATOM     17  C   UNL     1       3.195   2.778  20.972  0.00  0.00    +0.000 A 
ATOM     18  C   UNL     1       1.885   2.722  21.452  0.00  0.00    +0.000 A 
ATOM     19  C   UNL     1       0.829   3.169  20.659  0.00  0.00    +0.000 A 
ATOM     20  C   UNL     1       1.082   3.674  19.385  0.00  0.00    +0.000 A 
ATOM     21  C   UNL     1       2.391   3.728  18.903  0.00  0.00    +0.000 A 
ENDBRANCH  15  16
ENDBRANCH   3  15
TORSDOF 5
ENDMDL
MODEL 3
REMARK VINA RESULT:      -7.5      1.662      2.206
REMARK  Name = 
REMARK  6 active torsions:
REMARK  status: ('A' for Active; 'I' for Inactive)
REMARK    1  A    between atoms: C_1  and  C_2
REMARK    2  A    between atoms: C_2  and  C_3
REMARK    3  A    between atoms: C_2  and  N_13
REMARK    4  A    between atoms: N_5  and  C_6
REMARK    5  A    between atoms: C_6  and  C_7
REMARK    6  A    between atoms: C_15  and  N_16
REMARK                            x       y       z     vdW  Elec       q    Type
REMARK                         _______ _______ _______ _____ _____    ______ ____
ROOT
ATOM      1  C   UNL     1       5.317   5.458  18.701  0.00  0.00    +0.000 C 
ATOM      2  O   UNL     1       5.050   5.347  19.896  0.00  0.00    +0.000 OA
ATOM      3  N   UNL     1       4.405   5.924  17.779  0.00  0.00    +0.000 N 
ATOM      4  H   UNL     1       4.630   5.919  16.791  0.00  0.00    +0.000 HD
ENDROOT
BRANCH   1   6
ATOM      5  C   UNL     1       7.667   6.299  18.297  0.00  0.00    +0.000 C 
ATOM      6  C   UNL     1       6.696   5.130  18.137  0.00  0.00    +0.000 C 
BRANCH   6   7
ATOM      7  N   UNL     1       6.564   4.733  16.739  0.00  0.00    +0.000 N 
ATOM      8  C   UNL     1       7.245   5.232  15.662  0.00  0.00    +0.000 A 
ATOM      9  C   UNL     1       6.770   4.545  14.563  0.00  0.00    +0.000 A 
ATOM     10  C   UNL     1       5.814   3.655  15.076  0.00  0.00    +0.000 A 
ATOM     11  N   UNL     1       5.683   3.760  16.405  0.00  0.00    +0.000 NA
BRANCH   9  12
ATOM     12  N   UNL     1       7.171   4.711  13.203  0.00  0.00    +0.000 N 
ATOM     13  O   UNL     1       6.704   3.921  12.372  0.00  0.00    +0.000 OA
ATOM     14  O   UNL     1       7.959   5.635  12.964  0.00  0.00    +0.000 OA
ENDBRANCH   9  12
ENDBRANCH   6   7
ENDBRANCH   1   6
BRANCH   3  15
ATOM     15  C   UNL     1       3.067   6.313  18.169  0.00  0.00    +0.000 C 
BRANCH  15  16
ATOM     16  C   UNL     1       2.285   5.125  18.660  0.00  0.00    +0.000 A 
ATOM     17  C   UNL     1       2.024   4.033  17.821  0.00  0.00    +0.000 A 
ATOM     18  C   UNL     1       1.277   2.949  18.283  0.00  0.00    +0.000 A 
ATOM     19  C   UNL     1       0.779   2.945  19.585  0.00  0.00    +0.000 A 
ATOM     20  C   UNL     1       1.029   4.026  20.428  0.00  0.00    +0.000 A 
ATOM     21  C   UNL     1       1.775   5.112  19.967  0.00  0.00    +0.000 A 
ENDBRANCH  15  16
ENDBRANCH   3  15
TORSDOF 5
ENDMDL
MODEL 4
REMARK VINA RESULT:      -7.4      1.264      1.291
REMARK  Name = 
REMARK  6 active torsions:
REMARK  status: ('A' for Active; 'I' for Inactive)
REMARK    1  A    between atoms: C_1  and  C_2
REMARK    2  A    between atoms: C_2  and  C_3
REMARK    3  A    between atoms: C_2  and  N_13
REMARK    4  A    between atoms: N_5  and  C_6
REMARK    5  A    between atoms: C_6  and  C_7
REMARK    6  A    between atoms: C_15  and  N_16
REMARK                            x       y       z     vdW  Elec       q    Type
REMARK                         _______ _______ _______ _____ _____    ______ ____
ROOT
ATOM      1  C   UNL     1       5.493   5.005  18.216  0.00  0.00    +0.000 C 
ATOM      2  O   UNL     1       5.454   5.392  19.383  0.00  0.00    +0.000 OA
ATOM      3  N   UNL     1       4.443   5.184  17.343  0.00  0.00    +0.000 N 
ATOM      4  H   UNL     1       4.474   4.775  16.416  0.00  0.00    +0.000 HD
ENDROOT
BRANCH   1   6
ATOM      5  C   UNL     1       8.020   4.914  18.179  0.00  0.00    +0.000 C 
ATOM      6  C   UNL     1       6.723   4.331  17.619  0.00  0.00    +0.000 C 
BRANCH   6   7
ATOM      7  N   UNL     1       6.675   4.439  16.164  0.00  0.00    +0.000 N 
ATOM      8  C   UNL     1       6.097   3.567  15.282  0.00  0.00    +0.000 A 
ATOM      9  C   UNL     1       6.318   4.098  14.027  0.00  0.00    +0.000 A 
ATOM     10  C   UNL     1       7.028   5.286  14.255  0.00  0.00    +0.000 A 
ATOM     11  N   UNL     1       7.248   5.505  15.557  0.00  0.00    +0.000 NA
BRANCH   9  12
ATOM     12  N   UNL     1       5.907   3.550  12.774  0.00  0.00    +0.000 N 
ATOM     13  O   UNL     1       4.703   3.615  12.493  0.00  0.00    +0.000 OA
ATOM     14  O   UNL     1       6.792   3.050  12.068  0.00  0.00    +0.000 OA
ENDBRANCH   9  12
ENDBRANCH   6   7
ENDBRANCH   1   6
BRANCH   3  15
ATOM     15  C   UNL     1       3.222   5.844  17.752  0.00  0.00    +0.000 C 
BRANCH  15  16
ATOM     16  C   UNL     1       2.329   4.897  18.509  0.00  0.00    +0.000 A 
ATOM     17  C   UNL     1       2.005   5.127  19.853  0.00  0.00    +0.000 A 
ATOM     18  C   UNL     1       1.196   4.228  20.549  0.00  0.00    +0.000 A 
ATOM     19  C   UNL     1       0.705   3.088  19.912  0.00  0.00    +0.000 A 
ATOM     20  C   UNL     1       1.023   2.848  18.577  0.00  0.00    +0.000 A 
ATOM     21  C   UNL     1       1.833   3.745  17.880  0.00  0.00    +0.000 A 
ENDBRANCH  15  16
ENDBRANCH   3  15
TORSDOF 5
ENDMDL
MODEL 5
REMARK VINA RESULT:      -7.4      0.444      1.347
REMARK  Name = 
REMARK  6 active torsions:
REMARK  status: ('A' for Active; 'I' for Inactive)
REMARK    1  A    between atoms: C_1  and  C_2
REMARK    2  A    between atoms: C_2  and  C_3
REMARK    3  A    between atoms: C_2  and  N_13
REMARK    4  A    between atoms: N_5  and  C_6
REMARK    5  A    between atoms: C_6  and  C_7
REMARK    6  A    between atoms: C_15  and  N_16
REMARK                            x       y       z     vdW  Elec       q    Type
REMARK                         _______ _______ _______ _____ _____    ______ ____
ROOT
ATOM      1  C   UNL     1       5.072   6.111  17.028  0.00  0.00    +0.000 C 
ATOM      2  O   UNL     1       4.540   6.857  16.207  0.00  0.00    +0.000 OA
ATOM      3  N   UNL     1       4.430   5.695  18.174  0.00  0.00    +0.000 N 
ATOM      4  H   UNL     1       4.929   5.153  18.870  0.00  0.00    +0.000 HD
ENDROOT
BRANCH   1   6
ATOM      5  C   UNL     1       7.554   6.561  17.208  0.00  0.00    +0.000 C 
ATOM      6  C   UNL     1       6.475   5.546  16.831  0.00  0.00    +0.000 C 
BRANCH   6   7
ATOM      7  N   UNL     1       6.625   5.096  15.451  0.00  0.00    +0.000 N 
ATOM      8  C   UNL     1       5.812   4.240  14.760  0.00  0.00    +0.000 A 
ATOM      9  C   UNL     1       6.370   4.121  13.503  0.00  0.00    +0.000 A 
ATOM     10  C   UNL     1       7.508   4.942  13.531  0.00  0.00    +0.000 A 
ATOM     11  N   UNL     1       7.671   5.544  14.716  0.00  0.00    +0.000 NA
BRANCH   9  12
ATOM     12  N   UNL     1       5.886   3.332  12.416  0.00  0.00    +0.000 N 
ATOM     13  O   UNL     1       6.704   2.616  11.825  0.00  0.00    +0.000 OA
ATOM     14  O   UNL     1       4.680   3.430  12.151  0.00  0.00    +0.000 OA
ENDBRANCH   9  12
ENDBRANCH   6   7
ENDBRANCH   1   6
BRANCH   3  15
ATOM     15  C   UNL     1       3.080   6.114  18.480  0.00  0.00    +0.000 C 
BRANCH  15  16
ATOM     16  C   UNL     1       2.251   4.950  18.954  0.00  0.00    +0.000 A 
ATOM     17  C   UNL     1       1.707   4.032  18.045  0.00  0.00    +0.000 A 
ATOM     18  C   UNL     1       0.921   2.971  18.497  0.00  0.00    +0.000 A 
ATOM     19  C   UNL     1       0.666   2.818  19.859  0.00  0.00    +0.000 A 
ATOM     20  C   UNL     1       1.200   3.726  20.772  0.00  0.00    +0.000 A 
ATOM     21  C   UNL     1       1.985   4.788  20.321  0.00  0.00    +0.000 A 
ENDBRANCH  15  16
ENDBRANCH   3  15
TORSDOF 5
ENDMDL
MODEL 6
REMARK VINA RESULT:      -7.4      1.280      1.650
REMARK  Name = 
REMARK  6 active torsions:
REMARK  status: ('A' for Active; 'I' for Inactive)
REMARK    1  A    between atoms: C_1  and  C_2
REMARK    2  A    between atoms: C_2  and  C_3
REMARK    3  A    between atoms: C_2  and  N_13
REMARK    4  A    between atoms: N_5  and  C_6
REMARK    5  A    between atoms: C_6  and  C_7
REMARK    6  A    between atoms: C_15  and  N_16
REMARK                            x       y       z     vdW  Elec       q    Type
REMARK                         _______ _______ _______ _____ _____    ______ ____
ROOT
ATOM      1  C   UNL     1       5.479   5.003  18.257  0.00  0.00    +0.000 C 
ATOM      2  O   UNL     1       5.388   5.307  19.446  0.00  0.00    +0.000 OA
ATOM      3  N   UNL     1       4.460   5.227  17.357  0.00  0.00    +0.000 N 
ATOM      4  H   UNL     1       4.535   4.884  16.406  0.00  0.00    +0.000 HD
ENDROOT
BRANCH   1   6
ATOM      5  C   UNL     1       8.007   5.044  18.223  0.00  0.00    +0.000 C 
ATOM      6  C   UNL     1       6.743   4.392  17.664  0.00  0.00    +0.000 C 
BRANCH   6   7
ATOM      7  N   UNL     1       6.691   4.491  16.209  0.00  0.00    +0.000 N 
ATOM      8  C   UNL     1       6.116   3.611  15.332  0.00  0.00    +0.000 A 
ATOM      9  C   UNL     1       6.331   4.137  14.074  0.00  0.00    +0.000 A 
ATOM     10  C   UNL     1       7.035   5.330  14.294  0.00  0.00    +0.000 A 
ATOM     11  N   UNL     1       7.258   5.557  15.594  0.00  0.00    +0.000 NA
BRANCH   9  12
ATOM     12  N   UNL     1       5.920   3.579  12.825  0.00  0.00    +0.000 N 
ATOM     13  O   UNL     1       4.715   3.637  12.546  0.00  0.00    +0.000 OA
ATOM     14  O   UNL     1       6.806   3.080  12.120  0.00  0.00    +0.000 OA
ENDBRANCH   9  12
ENDBRANCH   6   7
ENDBRANCH   1   6
BRANCH   3  15
ATOM     15  C   UNL     1       3.213   5.838  17.763  0.00  0.00    +0.000 C 
BRANCH  15  16
ATOM     16  C   UNL     1       2.353   4.854  18.512  0.00  0.00    +0.000 A 
ATOM     17  C   UNL     1       1.878   3.690  17.892  0.00  0.00    +0.000 A 
ATOM     18  C   UNL     1       1.062   2.800  18.592  0.00  0.00    +0.000 A 
ATOM     19  C   UNL     1       0.709   3.064  19.914  0.00  0.00    +0.000 A 
ATOM     20  C   UNL     1       1.173   4.219  20.540  0.00  0.00    +0.000 A 
ATOM     21  C   UNL     1       1.988   5.112  19.842  0.00  0.00    +0.000 A 
ENDBRANCH  15  16
ENDBRANCH   3  15
TORSDOF 5
ENDMDL
MODEL 7
REMARK VINA RESULT:      -7.4      1.380      2.022
REMARK  Name = 
REMARK  6 active torsions:
REMARK  status: ('A' for Active; 'I' for Inactive)
REMARK    1  A    between atoms: C_1  and  C_2
REMARK    2  A    between atoms: C_2  and  C_3
REMARK    3  A    between atoms: C_2  and  N_13
REMARK    4  A    between atoms: N_5  and  C_6
REMARK    5  A    between atoms: C_6  and  C_7
REMARK    6  A    between atoms: C_15  and  N_16
REMARK                            x       y       z     vdW  Elec       q    Type
REMARK                         _______ _______ _______ _____ _____    ______ ____
ROOT
ATOM      1  C   UNL     1       6.124   4.742  17.722  0.00  0.00    +0.000 C 
ATOM      2  O   UNL     1       7.137   4.385  18.323  0.00  0.00    +0.000 OA
ATOM      3  N   UNL     1       4.882   4.206  17.985  0.00  0.00    +0.000 N 
ATOM      4  H   UNL     1       4.086   4.459  17.410  0.00  0.00    +0.000 HD
ENDROOT
BRANCH   1   6
ATOM      5  C   UNL     1       4.845   6.643  16.653  0.00  0.00    +0.000 C 
ATOM      6  C   UNL     1       6.145   5.840  16.664  0.00  0.00    +0.000 C 
BRANCH   6   7
ATOM      7  N   UNL     1       6.417   5.247  15.358  0.00  0.00    +0.000 N 
ATOM      8  C   UNL     1       5.587   4.457  14.611  0.00  0.00    +0.000 A 
ATOM      9  C   UNL     1       6.292   4.144  13.467  0.00  0.00    +0.000 A 
ATOM     10  C   UNL     1       7.528   4.791  13.613  0.00  0.00    +0.000 A 
ATOM     11  N   UNL     1       7.614   5.469  14.764  0.00  0.00    +0.000 NA
BRANCH   9  12
ATOM     12  N   UNL     1       5.849   3.336  12.375  0.00  0.00    +0.000 N 
ATOM     13  O   UNL     1       6.695   2.628  11.813  0.00  0.00    +0.000 OA
ATOM     14  O   UNL     1       4.650   3.410  12.079  0.00  0.00    +0.000 OA
ENDBRANCH   9  12
ENDBRANCH   6   7
ENDBRANCH   1   6
BRANCH   3  15
ATOM     15  C   UNL     1       4.696   3.184  18.990  0.00  0.00    +0.000 C 
BRANCH  15  16
ATOM     16  C   UNL     1       3.245   3.067  19.374  0.00  0.00    +0.000 A 
ATOM     17  C   UNL     1       2.284   2.641  18.447  0.00  0.00    +0.000 A 
ATOM     18  C   UNL     1       0.938   2.561  18.810  0.00  0.00    +0.000 A 
ATOM     19  C   UNL     1       0.538   2.909  20.099  0.00  0.00    +0.000 A 
ATOM     20  C   UNL     1       1.485   3.337  21.028  0.00  0.00    +0.000 A 
ATOM     21  C   UNL     1       2.830   3.419  20.667  0.00  0.00    +0.000 A 
ENDBRANCH  15  16
ENDBRANCH   3  15
TORSDOF 5
ENDMDL
MODEL 8
REMARK VINA RESULT:      -7.4      0.859      1.336
REMARK  Name = 
REMARK  6 active torsions:
REMARK  status: ('A' for Active; 'I' for Inactive)
REMARK    1  A    between atoms: C_1  and  C_2
REMARK    2  A    between atoms: C_2  and  C_3
REMARK    3  A    between atoms: C_2  and  N_13
REMARK    4  A    between atoms: N_5  and  C_6
REMARK    5  A    between atoms: C_6  and  C_7
REMARK    6  A    between atoms: C_15  and  N_16
REMARK                            x       y       z     vdW  Elec       q    Type
REMARK                         _______ _______ _______ _____ _____    ______ ____
ROOT
ATOM      1  C   UNL     1       5.102   5.256  17.715  0.00  0.00    +0.000 C 
ATOM      2  O   UNL     1       4.322   5.671  16.859  0.00  0.00    +0.000 OA
ATOM      3  N   UNL     1       4.804   5.283  19.060  0.00  0.00    +0.000 N 
ATOM      4  H   UNL     1       5.504   5.015  19.743  0.00  0.00    +0.000 HD
ENDROOT
BRANCH   1   6
ATOM      5  C   UNL     1       7.610   5.399  17.998  0.00  0.00    +0.000 C 
ATOM      6  C   UNL     1       6.449   4.635  17.363  0.00  0.00    +0.000 C 
BRANCH   6   7
ATOM      7  N   UNL     1       6.585   4.567  15.912  0.00  0.00    +0.000 N 
ATOM      8  C   UNL     1       5.921   3.739  15.049  0.00  0.00    +0.000 A 
ATOM      9  C   UNL     1       6.394   4.047  13.790  0.00  0.00    +0.000 A 
ATOM     10  C   UNL     1       7.332   5.070  13.994  0.00  0.00    +0.000 A 
ATOM     11  N   UNL     1       7.454   5.397  15.287  0.00  0.00    +0.000 NA
BRANCH   9  12
ATOM     12  N   UNL     1       6.006   3.448  12.552  0.00  0.00    +0.000 N 
ATOM     13  O   UNL     1       4.808   3.504  12.246  0.00  0.00    +0.000 OA
ATOM     14  O   UNL     1       6.904   2.920  11.884  0.00  0.00    +0.000 OA
ENDBRANCH   9  12
ENDBRANCH   6   7
ENDBRANCH   1   6
BRANCH   3  15
ATOM     15  C   UNL     1       3.546   5.806  19.547  0.00  0.00    +0.000 C 
BRANCH  15  16
ATOM     16  C   UNL     1       2.559   4.694  19.783  0.00  0.00    +0.000 A 
ATOM     17  C   UNL     1       1.777   4.187  18.736  0.00  0.00    +0.000 A 
ATOM     18  C   UNL     1       0.848   3.173  18.975  0.00  0.00    +0.000 A 
ATOM     19  C   UNL     1       0.687   2.658  20.260  0.00  0.00    +0.000 A 
ATOM     20  C   UNL     1       1.457   3.157  21.310  0.00  0.00    +0.000 A 
ATOM     21  C   UNL     1       2.385   4.172  21.073  0.00  0.00    +0.000 A 
ENDBRANCH  15  16
ENDBRANCH   3  15
TORSDOF 5
ENDMDL
MODEL 9
REMARK VINA RESULT:      -7.3      1.563      1.911
REMARK  Name = 
REMARK  6 active torsions:
REMARK  status: ('A' for Active; 'I' for Inactive)
REMARK    1  A    between atoms: C_1  and  C_2
REMARK    2  A    between atoms: C_2  and  C_3
REMARK    3  A    between atoms: C_2  and  N_13
REMARK    4  A    between atoms: N_5  and  C_6
REMARK    5  A    between atoms: C_6  and  C_7
REMARK    6  A    between atoms: C_15  and  N_16
REMARK                            x       y       z     vdW  Elec       q    Type
REMARK                         _______ _______ _______ _____ _____    ______ ____
ROOT
ATOM      1  C   UNL     1       5.460   4.284  17.867  0.00  0.00    +0.000 C 
ATOM      2  O   UNL     1       6.093   4.112  18.907  0.00  0.00    +0.000 OA
ATOM      3  N   UNL     1       4.483   3.409  17.444  0.00  0.00    +0.000 N 
ATOM      4  H   UNL     1       4.044   3.534  16.539  0.00  0.00    +0.000 HD
ENDROOT
BRANCH   1   6
ATOM      5  C   UNL     1       4.410   6.364  16.887  0.00  0.00    +0.000 C 
ATOM      6  C   UNL     1       5.668   5.502  16.974  0.00  0.00    +0.000 C 
BRANCH   6   7
ATOM      7  N   UNL     1       6.107   5.063  15.653  0.00  0.00    +0.000 N 
ATOM      8  C   UNL     1       5.398   4.333  14.738  0.00  0.00    +0.000 A 
ATOM      9  C   UNL     1       6.236   4.169  13.654  0.00  0.00    +0.000 A 
ATOM     10  C   UNL     1       7.420   4.834  14.006  0.00  0.00    +0.000 A 
ATOM     11  N   UNL     1       7.350   5.387  15.224  0.00  0.00    +0.000 NA
BRANCH   9  12
ATOM     12  N   UNL     1       5.951   3.471  12.442  0.00  0.00    +0.000 N 
ATOM     13  O   UNL     1       6.908   2.982  11.828  0.00  0.00    +0.000 OA
ATOM     14  O   UNL     1       4.762   3.411  12.101  0.00  0.00    +0.000 OA
ENDBRANCH   9  12
ENDBRANCH   6   7
ENDBRANCH   1   6
BRANCH   3  15
ATOM     15  C   UNL     1       4.143   2.227  18.206  0.00  0.00    +0.000 C 
BRANCH  15  16
ATOM     16  C   UNL     1       3.086   2.536  19.232  0.00  0.00    +0.000 A 
ATOM     17  C   UNL     1       3.385   2.539  20.601  0.00  0.00    +0.000 A 
ATOM     18  C   UNL     1       2.389   2.803  21.542  0.00  0.00    +0.000 A 
ATOM     19  C   UNL     1       1.084   3.064  21.127  0.00  0.00    +0.000 A 
ATOM     20  C   UNL     1       0.774   3.062  19.768  0.00  0.00    +0.000 A 
ATOM     21  C   UNL     1       1.768   2.796  18.825  0.00  0.00    +0.000 A 
ENDBRANCH  15  16
ENDBRANCH   3  15
TORSDOF 5
ENDMDL
