MODEL 1
REMARK VINA RESULT:      -7.6      0.000      0.000
REMARK  Name = 
REMARK  6 active torsions:
REMARK  status: ('A' for Active; 'I' for Inactive)
REMARK    1  A    between atoms: C_2  and  C_13
REMARK    2  A    between atoms: N_3  and  C_4
REMARK    3  A    between atoms: C_4  and  C_5
REMARK    4  A    between atoms: C_5  and  C_6
REMARK    5  A    between atoms: C_6  and  C_7
REMARK    6  A    between atoms: C_18  and  O_19
REMARK                            x       y       z     vdW  Elec       q    Type
REMARK                         _______ _______ _______ _____ _____    ______ ____
ROOT
ATOM      1  O   UNL     1       7.612   6.349  16.062  0.00  0.00    +0.000 OA
ATOM      2  C   UNL     1       6.918   5.356  15.879  0.00  0.00    +0.000 C 
ATOM      3  N   UNL     1       6.237   4.710  16.883  0.00  0.00    +0.000 N 
ATOM      4  H   UNL     1       5.753   3.848  16.639  0.00  0.00    +0.000 HD
ENDROOT
BRANCH   2   5
ATOM      5  C   UNL     1       6.740   4.799  14.505  0.00  0.00    +0.000 A 
ATOM      6  C   UNL     1       5.642   3.953  14.286  0.00  0.00    +0.000 A 
ATOM      7  C   UNL     1       5.433   3.373  13.033  0.00  0.00    +0.000 A 
ATOM      8  C   UNL     1       6.305   3.652  11.983  0.00  0.00    +0.000 A 
ATOM      9  C   UNL     1       7.395   4.505  12.183  0.00  0.00    +0.000 A 
ATOM     10  C   UNL     1       7.612   5.067  13.440  0.00  0.00    +0.000 A 
BRANCH  10  11
ATOM     11  O   UNL     1       8.701   5.880  13.613  0.00  0.00    +0.000 OA
ATOM     12  H   UNL     1       8.770   6.478  12.852  0.00  0.00    +0.000 HD
ENDBRANCH  10  11
ENDBRANCH   2   5
BRANCH   3  13
ATOM     13  C   UNL     1       6.271   5.133  18.261  0.00  0.00    +0.000 C 
BRANCH  13  14
ATOM     14  C   UNL     1       4.885   5.464  18.812  0.00  0.00    +0.000 C 
BRANCH  14  15
ATOM     15  C   UNL     1       3.760   5.090  17.840  0.00  0.00    +0.000 C 
BRANCH  15  16
ATOM     16  C   UNL     1       2.629   4.372  18.537  0.00  0.00    +0.000 A 
ATOM     17  C   UNL     1       2.163   4.828  19.777  0.00  0.00    +0.000 A 
ATOM     18  C   UNL     1       1.156   4.139  20.455  0.00  0.00    +0.000 A 
ATOM     19  C   UNL     1       0.603   2.988  19.899  0.00  0.00    +0.000 A 
ATOM     20  C   UNL     1       1.046   2.534  18.658  0.00  0.00    +0.000 A 
ATOM     21  C   UNL     1       2.055   3.221  17.979  0.00  0.00    +0.000 A 
ENDBRANCH  15  16
ENDBRANCH  14  15
ENDBRANCH  13  14
ENDBRANCH   3  13
TORSDOF 6
ENDMDL
MODEL 2
REMARK VINA RESULT:      -7.6      0.426      1.185
REMARK  Name = 
REMARK  6 active torsions:
REMARK  status: ('A' for Active; 'I' for Inactive)
REMARK    1  A    between atoms: C_2  and  C_13
REMARK    2  A    between atoms: N_3  and  C_4
REMARK    3  A    between atoms: C_4  and  C_5
REMARK    4  A    between atoms: C_5  and  C_6
REMARK    5  A    between atoms: C_6  and  C_7
REMARK    6  A    between atoms: C_18  and  O_19
REMARK                            x       y       z     vdW  Elec       q    Type
REMARK                         _______ _______ _______ _____ _____    ______ ____
ROOT
ATOM      1  O   UNL     1       7.470   6.342  16.017  0.00  0.00    +0.000 OA
ATOM      2  C   UNL     1       7.038   5.214  15.812  0.00  0.00    +0.000 C 
ATOM      3  N   UNL     1       6.684   4.342  16.814  0.00  0.00    +0.000 N 
ATOM      4  H   UNL     1       6.411   3.401  16.539  0.00  0.00    +0.000 HD
ENDROOT
BRANCH   2   5
ATOM      5  C   UNL     1       6.831   4.724  14.417  0.00  0.00    +0.000 A 
ATOM      6  C   UNL     1       5.749   3.859  14.187  0.00  0.00    +0.000 A 
ATOM      7  C   UNL     1       5.516   3.339  12.912  0.00  0.00    +0.000 A 
ATOM      8  C   UNL     1       6.345   3.698  11.852  0.00  0.00    +0.000 A 
ATOM      9  C   UNL     1       7.417   4.571  12.063  0.00  0.00    +0.000 A 
ATOM     10  C   UNL     1       7.659   5.072  13.341  0.00  0.00    +0.000 A 
BRANCH  10  11
ATOM     11  O   UNL     1       8.731   5.907  13.523  0.00  0.00    +0.000 OA
ATOM     12  H   UNL     1       8.429   6.826  13.447  0.00  0.00    +0.000 HD
ENDBRANCH  10  11
ENDBRANCH   2   5
BRANCH   3  13
ATOM     13  C   UNL     1       6.788   4.664  18.216  0.00  0.00    +0.000 C 
BRANCH  13  14
ATOM     14  C   UNL     1       5.446   4.594  18.940  0.00  0.00    +0.000 C 
BRANCH  14  15
ATOM     15  C   UNL     1       4.260   4.498  17.973  0.00  0.00    +0.000 C 
BRANCH  15  16
ATOM     16  C   UNL     1       3.011   3.997  18.660  0.00  0.00    +0.000 A 
ATOM     17  C   UNL     1       2.289   2.927  18.116  0.00  0.00    +0.000 A 
ATOM     18  C   UNL     1       1.104   2.493  18.712  0.00  0.00    +0.000 A 
ATOM     19  C   UNL     1       0.629   3.124  19.859  0.00  0.00    +0.000 A 
ATOM     20  C   UNL     1       1.347   4.179  20.420  0.00  0.00    +0.000 A 
ATOM     21  C   UNL     1       2.533   4.615  19.824  0.00  0.00    +0.000 A 
ENDBRANCH  15  16
ENDBRANCH  14  15
ENDBRANCH  13  14
ENDBRANCH   3  13
TORSDOF 6
ENDMDL
MODEL 3
REMARK VINA RESULT:      -7.6      3.302      4.443
REMARK  Name = 
REMARK  6 active torsions:
REMARK  status: ('A' for Active; 'I' for Inactive)
REMARK    1  A    between atoms: C_2  and  C_13
REMARK    2  A    between atoms: N_3  and  C_4
REMARK    3  A    between atoms: C_4  and  C_5
REMARK    4  A    between atoms: C_5  and  C_6
REMARK    5  A    between atoms: C_6  and  C_7
REMARK    6  A    between atoms: C_18  and  O_19
REMARK                            x       y       z     vdW  Elec       q    Type
REMARK                         _______ _______ _______ _____ _____    ______ ____
ROOT
ATOM      1  O   UNL     1       5.318   3.793  20.107  0.00  0.00    +0.000 OA
ATOM      2  C   UNL     1       5.376   4.065  18.914  0.00  0.00    +0.000 C 
ATOM      3  N   UNL     1       4.718   3.353  17.939  0.00  0.00    +0.000 N 
ATOM      4  H   UNL     1       4.895   3.613  16.971  0.00  0.00    +0.000 HD
ENDROOT
BRANCH   2   5
ATOM      5  C   UNL     1       6.159   5.246  18.443  0.00  0.00    +0.000 A 
ATOM      6  C   UNL     1       5.752   5.860  17.250  0.00  0.00    +0.000 A 
ATOM      7  C   UNL     1       6.458   6.951  16.736  0.00  0.00    +0.000 A 
ATOM      8  C   UNL     1       7.562   7.450  17.424  0.00  0.00    +0.000 A 
ATOM      9  C   UNL     1       7.971   6.857  18.622  0.00  0.00    +0.000 A 
ATOM     10  C   UNL     1       7.275   5.757  19.122  0.00  0.00    +0.000 A 
BRANCH  10  11
ATOM     11  O   UNL     1       7.712   5.181  20.286  0.00  0.00    +0.000 OA
ATOM     12  H   UNL     1       8.575   5.558  20.518  0.00  0.00    +0.000 HD
ENDBRANCH  10  11
ENDBRANCH   2   5
BRANCH   3  13
ATOM     13  C   UNL     1       3.891   2.205  18.220  0.00  0.00    +0.000 C 
BRANCH  13  14
ATOM     14  C   UNL     1       2.521   2.285  17.549  0.00  0.00    +0.000 C 
BRANCH  14  15
ATOM     15  C   UNL     1       1.436   2.824  18.488  0.00  0.00    +0.000 C 
BRANCH  15  16
ATOM     16  C   UNL     1       1.702   4.254  18.895  0.00  0.00    +0.000 A 
ATOM     17  C   UNL     1       2.009   5.217  17.923  0.00  0.00    +0.000 A 
ATOM     18  C   UNL     1       2.311   6.528  18.294  0.00  0.00    +0.000 A 
ATOM     19  C   UNL     1       2.307   6.892  19.638  0.00  0.00    +0.000 A 
ATOM     20  C   UNL     1       1.987   5.947  20.613  0.00  0.00    +0.000 A 
ATOM     21  C   UNL     1       1.686   4.634  20.244  0.00  0.00    +0.000 A 
ENDBRANCH  15  16
ENDBRANCH  14  15
ENDBRANCH  13  14
ENDBRANCH   3  13
TORSDOF 6
ENDMDL
MODEL 4
REMARK VINA RESULT:      -7.4      3.240      4.344
REMARK  Name = 
REMARK  6 active torsions:
REMARK  status: ('A' for Active; 'I' for Inactive)
REMARK    1  A    between atoms: C_2  and  C_13
REMARK    2  A    between atoms: N_3  and  C_4
REMARK    3  A    between atoms: C_4  and  C_5
REMARK    4  A    between atoms: C_5  and  C_6
REMARK    5  A    between atoms: C_6  and  C_7
REMARK    6  A    between atoms: C_18  and  O_19
REMARK                            x       y       z     vdW  Elec       q    Type
REMARK                         _______ _______ _______ _____ _____    ______ ____
ROOT
ATOM      1  O   UNL     1       5.219   3.748  20.083  0.00  0.00    +0.000 OA
ATOM      2  C   UNL     1       5.284   3.993  18.884  0.00  0.00    +0.000 C 
ATOM      3  N   UNL     1       4.629   3.260  17.923  0.00  0.00    +0.000 N 
ATOM      4  H   UNL     1       4.812   3.497  16.950  0.00  0.00    +0.000 HD
ENDROOT
BRANCH   2   5
ATOM      5  C   UNL     1       6.074   5.159  18.391  0.00  0.00    +0.000 A 
ATOM      6  C   UNL     1       5.693   5.729  17.166  0.00  0.00    +0.000 A 
ATOM      7  C   UNL     1       6.407   6.804  16.631  0.00  0.00    +0.000 A 
ATOM      8  C   UNL     1       7.493   7.331  17.326  0.00  0.00    +0.000 A 
ATOM      9  C   UNL     1       7.876   6.783  18.554  0.00  0.00    +0.000 A 
ATOM     10  C   UNL     1       7.172   5.698  19.076  0.00  0.00    +0.000 A 
BRANCH  10  11
ATOM     11  O   UNL     1       7.584   5.166  20.270  0.00  0.00    +0.000 OA
ATOM     12  H   UNL     1       7.102   5.603  20.990  0.00  0.00    +0.000 HD
ENDBRANCH  10  11
ENDBRANCH   2   5
BRANCH   3  13
ATOM     13  C   UNL     1       3.796   2.122  18.226  0.00  0.00    +0.000 C 
BRANCH  13  14
ATOM     14  C   UNL     1       2.416   2.209  17.578  0.00  0.00    +0.000 C 
BRANCH  14  15
ATOM     15  C   UNL     1       1.367   2.829  18.510  0.00  0.00    +0.000 C 
BRANCH  15  16
ATOM     16  C   UNL     1       1.724   4.244  18.899  0.00  0.00    +0.000 A 
ATOM     17  C   UNL     1       1.752   4.618  20.249  0.00  0.00    +0.000 A 
ATOM     18  C   UNL     1       2.025   5.936  20.616  0.00  0.00    +0.000 A 
ATOM     19  C   UNL     1       2.277   6.894  19.637  0.00  0.00    +0.000 A 
ATOM     20  C   UNL     1       2.270   6.532  18.291  0.00  0.00    +0.000 A 
ATOM     21  C   UNL     1       1.994   5.212  17.922  0.00  0.00    +0.000 A 
ENDBRANCH  15  16
ENDBRANCH  14  15
ENDBRANCH  13  14
ENDBRANCH   3  13
TORSDOF 6
ENDMDL
MODEL 5
REMARK VINA RESULT:      -7.3      2.461      6.736
REMARK  Name = 
REMARK  6 active torsions:
REMARK  status: ('A' for Active; 'I' for Inactive)
REMARK    1  A    between atoms: C_2  and  C_13
REMARK    2  A    between atoms: N_3  and  C_4
REMARK    3  A    between atoms: C_4  and  C_5
REMARK    4  A    between atoms: C_5  and  C_6
REMARK    5  A    between atoms: C_6  and  C_7
REMARK    6  A    between atoms: C_18  and  O_19
REMARK                            x       y       z     vdW  Elec       q    Type
REMARK                         _______ _______ _______ _____ _____    ______ ____
ROOT
ATOM      1  O   UNL     1       4.196   5.764  18.114  0.00  0.00    +0.000 OA
ATOM      2  C   UNL     1       3.753   4.624  18.042  0.00  0.00    +0.000 C 
ATOM      3  N   UNL     1       3.865   3.835  16.921  0.00  0.00    +0.000 N 
ATOM      4  H   UNL     1       3.394   2.933  16.937  0.00  0.00    +0.000 HD
ENDROOT
BRANCH   2   5
ATOM      5  C   UNL     1       3.081   3.996  19.217  0.00  0.00    +0.000 A 
ATOM      6  C   UNL     1       1.788   4.438  19.536  0.00  0.00    +0.000 A 
ATOM      7  C   UNL     1       1.112   3.916  20.642  0.00  0.00    +0.000 A 
ATOM      8  C   UNL     1       1.713   2.931  21.422  0.00  0.00    +0.000 A 
ATOM      9  C   UNL     1       2.995   2.470  21.107  0.00  0.00    +0.000 A 
ATOM     10  C   UNL     1       3.674   3.008  20.015  0.00  0.00    +0.000 A 
BRANCH  10  11
ATOM     11  O   UNL     1       4.939   2.554  19.743  0.00  0.00    +0.000 OA
ATOM     12  H   UNL     1       5.580   3.121  20.199  0.00  0.00    +0.000 HD
ENDBRANCH  10  11
ENDBRANCH   2   5
BRANCH   3  13
ATOM     13  C   UNL     1       4.513   4.271  15.709  0.00  0.00    +0.000 C 
BRANCH  13  14
ATOM     14  C   UNL     1       5.871   3.606  15.492  0.00  0.00    +0.000 C 
BRANCH  14  15
ATOM     15  C   UNL     1       7.002   4.624  15.308  0.00  0.00    +0.000 C 
BRANCH  15  16
ATOM     16  C   UNL     1       7.305   5.368  16.587  0.00  0.00    +0.000 A 
ATOM     17  C   UNL     1       7.320   6.769  16.599  0.00  0.00    +0.000 A 
ATOM     18  C   UNL     1       7.653   7.466  17.762  0.00  0.00    +0.000 A 
ATOM     19  C   UNL     1       7.972   6.769  18.925  0.00  0.00    +0.000 A 
ATOM     20  C   UNL     1       7.943   5.375  18.930  0.00  0.00    +0.000 A 
ATOM     21  C   UNL     1       7.612   4.677  17.766  0.00  0.00    +0.000 A 
ENDBRANCH  15  16
ENDBRANCH  14  15
ENDBRANCH  13  14
ENDBRANCH   3  13
TORSDOF 6
ENDMDL
MODEL 6
REMARK VINA RESULT:      -7.2      2.140      3.435
REMARK  Name = 
REMARK  6 active torsions:
REMARK  status: ('A' for Active; 'I' for Inactive)
REMARK    1  A    between atoms: C_2  and  C_13
REMARK    2  A    between atoms: N_3  and  C_4
REMARK    3  A    between atoms: C_4  and  C_5
REMARK    4  A    between atoms: C_5  and  C_6
REMARK    5  A    between atoms: C_6  and  C_7
REMARK    6  A    between atoms: C_18  and  O_19
REMARK                            x       y       z     vdW  Elec       q    Type
REMARK                         _______ _______ _______ _____ _____    ______ ____
ROOT
ATOM      1  O   UNL     1       5.920   4.600  19.489  0.00  0.00    +0.000 OA
ATOM      2  C   UNL     1       5.464   3.923  18.575  0.00  0.00    +0.000 C 
ATOM      3  N   UNL     1       4.608   2.865  18.767  0.00  0.00    +0.000 N 
ATOM      4  H   UNL     1       4.350   2.319  17.948  0.00  0.00    +0.000 HD
ENDROOT
BRANCH   2   5
ATOM      5  C   UNL     1       5.797   4.245  17.155  0.00  0.00    +0.000 A 
ATOM      6  C   UNL     1       4.728   4.410  16.261  0.00  0.00    +0.000 A 
ATOM      7  C   UNL     1       4.968   4.682  14.912  0.00  0.00    +0.000 A 
ATOM      8  C   UNL     1       6.276   4.816  14.452  0.00  0.00    +0.000 A 
ATOM      9  C   UNL     1       7.350   4.669  15.334  0.00  0.00    +0.000 A 
ATOM     10  C   UNL     1       7.108   4.378  16.676  0.00  0.00    +0.000 A 
BRANCH  10  11
ATOM     11  O   UNL     1       8.180   4.216  17.514  0.00  0.00    +0.000 OA
ATOM     12  H   UNL     1       7.932   3.607  18.227  0.00  0.00    +0.000 HD
ENDBRANCH  10  11
ENDBRANCH   2   5
BRANCH   3  13
ATOM     13  C   UNL     1       4.157   2.438  20.069  0.00  0.00    +0.000 C 
BRANCH  13  14
ATOM     14  C   UNL     1       2.734   2.895  20.381  0.00  0.00    +0.000 C 
BRANCH  14  15
ATOM     15  C   UNL     1       2.051   3.557  19.179  0.00  0.00    +0.000 C 
BRANCH  15  16
ATOM     16  C   UNL     1       2.014   5.062  19.309  0.00  0.00    +0.000 A 
ATOM     17  C   UNL     1       2.339   5.872  18.212  0.00  0.00    +0.000 A 
ATOM     18  C   UNL     1       2.362   7.262  18.338  0.00  0.00    +0.000 A 
ATOM     19  C   UNL     1       2.059   7.856  19.560  0.00  0.00    +0.000 A 
ATOM     20  C   UNL     1       1.717   7.062  20.654  0.00  0.00    +0.000 A 
ATOM     21  C   UNL     1       1.696   5.670  20.530  0.00  0.00    +0.000 A 
ENDBRANCH  15  16
ENDBRANCH  14  15
ENDBRANCH  13  14
ENDBRANCH   3  13
TORSDOF 6
ENDMDL
MODEL 7
REMARK VINA RESULT:      -7.2      2.783      4.085
REMARK  Name = 
REMARK  6 active torsions:
REMARK  status: ('A' for Active; 'I' for Inactive)
REMARK    1  A    between atoms: C_2  and  C_13
REMARK    2  A    between atoms: N_3  and  C_4
REMARK    3  A    between atoms: C_4  and  C_5
REMARK    4  A    between atoms: C_5  and  C_6
REMARK    5  A    between atoms: C_6  and  C_7
REMARK    6  A    between atoms: C_18  and  O_19
REMARK                            x       y       z     vdW  Elec       q    Type
REMARK                         _______ _______ _______ _____ _____    ______ ____
ROOT
ATOM      1  O   UNL     1       4.960   3.872  15.850  0.00  0.00    +0.000 OA
ATOM      2  C   UNL     1       5.227   4.050  17.032  0.00  0.00    +0.000 C 
ATOM      3  N   UNL     1       4.738   3.263  18.048  0.00  0.00    +0.000 N 
ATOM      4  H   UNL     1       4.956   3.544  19.002  0.00  0.00    +0.000 HD
ENDROOT
BRANCH   2   5
ATOM      5  C   UNL     1       6.156   5.144  17.443  0.00  0.00    +0.000 A 
ATOM      6  C   UNL     1       7.028   4.886  18.511  0.00  0.00    +0.000 A 
ATOM      7  C   UNL     1       7.903   5.875  18.967  0.00  0.00    +0.000 A 
ATOM      8  C   UNL     1       7.930   7.120  18.343  0.00  0.00    +0.000 A 
ATOM      9  C   UNL     1       7.077   7.387  17.268  0.00  0.00    +0.000 A 
ATOM     10  C   UNL     1       6.191   6.404  16.828  0.00  0.00    +0.000 A 
BRANCH  10  11
ATOM     11  O   UNL     1       5.351   6.700  15.787  0.00  0.00    +0.000 OA
ATOM     12  H   UNL     1       4.777   5.936  15.620  0.00  0.00    +0.000 HD
ENDBRANCH  10  11
ENDBRANCH   2   5
BRANCH   3  13
ATOM     13  C   UNL     1       3.855   2.144  17.827  0.00  0.00    +0.000 C 
BRANCH  13  14
ATOM     14  C   UNL     1       2.495   2.322  18.499  0.00  0.00    +0.000 C 
BRANCH  14  15
ATOM     15  C   UNL     1       1.682   3.469  17.888  0.00  0.00    +0.000 C 
BRANCH  15  16
ATOM     16  C   UNL     1       1.902   4.771  18.622  0.00  0.00    +0.000 A 
ATOM     17  C   UNL     1       1.661   4.851  20.000  0.00  0.00    +0.000 A 
ATOM     18  C   UNL     1       1.807   6.063  20.677  0.00  0.00    +0.000 A 
ATOM     19  C   UNL     1       2.198   7.206  19.985  0.00  0.00    +0.000 A 
ATOM     20  C   UNL     1       2.458   7.135  18.617  0.00  0.00    +0.000 A 
ATOM     21  C   UNL     1       2.310   5.923  17.937  0.00  0.00    +0.000 A 
ENDBRANCH  15  16
ENDBRANCH  14  15
ENDBRANCH  13  14
ENDBRANCH   3  13
TORSDOF 6
ENDMDL
MODEL 8
REMARK VINA RESULT:      -7.2      2.565      4.116
REMARK  Name = 
REMARK  6 active torsions:
REMARK  status: ('A' for Active; 'I' for Inactive)
REMARK    1  A    between atoms: C_2  and  C_13
REMARK    2  A    between atoms: N_3  and  C_4
REMARK    3  A    between atoms: C_4  and  C_5
REMARK    4  A    between atoms: C_5  and  C_6
REMARK    5  A    between atoms: C_6  and  C_7
REMARK    6  A    between atoms: C_18  and  O_19
REMARK                            x       y       z     vdW  Elec       q    Type
REMARK                         _______ _______ _______ _____ _____    ______ ____
ROOT
ATOM      1  O   UNL     1       5.210   3.046  19.925  0.00  0.00    +0.000 OA
ATOM      2  C   UNL     1       5.052   3.295  18.736  0.00  0.00    +0.000 C 
ATOM      3  N   UNL     1       4.149   2.637  17.936  0.00  0.00    +0.000 N 
ATOM      4  H   UNL     1       4.151   2.865  16.944  0.00  0.00    +0.000 HD
ENDROOT
BRANCH   2   5
ATOM      5  C   UNL     1       5.830   4.388  18.081  0.00  0.00    +0.000 A 
ATOM      6  C   UNL     1       6.157   5.508  18.861  0.00  0.00    +0.000 A 
ATOM      7  C   UNL     1       6.857   6.580  18.303  0.00  0.00    +0.000 A 
ATOM      8  C   UNL     1       7.256   6.532  16.969  0.00  0.00    +0.000 A 
ATOM      9  C   UNL     1       6.949   5.416  16.184  0.00  0.00    +0.000 A 
ATOM     10  C   UNL     1       6.234   4.356  16.738  0.00  0.00    +0.000 A 
BRANCH  10  11
ATOM     11  O   UNL     1       5.927   3.285  15.939  0.00  0.00    +0.000 OA
ATOM     12  H   UNL     1       5.004   3.363  15.652  0.00  0.00    +0.000 HD
ENDBRANCH  10  11
ENDBRANCH   2   5
BRANCH   3  13
ATOM     13  C   UNL     1       3.294   1.578  18.413  0.00  0.00    +0.000 C 
BRANCH  13  14
ATOM     14  C   UNL     1       1.927   2.083  18.872  0.00  0.00    +0.000 C 
BRANCH  14  15
ATOM     15  C   UNL     1       1.433   3.275  18.044  0.00  0.00    +0.000 C 
BRANCH  15  16
ATOM     16  C   UNL     1       1.800   4.595  18.681  0.00  0.00    +0.000 A 
ATOM     17  C   UNL     1       1.625   4.785  20.058  0.00  0.00    +0.000 A 
ATOM     18  C   UNL     1       1.909   6.019  20.646  0.00  0.00    +0.000 A 
ATOM     19  C   UNL     1       2.374   7.073  19.865  0.00  0.00    +0.000 A 
ATOM     20  C   UNL     1       2.569   6.891  18.496  0.00  0.00    +0.000 A 
ATOM     21  C   UNL     1       2.283   5.658  17.906  0.00  0.00    +0.000 A 
ENDBRANCH  15  16
ENDBRANCH  14  15
ENDBRANCH  13  14
ENDBRANCH   3  13
TORSDOF 6
ENDMDL
MODEL 9
REMARK VINA RESULT:      -7.2      5.120      8.134
REMARK  Name = 
REMARK  6 active torsions:
REMARK  status: ('A' for Active; 'I' for Inactive)
REMARK    1  A    between atoms: C_2  and  C_13
REMARK    2  A    between atoms: N_3  and  C_4
REMARK    3  A    between atoms: C_4  and  C_5
REMARK    4  A    between atoms: C_5  and  C_6
REMARK    5  A    between atoms: C_6  and  C_7
REMARK    6  A    between atoms: C_18  and  O_19
REMARK                            x       y       z     vdW  Elec       q    Type
REMARK                         _______ _______ _______ _____ _____    ______ ____
ROOT
ATOM      1  O   UNL     1       7.314   5.772  15.830  0.00  0.00    +0.000 OA
ATOM      2  C   UNL     1       6.796   5.972  16.922  0.00  0.00    +0.000 C 
ATOM      3  N   UNL     1       7.070   7.068  17.705  0.00  0.00    +0.000 N 
ATOM      4  H   UNL     1       6.646   7.099  18.629  0.00  0.00    +0.000 HD
ENDROOT
BRANCH   2   5
ATOM      5  C   UNL     1       5.777   5.023  17.462  0.00  0.00    +0.000 A 
ATOM      6  C   UNL     1       4.831   4.507  16.562  0.00  0.00    +0.000 A 
ATOM      7  C   UNL     1       3.832   3.638  17.006  0.00  0.00    +0.000 A 
ATOM      8  C   UNL     1       3.784   3.259  18.345  0.00  0.00    +0.000 A 
ATOM      9  C   UNL     1       4.729   3.753  19.250  0.00  0.00    +0.000 A 
ATOM     10  C   UNL     1       5.714   4.635  18.808  0.00  0.00    +0.000 A 
BRANCH  10  11
ATOM     11  O   UNL     1       6.613   5.122  19.720  0.00  0.00    +0.000 OA
ATOM     12  H   UNL     1       7.324   4.473  19.836  0.00  0.00    +0.000 HD
ENDBRANCH  10  11
ENDBRANCH   2   5
BRANCH   3  13
ATOM     13  C   UNL     1       8.003   8.099  17.322  0.00  0.00    +0.000 C 
BRANCH  13  14
ATOM     14  C   UNL     1       8.445   8.964  18.500  0.00  0.00    +0.000 C 
BRANCH  14  15
ATOM     15  C   UNL     1       8.476  10.458  18.155  0.00  0.00    +0.000 C 
BRANCH  15  16
ATOM     16  C   UNL     1       9.729  11.129  18.665  0.00  0.00    +0.000 A 
ATOM     17  C   UNL     1      10.718  11.551  17.766  0.00  0.00    +0.000 A 
ATOM     18  C   UNL     1      11.904  12.121  18.232  0.00  0.00    +0.000 A 
ATOM     19  C   UNL     1      12.113  12.278  19.599  0.00  0.00    +0.000 A 
ATOM     20  C   UNL     1      11.129  11.878  20.503  0.00  0.00    +0.000 A 
ATOM     21  C   UNL     1       9.942  11.305  20.039  0.00  0.00    +0.000 A 
ENDBRANCH  15  16
ENDBRANCH  14  15
ENDBRANCH  13  14
ENDBRANCH   3  13
TORSDOF 6
ENDMDL
