MODEL 1
REMARK VINA RESULT:      -6.8      0.000      0.000
REMARK  Name = 
REMARK  3 active torsions:
REMARK  status: ('A' for Active; 'I' for Inactive)
REMARK    1  A    between atoms: C_1  and  C_2
REMARK    2  A    between atoms: C_5  and  C_6
REMARK    3  A    between atoms: N_11  and  C_12
REMARK                            x       y       z     vdW  Elec       q    Type
REMARK                         _______ _______ _______ _____ _____    ______ ____
ROOT
ATOM      1  C   UNL     1       3.198   6.453  17.762  0.00  0.00    +0.000 C 
ATOM      2  O   UNL     1       3.846   6.921  16.826  0.00  0.00    +0.000 OA
ATOM      3  N   UNL     1       2.575   7.293  18.684  0.00  0.00    +0.000 N 
ATOM      4  C   UNL     1       2.564   8.740  18.434  0.00  0.00    +0.000 C 
ATOM      5  C   UNL     1       1.250   9.386  18.920  0.00  0.00    +0.000 C 
ATOM      6  N   UNL     1       1.025   9.018  20.328  0.00  0.00    +0.000 N 
ATOM      7  C   UNL     1       0.955   7.559  20.553  0.00  0.00    +0.000 C 
ATOM      8  C   UNL     1       2.272   6.924  20.080  0.00  0.00    +0.000 C 
ENDROOT
BRANCH   1  13
ATOM      9  C   UNL     1       3.497   1.436  18.409  0.00  0.00    +0.000 C 
ATOM     10  C   UNL     1       3.096   2.838  18.167  0.00  0.00    +0.000 A 
ATOM     11  N   UNL     1       1.861   3.109  17.724  0.00  0.00    +0.000 NA
ATOM     12  O   UNL     1       1.828   4.476  17.532  0.00  0.00    +0.000 OA
ATOM     13  C   UNL     1       3.014   5.031  17.917  0.00  0.00    +0.000 A 
ATOM     14  C   UNL     1       3.859   4.023  18.308  0.00  0.00    +0.000 A 
ATOM     15 CL   UNL     1       5.464   4.121  18.846  0.00  0.00    +0.000 Cl
ENDBRANCH   1  13
BRANCH   6  16
ATOM     16  C   UNL     1       0.257   9.820  21.162  0.00  0.00    +0.000 A 
ATOM     17  C   UNL     1      -0.037   9.487  22.492  0.00  0.00    +0.000 A 
ATOM     18  C   UNL     1      -0.864  10.302  23.275  0.00  0.00    +0.000 A 
ATOM     19  C   UNL     1      -1.411  11.452  22.725  0.00  0.00    +0.000 A 
ATOM     20  F   UNL     1      -2.219  12.221  23.468  0.00  0.00    +0.000 F 
ATOM     21  C   UNL     1      -1.144  11.809  21.413  0.00  0.00    +0.000 A 
ATOM     22  C   UNL     1      -0.311  10.996  20.644  0.00  0.00    +0.000 A 
ENDBRANCH   6  16
TORSDOF 2
ENDMDL
MODEL 2
REMARK VINA RESULT:      -6.7      0.169      1.037
REMARK  Name = 
REMARK  3 active torsions:
REMARK  status: ('A' for Active; 'I' for Inactive)
REMARK    1  A    between atoms: C_1  and  C_2
REMARK    2  A    between atoms: C_5  and  C_6
REMARK    3  A    between atoms: N_11  and  C_12
REMARK                            x       y       z     vdW  Elec       q    Type
REMARK                         _______ _______ _______ _____ _____    ______ ____
ROOT
ATOM      1  C   UNL     1       3.269   6.374  17.698  0.00  0.00    +0.000 C 
ATOM      2  O   UNL     1       3.926   6.822  16.759  0.00  0.00    +0.000 OA
ATOM      3  N   UNL     1       2.633   7.234  18.593  0.00  0.00    +0.000 N 
ATOM      4  C   UNL     1       2.621   8.675  18.309  0.00  0.00    +0.000 C 
ATOM      5  C   UNL     1       1.300   9.328  18.765  0.00  0.00    +0.000 C 
ATOM      6  N   UNL     1       1.060   8.992  20.179  0.00  0.00    +0.000 N 
ATOM      7  C   UNL     1       0.991   7.539  20.437  0.00  0.00    +0.000 C 
ATOM      8  C   UNL     1       2.315   6.896  19.994  0.00  0.00    +0.000 C 
ENDROOT
BRANCH   1  13
ATOM      9  C   UNL     1       3.574   1.375  18.463  0.00  0.00    +0.000 C 
ATOM     10  C   UNL     1       3.172   2.769  18.186  0.00  0.00    +0.000 A 
ATOM     11  N   UNL     1       1.940   3.027  17.724  0.00  0.00    +0.000 NA
ATOM     12  O   UNL     1       1.906   4.388  17.500  0.00  0.00    +0.000 OA
ATOM     13  C   UNL     1       3.086   4.956  17.884  0.00  0.00    +0.000 A 
ATOM     14  C   UNL     1       3.930   3.959  18.306  0.00  0.00    +0.000 A 
ATOM     15 CL   UNL     1       5.529   4.074  18.858  0.00  0.00    +0.000 Cl
ENDBRANCH   1  13
BRANCH   6  16
ATOM     16  C   UNL     1       0.281   9.811  20.986  0.00  0.00    +0.000 A 
ATOM     17  C   UNL     1      -0.167  11.078  20.591  0.00  0.00    +0.000 A 
ATOM     18  C   UNL     1      -0.903  11.889  21.463  0.00  0.00    +0.000 A 
ATOM     19  C   UNL     1      -1.187  11.437  22.744  0.00  0.00    +0.000 A 
ATOM     20  F   UNL     1      -1.874  12.221  23.586  0.00  0.00    +0.000 F 
ATOM     21  C   UNL     1      -0.757  10.190  23.168  0.00  0.00    +0.000 A 
ATOM     22  C   UNL     1      -0.032   9.386  22.289  0.00  0.00    +0.000 A 
ENDBRANCH   6  16
TORSDOF 2
ENDMDL
MODEL 3
REMARK VINA RESULT:      -6.7      2.056      2.891
REMARK  Name = 
REMARK  3 active torsions:
REMARK  status: ('A' for Active; 'I' for Inactive)
REMARK    1  A    between atoms: C_1  and  C_2
REMARK    2  A    between atoms: C_5  and  C_6
REMARK    3  A    between atoms: N_11  and  C_12
REMARK                            x       y       z     vdW  Elec       q    Type
REMARK                         _______ _______ _______ _____ _____    ______ ____
ROOT
ATOM      1  C   UNL     1       3.345   4.600  19.342  0.00  0.00    +0.000 C 
ATOM      2  O   UNL     1       3.154   3.734  20.197  0.00  0.00    +0.000 OA
ATOM      3  N   UNL     1       2.630   5.796  19.370  0.00  0.00    +0.000 N 
ATOM      4  C   UNL     1       1.763   6.079  20.522  0.00  0.00    +0.000 C 
ATOM      5  C   UNL     1       1.760   7.583  20.869  0.00  0.00    +0.000 C 
ATOM      6  N   UNL     1       1.424   8.355  19.660  0.00  0.00    +0.000 N 
ATOM      7  C   UNL     1       2.355   8.123  18.535  0.00  0.00    +0.000 C 
ATOM      8  C   UNL     1       2.342   6.627  18.185  0.00  0.00    +0.000 C 
ENDROOT
BRANCH   1  13
ATOM      9  C   UNL     1       7.377   4.620  16.272  0.00  0.00    +0.000 C 
ATOM     10  C   UNL     1       6.067   4.437  16.932  0.00  0.00    +0.000 A 
ATOM     11  N   UNL     1       5.054   3.877  16.255  0.00  0.00    +0.000 NA
ATOM     12  O   UNL     1       3.971   3.917  17.110  0.00  0.00    +0.000 OA
ATOM     13  C   UNL     1       4.345   4.439  18.315  0.00  0.00    +0.000 A 
ATOM     14  C   UNL     1       5.666   4.804  18.240  0.00  0.00    +0.000 A 
ATOM     15 CL   UNL     1       6.642   5.533  19.418  0.00  0.00    +0.000 Cl
ENDBRANCH   1  13
BRANCH   6  16
ATOM     16  C   UNL     1       0.855   9.617  19.754  0.00  0.00    +0.000 A 
ATOM     17  C   UNL     1       0.768  10.334  20.954  0.00  0.00    +0.000 A 
ATOM     18  C   UNL     1       0.132  11.581  21.007  0.00  0.00    +0.000 A 
ATOM     19  C   UNL     1      -0.431  12.113  19.856  0.00  0.00    +0.000 A 
ATOM     20  F   UNL     1      -1.057  13.296  19.911  0.00  0.00    +0.000 F 
ATOM     21  C   UNL     1      -0.366  11.429  18.652  0.00  0.00    +0.000 A 
ATOM     22  C   UNL     1       0.277  10.192  18.607  0.00  0.00    +0.000 A 
ENDBRANCH   6  16
TORSDOF 2
ENDMDL
MODEL 4
REMARK VINA RESULT:      -6.7      1.440      1.767
REMARK  Name = 
REMARK  3 active torsions:
REMARK  status: ('A' for Active; 'I' for Inactive)
REMARK    1  A    between atoms: C_1  and  C_2
REMARK    2  A    between atoms: C_5  and  C_6
REMARK    3  A    between atoms: N_11  and  C_12
REMARK                            x       y       z     vdW  Elec       q    Type
REMARK                         _______ _______ _______ _____ _____    ______ ____
ROOT
ATOM      1  C   UNL     1       3.677   6.555  17.667  0.00  0.00    +0.000 C 
ATOM      2  O   UNL     1       4.131   7.009  16.617  0.00  0.00    +0.000 OA
ATOM      3  N   UNL     1       2.952   7.368  18.538  0.00  0.00    +0.000 N 
ATOM      4  C   UNL     1       2.598   8.728  18.112  0.00  0.00    +0.000 C 
ATOM      5  C   UNL     1       1.213   9.143  18.650  0.00  0.00    +0.000 C 
ATOM      6  N   UNL     1       1.183   8.944  20.109  0.00  0.00    +0.000 N 
ATOM      7  C   UNL     1       1.459   7.551  20.519  0.00  0.00    +0.000 C 
ATOM      8  C   UNL     1       2.846   7.148  19.993  0.00  0.00    +0.000 C 
ENDROOT
BRANCH   1  13
ATOM      9  C   UNL     1       3.262   1.639  18.823  0.00  0.00    +0.000 C 
ATOM     10  C   UNL     1       3.697   3.024  18.550  0.00  0.00    +0.000 A 
ATOM     11  N   UNL     1       4.951   3.397  18.843  0.00  0.00    +0.000 NA
ATOM     12  O   UNL     1       5.016   4.744  18.544  0.00  0.00    +0.000 OA
ATOM     13  C   UNL     1       3.829   5.163  18.016  0.00  0.00    +0.000 A 
ATOM     14  C   UNL     1       2.953   4.107  18.021  0.00  0.00    +0.000 A 
ATOM     15 CL   UNL     1       1.335   4.057  17.519  0.00  0.00    +0.000 Cl
ENDBRANCH   1  13
BRANCH   6  16
ATOM     16  C   UNL     1       0.320   9.676  20.913  0.00  0.00    +0.000 A 
ATOM     17  C   UNL     1      -0.317  10.849  20.488  0.00  0.00    +0.000 A 
ATOM     18  C   UNL     1      -1.135  11.583  21.357  0.00  0.00    +0.000 A 
ATOM     19  C   UNL     1      -1.310  11.150  22.663  0.00  0.00    +0.000 A 
ATOM     20  F   UNL     1      -2.076  11.862  23.500  0.00  0.00    +0.000 F 
ATOM     21  C   UNL     1      -0.692   9.995  23.117  0.00  0.00    +0.000 A 
ATOM     22  C   UNL     1       0.113   9.266  22.242  0.00  0.00    +0.000 A 
ENDBRANCH   6  16
TORSDOF 2
ENDMDL
MODEL 5
REMARK VINA RESULT:      -6.6      2.245      3.104
REMARK  Name = 
REMARK  3 active torsions:
REMARK  status: ('A' for Active; 'I' for Inactive)
REMARK    1  A    between atoms: C_1  and  C_2
REMARK    2  A    between atoms: C_5  and  C_6
REMARK    3  A    between atoms: N_11  and  C_12
REMARK                            x       y       z     vdW  Elec       q    Type
REMARK                         _______ _______ _______ _____ _____    ______ ____
ROOT
ATOM      1  C   UNL     1       3.691   5.882  18.951  0.00  0.00    +0.000 C 
ATOM      2  O   UNL     1       3.831   5.048  19.845  0.00  0.00    +0.000 OA
ATOM      3  N   UNL     1       2.713   6.872  19.050  0.00  0.00    +0.000 N 
ATOM      4  C   UNL     1       1.963   7.007  20.305  0.00  0.00    +0.000 C 
ATOM      5  C   UNL     1       1.637   8.484  20.610  0.00  0.00    +0.000 C 
ATOM      6  N   UNL     1       0.967   9.080  19.442  0.00  0.00    +0.000 N 
ATOM      7  C   UNL     1       1.769   9.012  18.202  0.00  0.00    +0.000 C 
ATOM      8  C   UNL     1       2.078   7.537  17.896  0.00  0.00    +0.000 C 
ENDROOT
BRANCH   1  13
ATOM      9  C   UNL     1       6.614   5.013  14.904  0.00  0.00    +0.000 C 
ATOM     10  C   UNL     1       5.859   5.573  16.044  0.00  0.00    +0.000 A 
ATOM     11  N   UNL     1       6.066   6.843  16.419  0.00  0.00    +0.000 NA
ATOM     12  O   UNL     1       5.278   7.032  17.537  0.00  0.00    +0.000 OA
ATOM     13  C   UNL     1       4.555   5.904  17.796  0.00  0.00    +0.000 A 
ATOM     14  C   UNL     1       4.909   4.941  16.884  0.00  0.00    +0.000 A 
ATOM     15 CL   UNL     1       4.362   3.343  16.750  0.00  0.00    +0.000 Cl
ENDBRANCH   1  13
BRANCH   6  16
ATOM     16  C   UNL     1       0.123  10.173  19.583  0.00  0.00    +0.000 A 
ATOM     17  C   UNL     1       0.074  10.963  20.740  0.00  0.00    +0.000 A 
ATOM     18  C   UNL     1      -0.837  12.021  20.855  0.00  0.00    +0.000 A 
ATOM     19  C   UNL     1      -1.713  12.287  19.814  0.00  0.00    +0.000 A 
ATOM     20  F   UNL     1      -2.598  13.286  19.932  0.00  0.00    +0.000 F 
ATOM     21  C   UNL     1      -1.694  11.524  18.657  0.00  0.00    +0.000 A 
ATOM     22  C   UNL     1      -0.778  10.478  18.547  0.00  0.00    +0.000 A 
ENDBRANCH   6  16
TORSDOF 2
ENDMDL
MODEL 6
REMARK VINA RESULT:      -6.6      2.012      2.988
REMARK  Name = 
REMARK  3 active torsions:
REMARK  status: ('A' for Active; 'I' for Inactive)
REMARK    1  A    between atoms: C_1  and  C_2
REMARK    2  A    between atoms: C_5  and  C_6
REMARK    3  A    between atoms: N_11  and  C_12
REMARK                            x       y       z     vdW  Elec       q    Type
REMARK                         _______ _______ _______ _____ _____    ______ ____
ROOT
ATOM      1  C   UNL     1       3.338   3.987  18.978  0.00  0.00    +0.000 C 
ATOM      2  O   UNL     1       3.087   2.932  19.560  0.00  0.00    +0.000 OA
ATOM      3  N   UNL     1       2.642   5.154  19.292  0.00  0.00    +0.000 N 
ATOM      4  C   UNL     1       1.722   5.147  20.437  0.00  0.00    +0.000 C 
ATOM      5  C   UNL     1       1.727   6.504  21.172  0.00  0.00    +0.000 C 
ATOM      6  N   UNL     1       1.469   7.579  20.199  0.00  0.00    +0.000 N 
ATOM      7  C   UNL     1       2.452   7.627  19.097  0.00  0.00    +0.000 C 
ATOM      8  C   UNL     1       2.431   6.278  18.360  0.00  0.00    +0.000 C 
ENDROOT
BRANCH   1  13
ATOM      9  C   UNL     1       7.427   4.897  16.127  0.00  0.00    +0.000 C 
ATOM     10  C   UNL     1       6.138   4.459  16.702  0.00  0.00    +0.000 A 
ATOM     11  N   UNL     1       5.248   3.820  15.929  0.00  0.00    +0.000 NA
ATOM     12  O   UNL     1       4.141   3.618  16.729  0.00  0.00    +0.000 OA
ATOM     13  C   UNL     1       4.386   4.074  17.992  0.00  0.00    +0.000 A 
ATOM     14  C   UNL     1       5.638   4.638  18.015  0.00  0.00    +0.000 A 
ATOM     15 CL   UNL     1       6.447   5.391  19.300  0.00  0.00    +0.000 Cl
ENDBRANCH   1  13
BRANCH   6  16
ATOM     16  C   UNL     1       0.917   8.788  20.600  0.00  0.00    +0.000 A 
ATOM     17  C   UNL     1       0.879   9.926  19.782  0.00  0.00    +0.000 A 
ATOM     18  C   UNL     1       0.362  11.139  20.255  0.00  0.00    +0.000 A 
ATOM     19  C   UNL     1      -0.110  11.222  21.557  0.00  0.00    +0.000 A 
ATOM     20  F   UNL     1      -0.585  12.388  22.015  0.00  0.00    +0.000 F 
ATOM     21  C   UNL     1      -0.084  10.117  22.393  0.00  0.00    +0.000 A 
ATOM     22  C   UNL     1       0.423   8.911  21.911  0.00  0.00    +0.000 A 
ENDBRANCH   6  16
TORSDOF 2
ENDMDL
MODEL 7
REMARK VINA RESULT:      -6.5      2.355      3.300
REMARK  Name = 
REMARK  3 active torsions:
REMARK  status: ('A' for Active; 'I' for Inactive)
REMARK    1  A    between atoms: C_1  and  C_2
REMARK    2  A    between atoms: C_5  and  C_6
REMARK    3  A    between atoms: N_11  and  C_12
REMARK                            x       y       z     vdW  Elec       q    Type
REMARK                         _______ _______ _______ _____ _____    ______ ____
ROOT
ATOM      1  C   UNL     1       3.572   5.038  19.861  0.00  0.00    +0.000 C 
ATOM      2  O   UNL     1       3.315   4.139  20.662  0.00  0.00    +0.000 OA
ATOM      3  N   UNL     1       2.720   6.134  19.725  0.00  0.00    +0.000 N 
ATOM      4  C   UNL     1       1.600   6.284  20.664  0.00  0.00    +0.000 C 
ATOM      5  C   UNL     1       1.333   7.768  20.989  0.00  0.00    +0.000 C 
ATOM      6  N   UNL     1       1.166   8.514  19.729  0.00  0.00    +0.000 N 
ATOM      7  C   UNL     1       2.335   8.422  18.830  0.00  0.00    +0.000 C 
ATOM      8  C   UNL     1       2.587   6.943  18.499  0.00  0.00    +0.000 C 
ENDROOT
BRANCH   1  13
ATOM      9  C   UNL     1       7.301   4.455  16.480  0.00  0.00    +0.000 C 
ATOM     10  C   UNL     1       6.442   4.775  17.639  0.00  0.00    +0.000 A 
ATOM     11  N   UNL     1       6.991   5.279  18.754  0.00  0.00    +0.000 NA
ATOM     12  O   UNL     1       5.953   5.395  19.657  0.00  0.00    +0.000 OA
ATOM     13  C   UNL     1       4.778   5.023  19.070  0.00  0.00    +0.000 A 
ATOM     14  C   UNL     1       5.045   4.600  17.792  0.00  0.00    +0.000 A 
ATOM     15 CL   UNL     1       3.979   3.996  16.621  0.00  0.00    +0.000 Cl
ENDBRANCH   1  13
BRANCH   6  16
ATOM     16  C   UNL     1       0.433   9.692  19.689  0.00  0.00    +0.000 A 
ATOM     17  C   UNL     1       0.184  10.402  18.507  0.00  0.00    +0.000 A 
ATOM     18  C   UNL     1      -0.513  11.618  18.527  0.00  0.00    +0.000 A 
ATOM     19  C   UNL     1      -0.955  12.135  19.736  0.00  0.00    +0.000 A 
ATOM     20  F   UNL     1      -1.603  13.307  19.758  0.00  0.00    +0.000 F 
ATOM     21  C   UNL     1      -0.722  11.460  20.924  0.00  0.00    +0.000 A 
ATOM     22  C   UNL     1      -0.036  10.246  20.893  0.00  0.00    +0.000 A 
ENDBRANCH   6  16
TORSDOF 2
ENDMDL
MODEL 8
REMARK VINA RESULT:      -6.5      2.334      3.201
REMARK  Name = 
REMARK  3 active torsions:
REMARK  status: ('A' for Active; 'I' for Inactive)
REMARK    1  A    between atoms: C_1  and  C_2
REMARK    2  A    between atoms: C_5  and  C_6
REMARK    3  A    between atoms: N_11  and  C_12
REMARK                            x       y       z     vdW  Elec       q    Type
REMARK                         _______ _______ _______ _____ _____    ______ ____
ROOT
ATOM      1  C   UNL     1       3.587   5.986  18.936  0.00  0.00    +0.000 C 
ATOM      2  O   UNL     1       3.706   5.145  19.827  0.00  0.00    +0.000 OA
ATOM      3  N   UNL     1       2.645   7.008  19.045  0.00  0.00    +0.000 N 
ATOM      4  C   UNL     1       1.908   7.165  20.307  0.00  0.00    +0.000 C 
ATOM      5  C   UNL     1       1.636   8.652  20.618  0.00  0.00    +0.000 C 
ATOM      6  N   UNL     1       0.977   9.274  19.456  0.00  0.00    +0.000 N 
ATOM      7  C   UNL     1       1.768   9.182  18.211  0.00  0.00    +0.000 C 
ATOM      8  C   UNL     1       2.024   7.699  17.899  0.00  0.00    +0.000 C 
ENDROOT
BRANCH   1  13
ATOM      9  C   UNL     1       6.389   5.042  14.821  0.00  0.00    +0.000 C 
ATOM     10  C   UNL     1       5.699   5.614  15.996  0.00  0.00    +0.000 A 
ATOM     11  N   UNL     1       6.031   6.838  16.431  0.00  0.00    +0.000 NA
ATOM     12  O   UNL     1       5.272   7.046  17.566  0.00  0.00    +0.000 OA
ATOM     13  C   UNL     1       4.443   5.982  17.775  0.00  0.00    +0.000 A 
ATOM     14  C   UNL     1       4.696   5.037  16.812  0.00  0.00    +0.000 A 
ATOM     15 CL   UNL     1       3.994   3.509  16.604  0.00  0.00    +0.000 Cl
ENDBRANCH   1  13
BRANCH   6  16
ATOM     16  C   UNL     1       0.172  10.394  19.607  0.00  0.00    +0.000 A 
ATOM     17  C   UNL     1      -0.969  10.631  18.828  0.00  0.00    +0.000 A 
ATOM     18  C   UNL     1      -1.717  11.806  18.981  0.00  0.00    +0.000 A 
ATOM     19  C   UNL     1      -1.318  12.757  19.909  0.00  0.00    +0.000 A 
ATOM     20  F   UNL     1      -2.021  13.890  20.041  0.00  0.00    +0.000 F 
ATOM     21  C   UNL     1      -0.193  12.556  20.693  0.00  0.00    +0.000 A 
ATOM     22  C   UNL     1       0.540  11.379  20.541  0.00  0.00    +0.000 A 
ENDBRANCH   6  16
TORSDOF 2
ENDMDL
MODEL 9
REMARK VINA RESULT:      -6.5      1.098      1.158
REMARK  Name = 
REMARK  3 active torsions:
REMARK  status: ('A' for Active; 'I' for Inactive)
REMARK    1  A    between atoms: C_1  and  C_2
REMARK    2  A    between atoms: C_5  and  C_6
REMARK    3  A    between atoms: N_11  and  C_12
REMARK                            x       y       z     vdW  Elec       q    Type
REMARK                         _______ _______ _______ _____ _____    ______ ____
ROOT
ATOM      1  C   UNL     1       2.910   7.038  18.240  0.00  0.00    +0.000 C 
ATOM      2  O   UNL     1       3.423   7.375  17.172  0.00  0.00    +0.000 OA
ATOM      3  N   UNL     1       2.195   7.958  19.006  0.00  0.00    +0.000 N 
ATOM      4  C   UNL     1       1.924   9.290  18.448  0.00  0.00    +0.000 C 
ATOM      5  C   UNL     1       0.543   9.815  18.892  0.00  0.00    +0.000 C 
ATOM      6  N   UNL     1       0.452   9.749  20.361  0.00  0.00    +0.000 N 
ATOM      7  C   UNL     1       0.644   8.388  20.903  0.00  0.00    +0.000 C 
ATOM      8  C   UNL     1       2.027   7.876  20.470  0.00  0.00    +0.000 C 
ENDROOT
BRANCH   1  13
ATOM      9  C   UNL     1       4.102   2.386  19.855  0.00  0.00    +0.000 C 
ATOM     10  C   UNL     1       3.451   3.631  19.399  0.00  0.00    +0.000 A 
ATOM     11  N   UNL     1       2.138   3.633  19.126  0.00  0.00    +0.000 NA
ATOM     12  O   UNL     1       1.859   4.903  18.663  0.00  0.00    +0.000 OA
ATOM     13  C   UNL     1       2.981   5.678  18.716  0.00  0.00    +0.000 A 
ATOM     14  C   UNL     1       4.024   4.903  19.158  0.00  0.00    +0.000 A 
ATOM     15 CL   UNL     1       5.650   5.326  19.382  0.00  0.00    +0.000 Cl
ENDBRANCH   1  13
BRANCH   6  16
ATOM     16  C   UNL     1      -0.402  10.589  21.062  0.00  0.00    +0.000 A 
ATOM     17  C   UNL     1      -0.619  10.487  22.443  0.00  0.00    +0.000 A 
ATOM     18  C   UNL     1      -1.535  11.322  23.095  0.00  0.00    +0.000 A 
ATOM     19  C   UNL     1      -2.248  12.260  22.363  0.00  0.00    +0.000 A 
ATOM     20  F   UNL     1      -3.139  13.046  22.983  0.00  0.00    +0.000 F 
ATOM     21  C   UNL     1      -2.061  12.386  20.995  0.00  0.00    +0.000 A 
ATOM     22  C   UNL     1      -1.140  11.556  20.356  0.00  0.00    +0.000 A 
ENDBRANCH   6  16
TORSDOF 2
ENDMDL
