MODEL 1
REMARK VINA RESULT:      -8.1      0.000      0.000
REMARK  Name = 
REMARK  5 active torsions:
REMARK  status: ('A' for Active; 'I' for Inactive)
REMARK    1  A    between atoms: C_4  and  S_5
REMARK    2  A    between atoms: S_5  and  C_6
REMARK    3  A    between atoms: C_13  and  C_14
REMARK    4  A    between atoms: C_18  and  S_19
REMARK    5  A    between atoms: S_19  and  C_20
REMARK                            x       y       z     vdW  Elec       q    Type
REMARK                         _______ _______ _______ _____ _____    ______ ____
ROOT
ATOM      1  C   UNL     1       0.983   9.152  22.399  0.00  0.00    +0.000 A 
ATOM      2  N   UNL     1       0.367   9.709  23.467  0.00  0.00    +0.000 NA
ATOM      3  N   UNL     1      -0.534  10.715  23.263  0.00  0.00    +0.000 NA
ATOM      4  C   UNL     1      -0.780  11.131  22.010  0.00  0.00    +0.000 A 
ATOM      5  N   UNL     1      -0.183  10.583  20.909  0.00  0.00    +0.000 NA
ATOM      6  C   UNL     1       0.717   9.570  21.111  0.00  0.00    +0.000 A 
ENDROOT
BRANCH   6   7
ATOM      7  C   UNL     1       1.374   8.946  19.915  0.00  0.00    +0.000 A 
ATOM      8  C   UNL     1       1.339   9.549  18.673  0.00  0.00    +0.000 A 
ATOM      9  N   UNL     1       1.914   8.975  17.591  0.00  0.00    +0.000 NA
ATOM     10  N   UNL     1       2.544   7.774  17.735  0.00  0.00    +0.000 NA
ATOM     11  C   UNL     1       2.589   7.195  18.948  0.00  0.00    +0.000 A 
ATOM     12  N   UNL     1       2.012   7.745  20.062  0.00  0.00    +0.000 NA
BRANCH  11  13
ATOM     13  S   UNL     1       3.454   5.642  19.163  0.00  0.00    +0.000 S 
BRANCH  13  14
ATOM     14  C   UNL     1       3.022   4.591  17.670  0.00  0.00    +0.000 C 
ATOM     15  C   UNL     1       3.805   3.275  17.560  0.00  0.00    +0.000 C 
ATOM     16  C   UNL     1       3.541   2.318  18.723  0.00  0.00    +0.000 C 
ATOM     17  C   UNL     1       2.056   2.038  18.954  0.00  0.00    +0.000 C 
ATOM     18  C   UNL     1       1.160   3.272  18.873  0.00  0.00    +0.000 C 
ATOM     19  C   UNL     1       1.522   4.203  17.711  0.00  0.00    +0.000 C 
ENDBRANCH  13  14
ENDBRANCH  11  13
ENDBRANCH   6   7
BRANCH   4  20
ATOM     20  S   UNL     1      -1.929  12.475  21.719  0.00  0.00    +0.000 S 
BRANCH  20  21
ATOM     21  C   UNL     1      -2.359  13.188  23.399  0.00  0.00    +0.000 C 
ATOM     22  C   UNL     1      -2.531  14.715  23.428  0.00  0.00    +0.000 C 
ATOM     23  C   UNL     1      -3.689  15.210  22.561  0.00  0.00    +0.000 C 
ATOM     24  C   UNL     1      -5.015  14.515  22.866  0.00  0.00    +0.000 C 
ATOM     25  C   UNL     1      -4.905  13.002  23.054  0.00  0.00    +0.000 C 
ATOM     26  C   UNL     1      -3.698  12.590  23.903  0.00  0.00    +0.000 C 
ENDBRANCH  20  21
ENDBRANCH   4  20
TORSDOF 5
ENDMDL
MODEL 2
REMARK VINA RESULT:      -8.0      0.085     10.051
REMARK  Name = 
REMARK  5 active torsions:
REMARK  status: ('A' for Active; 'I' for Inactive)
REMARK    1  A    between atoms: C_4  and  S_5
REMARK    2  A    between atoms: S_5  and  C_6
REMARK    3  A    between atoms: C_13  and  C_14
REMARK    4  A    between atoms: C_18  and  S_19
REMARK    5  A    between atoms: S_19  and  C_20
REMARK                            x       y       z     vdW  Elec       q    Type
REMARK                         _______ _______ _______ _____ _____    ______ ____
ROOT
ATOM      1  C   UNL     1       1.408   9.586  18.665  0.00  0.00    +0.000 A 
ATOM      2  N   UNL     1       2.005   9.015  17.594  0.00  0.00    +0.000 NA
ATOM      3  N   UNL     1       2.616   7.803  17.742  0.00  0.00    +0.000 NA
ATOM      4  C   UNL     1       2.616   7.211  18.949  0.00  0.00    +0.000 A 
ATOM      5  N   UNL     1       2.014   7.756  20.048  0.00  0.00    +0.000 NA
ATOM      6  C   UNL     1       1.395   8.970  19.900  0.00  0.00    +0.000 A 
ENDROOT
BRANCH   6   7
ATOM      7  C   UNL     1       0.717   9.579  21.092  0.00  0.00    +0.000 A 
ATOM      8  C   UNL     1       1.018   9.178  22.378  0.00  0.00    +0.000 A 
ATOM      9  N   UNL     1       0.390   9.714  23.451  0.00  0.00    +0.000 NA
ATOM     10  N   UNL     1      -0.558  10.673  23.253  0.00  0.00    +0.000 NA
ATOM     11  C   UNL     1      -0.840  11.072  22.000  0.00  0.00    +0.000 A 
ATOM     12  N   UNL     1      -0.230  10.546  20.892  0.00  0.00    +0.000 NA
BRANCH  11  13
ATOM     13  S   UNL     1      -2.049  12.363  21.726  0.00  0.00    +0.000 S 
BRANCH  13  14
ATOM     14  C   UNL     1      -2.338  13.172  23.393  0.00  0.00    +0.000 C 
ATOM     15  C   UNL     1      -2.455  14.703  23.356  0.00  0.00    +0.000 C 
ATOM     16  C   UNL     1      -3.650  15.196  22.540  0.00  0.00    +0.000 C 
ATOM     17  C   UNL     1      -4.978  14.571  22.968  0.00  0.00    +0.000 C 
ATOM     18  C   UNL     1      -4.911  13.069  23.235  0.00  0.00    +0.000 C 
ATOM     19  C   UNL     1      -3.659  12.651  24.014  0.00  0.00    +0.000 C 
ENDBRANCH  13  14
ENDBRANCH  11  13
ENDBRANCH   6   7
BRANCH   4  20
ATOM     20  S   UNL     1       3.443   5.639  19.177  0.00  0.00    +0.000 S 
BRANCH  20  21
ATOM     21  C   UNL     1       2.984   4.570  17.707  0.00  0.00    +0.000 C 
ATOM     22  C   UNL     1       3.756   3.245  17.606  0.00  0.00    +0.000 C 
ATOM     23  C   UNL     1       3.500   2.303  18.782  0.00  0.00    +0.000 C 
ATOM     24  C   UNL     1       2.016   2.041  19.037  0.00  0.00    +0.000 C 
ATOM     25  C   UNL     1       1.133   3.287  18.958  0.00  0.00    +0.000 C 
ATOM     26  C   UNL     1       1.481   4.194  17.774  0.00  0.00    +0.000 C 
ENDBRANCH  20  21
ENDBRANCH   4  20
TORSDOF 5
ENDMDL
MODEL 3
REMARK VINA RESULT:      -8.0      1.094      9.813
REMARK  Name = 
REMARK  5 active torsions:
REMARK  status: ('A' for Active; 'I' for Inactive)
REMARK    1  A    between atoms: C_4  and  S_5
REMARK    2  A    between atoms: S_5  and  C_6
REMARK    3  A    between atoms: C_13  and  C_14
REMARK    4  A    between atoms: C_18  and  S_19
REMARK    5  A    between atoms: S_19  and  C_20
REMARK                            x       y       z     vdW  Elec       q    Type
REMARK                         _______ _______ _______ _____ _____    ______ ____
ROOT
ATOM      1  C   UNL     1       1.206   9.758  18.674  0.00  0.00    +0.000 A 
ATOM      2  N   UNL     1       1.757   9.184  17.580  0.00  0.00    +0.000 NA
ATOM      3  N   UNL     1       2.377   7.974  17.706  0.00  0.00    +0.000 NA
ATOM      4  C   UNL     1       2.433   7.388  18.914  0.00  0.00    +0.000 A 
ATOM      5  N   UNL     1       1.879   7.937  20.036  0.00  0.00    +0.000 NA
ATOM      6  C   UNL     1       1.251   9.148  19.910  0.00  0.00    +0.000 A 
ENDROOT
BRANCH   6   7
ATOM      7  C   UNL     1       0.625   9.760  21.128  0.00  0.00    +0.000 A 
ATOM      8  C   UNL     1       0.805   9.219  22.386  0.00  0.00    +0.000 A 
ATOM      9  N   UNL     1       0.223   9.760  23.480  0.00  0.00    +0.000 NA
ATOM     10  N   UNL     1      -0.558  10.869  23.335  0.00  0.00    +0.000 NA
ATOM     11  C   UNL     1      -0.722  11.404  22.112  0.00  0.00    +0.000 A 
ATOM     12  N   UNL     1      -0.153  10.877  20.983  0.00  0.00    +0.000 NA
BRANCH  11  13
ATOM     13  S   UNL     1      -1.705  12.886  21.912  0.00  0.00    +0.000 S 
BRANCH  13  14
ATOM     14  C   UNL     1      -3.446  12.437  22.445  0.00  0.00    +0.000 C 
ATOM     15  C   UNL     1      -3.699  12.518  23.958  0.00  0.00    +0.000 C 
ATOM     16  C   UNL     1      -3.537  13.931  24.520  0.00  0.00    +0.000 C 
ATOM     17  C   UNL     1      -4.373  14.977  23.783  0.00  0.00    +0.000 C 
ATOM     18  C   UNL     1      -4.352  14.844  22.261  0.00  0.00    +0.000 C 
ATOM     19  C   UNL     1      -4.469  13.393  21.782  0.00  0.00    +0.000 C 
ENDBRANCH  13  14
ENDBRANCH  11  13
ENDBRANCH   6   7
BRANCH   4  20
ATOM     20  S   UNL     1       3.274   5.819  19.113  0.00  0.00    +0.000 S 
BRANCH  20  21
ATOM     21  C   UNL     1       1.962   4.485  18.992  0.00  0.00    +0.000 C 
ATOM     22  C   UNL     1       2.497   3.078  18.684  0.00  0.00    +0.000 C 
ATOM     23  C   UNL     1       3.417   2.529  19.775  0.00  0.00    +0.000 C 
ATOM     24  C   UNL     1       2.796   2.573  21.170  0.00  0.00    +0.000 C 
ATOM     25  C   UNL     1       2.061   3.875  21.492  0.00  0.00    +0.000 C 
ATOM     26  C   UNL     1       1.193   4.375  20.333  0.00  0.00    +0.000 C 
ENDBRANCH  20  21
ENDBRANCH   4  20
TORSDOF 5
ENDMDL
MODEL 4
REMARK VINA RESULT:      -8.0      0.833      9.997
REMARK  Name = 
REMARK  5 active torsions:
REMARK  status: ('A' for Active; 'I' for Inactive)
REMARK    1  A    between atoms: C_4  and  S_5
REMARK    2  A    between atoms: S_5  and  C_6
REMARK    3  A    between atoms: C_13  and  C_14
REMARK    4  A    between atoms: C_18  and  S_19
REMARK    5  A    between atoms: S_19  and  C_20
REMARK                            x       y       z     vdW  Elec       q    Type
REMARK                         _______ _______ _______ _____ _____    ______ ____
ROOT
ATOM      1  C   UNL     1       1.299   9.826  18.691  0.00  0.00    +0.000 A 
ATOM      2  N   UNL     1       1.868   9.267  17.599  0.00  0.00    +0.000 NA
ATOM      3  N   UNL     1       2.454   8.038  17.711  0.00  0.00    +0.000 NA
ATOM      4  C   UNL     1       2.457   7.420  18.903  0.00  0.00    +0.000 A 
ATOM      5  N   UNL     1       1.883   7.952  20.023  0.00  0.00    +0.000 NA
ATOM      6  C   UNL     1       1.289   9.182  19.911  0.00  0.00    +0.000 A 
ENDROOT
BRANCH   6   7
ATOM      7  C   UNL     1       0.642   9.778  21.126  0.00  0.00    +0.000 A 
ATOM      8  C   UNL     1       0.827   9.240  22.384  0.00  0.00    +0.000 A 
ATOM      9  N   UNL     1       0.226   9.766  23.475  0.00  0.00    +0.000 NA
ATOM     10  N   UNL     1      -0.580  10.855  23.327  0.00  0.00    +0.000 NA
ATOM     11  C   UNL     1      -0.750  11.388  22.103  0.00  0.00    +0.000 A 
ATOM     12  N   UNL     1      -0.162  10.876  20.977  0.00  0.00    +0.000 NA
BRANCH  11  13
ATOM     13  S   UNL     1      -1.767  12.846  21.898  0.00  0.00    +0.000 S 
BRANCH  13  14
ATOM     14  C   UNL     1      -3.480  12.380  22.503  0.00  0.00    +0.000 C 
ATOM     15  C   UNL     1      -3.701  12.555  24.013  0.00  0.00    +0.000 C 
ATOM     16  C   UNL     1      -3.573  14.006  24.476  0.00  0.00    +0.000 C 
ATOM     17  C   UNL     1      -4.459  14.974  23.691  0.00  0.00    +0.000 C 
ATOM     18  C   UNL     1      -4.468  14.741  22.182  0.00  0.00    +0.000 C 
ATOM     19  C   UNL     1      -4.548  13.258  21.803  0.00  0.00    +0.000 C 
ENDBRANCH  13  14
ENDBRANCH  11  13
ENDBRANCH   6   7
BRANCH   4  20
ATOM     20  S   UNL     1       3.252   5.825  19.084  0.00  0.00    +0.000 S 
BRANCH  20  21
ATOM     21  C   UNL     1       1.883   4.559  19.278  0.00  0.00    +0.000 C 
ATOM     22  C   UNL     1       1.459   3.860  17.977  0.00  0.00    +0.000 C 
ATOM     23  C   UNL     1       2.577   3.033  17.343  0.00  0.00    +0.000 C 
ATOM     24  C   UNL     1       3.211   2.031  18.307  0.00  0.00    +0.000 C 
ATOM     25  C   UNL     1       3.486   2.588  19.704  0.00  0.00    +0.000 C 
ATOM     26  C   UNL     1       2.332   3.436  20.248  0.00  0.00    +0.000 C 
ENDBRANCH  20  21
ENDBRANCH   4  20
TORSDOF 5
ENDMDL
MODEL 5
REMARK VINA RESULT:      -8.0      1.087      1.453
REMARK  Name = 
REMARK  5 active torsions:
REMARK  status: ('A' for Active; 'I' for Inactive)
REMARK    1  A    between atoms: C_4  and  S_5
REMARK    2  A    between atoms: S_5  and  C_6
REMARK    3  A    between atoms: C_13  and  C_14
REMARK    4  A    between atoms: C_18  and  S_19
REMARK    5  A    between atoms: S_19  and  C_20
REMARK                            x       y       z     vdW  Elec       q    Type
REMARK                         _______ _______ _______ _____ _____    ______ ____
ROOT
ATOM      1  C   UNL     1       0.793   9.243  22.398  0.00  0.00    +0.000 A 
ATOM      2  N   UNL     1       0.190   9.787  23.481  0.00  0.00    +0.000 NA
ATOM      3  N   UNL     1      -0.595  10.892  23.318  0.00  0.00    +0.000 NA
ATOM      4  C   UNL     1      -0.743  11.417  22.090  0.00  0.00    +0.000 A 
ATOM      5  N   UNL     1      -0.156  10.886  20.975  0.00  0.00    +0.000 NA
ATOM      6  C   UNL     1       0.627   9.773  21.136  0.00  0.00    +0.000 A 
ENDROOT
BRANCH   6   7
ATOM      7  C   UNL     1       1.269   9.168  19.922  0.00  0.00    +0.000 A 
ATOM      8  C   UNL     1       1.258   9.811  18.700  0.00  0.00    +0.000 A 
ATOM      9  N   UNL     1       1.819   9.254  17.602  0.00  0.00    +0.000 NA
ATOM     10  N   UNL     1       2.411   8.030  17.710  0.00  0.00    +0.000 NA
ATOM     11  C   UNL     1       2.432   7.411  18.903  0.00  0.00    +0.000 A 
ATOM     12  N   UNL     1       1.868   7.943  20.032  0.00  0.00    +0.000 NA
BRANCH  11  13
ATOM     13  S   UNL     1       3.246   5.825  19.070  0.00  0.00    +0.000 S 
BRANCH  13  14
ATOM     14  C   UNL     1       1.893   4.530  18.986  0.00  0.00    +0.000 C 
ATOM     15  C   UNL     1       2.373   3.117  18.623  0.00  0.00    +0.000 C 
ATOM     16  C   UNL     1       3.332   2.524  19.654  0.00  0.00    +0.000 C 
ATOM     17  C   UNL     1       2.782   2.549  21.081  0.00  0.00    +0.000 C 
ATOM     18  C   UNL     1       2.091   3.855  21.468  0.00  0.00    +0.000 C 
ATOM     19  C   UNL     1       1.187   4.409  20.361  0.00  0.00    +0.000 C 
ENDBRANCH  13  14
ENDBRANCH  11  13
ENDBRANCH   6   7
BRANCH   4  20
ATOM     20  S   UNL     1      -1.736  12.889  21.856  0.00  0.00    +0.000 S 
BRANCH  20  21
ATOM     21  C   UNL     1      -3.469  12.467  22.436  0.00  0.00    +0.000 C 
ATOM     22  C   UNL     1      -3.682  12.557  23.955  0.00  0.00    +0.000 C 
ATOM     23  C   UNL     1      -3.490  13.968  24.510  0.00  0.00    +0.000 C 
ATOM     24  C   UNL     1      -4.327  15.023  23.788  0.00  0.00    +0.000 C 
ATOM     25  C   UNL     1      -4.335  14.887  22.265  0.00  0.00    +0.000 C 
ATOM     26  C   UNL     1      -4.494  13.438  21.794  0.00  0.00    +0.000 C 
ENDBRANCH  20  21
ENDBRANCH   4  20
TORSDOF 5
ENDMDL
MODEL 6
REMARK VINA RESULT:      -7.7      1.635      9.746
REMARK  Name = 
REMARK  5 active torsions:
REMARK  status: ('A' for Active; 'I' for Inactive)
REMARK    1  A    between atoms: C_4  and  S_5
REMARK    2  A    between atoms: S_5  and  C_6
REMARK    3  A    between atoms: C_13  and  C_14
REMARK    4  A    between atoms: C_18  and  S_19
REMARK    5  A    between atoms: S_19  and  C_20
REMARK                            x       y       z     vdW  Elec       q    Type
REMARK                         _______ _______ _______ _____ _____    ______ ____
ROOT
ATOM      1  C   UNL     1       1.376   9.576  18.667  0.00  0.00    +0.000 A 
ATOM      2  N   UNL     1       1.950   8.982  17.596  0.00  0.00    +0.000 NA
ATOM      3  N   UNL     1       2.559   7.770  17.757  0.00  0.00    +0.000 NA
ATOM      4  C   UNL     1       2.581   7.203  18.975  0.00  0.00    +0.000 A 
ATOM      5  N   UNL     1       2.002   7.772  20.074  0.00  0.00    +0.000 NA
ATOM      6  C   UNL     1       1.384   8.984  19.914  0.00  0.00    +0.000 A 
ENDROOT
BRANCH   6   7
ATOM      7  C   UNL     1       0.732   9.619  21.106  0.00  0.00    +0.000 A 
ATOM      8  C   UNL     1       0.926   9.133  22.383  0.00  0.00    +0.000 A 
ATOM      9  N   UNL     1       0.320   9.693  23.455  0.00  0.00    +0.000 NA
ATOM     10  N   UNL     1      -0.500  10.766  23.265  0.00  0.00    +0.000 NA
ATOM     11  C   UNL     1      -0.678  11.248  22.023  0.00  0.00    +0.000 A 
ATOM     12  N   UNL     1      -0.086  10.700  20.916  0.00  0.00    +0.000 NA
BRANCH  11  13
ATOM     13  S   UNL     1      -1.714  12.685  21.763  0.00  0.00    +0.000 S 
BRANCH  13  14
ATOM     14  C   UNL     1      -0.680  14.171  22.251  0.00  0.00    +0.000 C 
ATOM     15  C   UNL     1       0.740  14.191  21.665  0.00  0.00    +0.000 C 
ATOM     16  C   UNL     1       0.759  14.263  20.138  0.00  0.00    +0.000 C 
ATOM     17  C   UNL     1      -0.067  15.421  19.574  0.00  0.00    +0.000 C 
ATOM     18  C   UNL     1      -1.424  15.614  20.247  0.00  0.00    +0.000 C 
ATOM     19  C   UNL     1      -1.366  15.476  21.772  0.00  0.00    +0.000 C 
ENDBRANCH  13  14
ENDBRANCH  11  13
ENDBRANCH   6   7
BRANCH   4  20
ATOM     20  S   UNL     1       3.407   5.632  19.219  0.00  0.00    +0.000 S 
BRANCH  20  21
ATOM     21  C   UNL     1       3.021   4.581  17.715  0.00  0.00    +0.000 C 
ATOM     22  C   UNL     1       3.811   3.266  17.626  0.00  0.00    +0.000 C 
ATOM     23  C   UNL     1       3.517   2.304  18.777  0.00  0.00    +0.000 C 
ATOM     24  C   UNL     1       2.027   2.022  18.966  0.00  0.00    +0.000 C 
ATOM     25  C   UNL     1       1.135   3.260  18.869  0.00  0.00    +0.000 C 
ATOM     26  C   UNL     1       1.521   4.188  17.714  0.00  0.00    +0.000 C 
ENDBRANCH  20  21
ENDBRANCH   4  20
TORSDOF 5
ENDMDL
MODEL 7
REMARK VINA RESULT:      -7.6      1.868      9.759
REMARK  Name = 
REMARK  5 active torsions:
REMARK  status: ('A' for Active; 'I' for Inactive)
REMARK    1  A    between atoms: C_4  and  S_5
REMARK    2  A    between atoms: S_5  and  C_6
REMARK    3  A    between atoms: C_13  and  C_14
REMARK    4  A    between atoms: C_18  and  S_19
REMARK    5  A    between atoms: S_19  and  C_20
REMARK                            x       y       z     vdW  Elec       q    Type
REMARK                         _______ _______ _______ _____ _____    ______ ____
ROOT
ATOM      1  C   UNL     1       1.333   9.568  18.697  0.00  0.00    +0.000 A 
ATOM      2  N   UNL     1       1.905   8.923  17.654  0.00  0.00    +0.000 NA
ATOM      3  N   UNL     1       2.486   7.705  17.864  0.00  0.00    +0.000 NA
ATOM      4  C   UNL     1       2.483   7.182  19.101  0.00  0.00    +0.000 A 
ATOM      5  N   UNL     1       1.906   7.803  20.174  0.00  0.00    +0.000 NA
ATOM      6  C   UNL     1       1.317   9.021  19.963  0.00  0.00    +0.000 A 
ENDROOT
BRANCH   6   7
ATOM      7  C   UNL     1       0.666   9.713  21.125  0.00  0.00    +0.000 A 
ATOM      8  C   UNL     1       0.770   9.221  22.411  0.00  0.00    +0.000 A 
ATOM      9  N   UNL     1       0.164   9.834  23.454  0.00  0.00    +0.000 NA
ATOM     10  N   UNL     1      -0.561  10.966  23.227  0.00  0.00    +0.000 NA
ATOM     11  C   UNL     1      -0.650  11.451  21.976  0.00  0.00    +0.000 A 
ATOM     12  N   UNL     1      -0.057  10.852  20.897  0.00  0.00    +0.000 NA
BRANCH  11  13
ATOM     13  S   UNL     1      -1.560  12.962  21.669  0.00  0.00    +0.000 S 
BRANCH  13  14
ATOM     14  C   UNL     1      -0.379  14.370  22.041  0.00  0.00    +0.000 C 
ATOM     15  C   UNL     1       0.985  14.269  21.343  0.00  0.00    +0.000 C 
ATOM     16  C   UNL     1       0.887  14.316  19.818  0.00  0.00    +0.000 C 
ATOM     17  C   UNL     1       0.110  15.526  19.297  0.00  0.00    +0.000 C 
ATOM     18  C   UNL     1      -1.170  15.835  20.071  0.00  0.00    +0.000 C 
ATOM     19  C   UNL     1      -1.000  15.717  21.589  0.00  0.00    +0.000 C 
ENDBRANCH  13  14
ENDBRANCH  11  13
ENDBRANCH   6   7
BRANCH   4  20
ATOM     20  S   UNL     1       3.273   5.604  19.411  0.00  0.00    +0.000 S 
BRANCH  20  21
ATOM     21  C   UNL     1       1.915   4.310  19.395  0.00  0.00    +0.000 C 
ATOM     22  C   UNL     1       1.493   3.834  17.997  0.00  0.00    +0.000 C 
ATOM     23  C   UNL     1       2.615   3.134  17.231  0.00  0.00    +0.000 C 
ATOM     24  C   UNL     1       3.262   1.992  18.013  0.00  0.00    +0.000 C 
ATOM     25  C   UNL     1       3.538   2.312  19.483  0.00  0.00    +0.000 C 
ATOM     26  C   UNL     1       2.379   3.046  20.164  0.00  0.00    +0.000 C 
ENDBRANCH  20  21
ENDBRANCH   4  20
TORSDOF 5
ENDMDL
MODEL 8
REMARK VINA RESULT:      -7.5      1.039      9.819
REMARK  Name = 
REMARK  5 active torsions:
REMARK  status: ('A' for Active; 'I' for Inactive)
REMARK    1  A    between atoms: C_4  and  S_5
REMARK    2  A    between atoms: S_5  and  C_6
REMARK    3  A    between atoms: C_13  and  C_14
REMARK    4  A    between atoms: C_18  and  S_19
REMARK    5  A    between atoms: S_19  and  C_20
REMARK                            x       y       z     vdW  Elec       q    Type
REMARK                         _______ _______ _______ _____ _____    ______ ____
ROOT
ATOM      1  C   UNL     1       1.602  10.383  18.736  0.00  0.00    +0.000 A 
ATOM      2  N   UNL     1       2.175   9.984  17.577  0.00  0.00    +0.000 NA
ATOM      3  N   UNL     1       2.451   8.659  17.395  0.00  0.00    +0.000 NA
ATOM      4  C   UNL     1       2.156   7.787  18.374  0.00  0.00    +0.000 A 
ATOM      5  N   UNL     1       1.569   8.157  19.552  0.00  0.00    +0.000 NA
ATOM      6  C   UNL     1       1.285   9.485  19.733  0.00  0.00    +0.000 A 
ENDROOT
BRANCH   6   7
ATOM      7  C   UNL     1       0.629   9.908  21.014  0.00  0.00    +0.000 A 
ATOM      8  C   UNL     1       1.001   9.372  22.231  0.00  0.00    +0.000 A 
ATOM      9  N   UNL     1       0.394   9.740  23.382  0.00  0.00    +0.000 NA
ATOM     10  N   UNL     1      -0.607  10.665  23.337  0.00  0.00    +0.000 NA
ATOM     11  C   UNL     1      -0.959  11.197  22.153  0.00  0.00    +0.000 A 
ATOM     12  N   UNL     1      -0.371  10.841  20.968  0.00  0.00    +0.000 NA
BRANCH  11  13
ATOM     13  S   UNL     1      -2.239  12.447  22.083  0.00  0.00    +0.000 S 
BRANCH  13  14
ATOM     14  C   UNL     1      -2.584  12.944  23.858  0.00  0.00    +0.000 C 
ATOM     15  C   UNL     1      -2.552  14.457  24.122  0.00  0.00    +0.000 C 
ATOM     16  C   UNL     1      -3.625  15.225  23.351  0.00  0.00    +0.000 C 
ATOM     17  C   UNL     1      -5.036  14.677  23.564  0.00  0.00    +0.000 C 
ATOM     18  C   UNL     1      -5.133  13.153  23.528  0.00  0.00    +0.000 C 
ATOM     19  C   UNL     1      -3.994  12.459  24.282  0.00  0.00    +0.000 C 
ENDBRANCH  13  14
ENDBRANCH  11  13
ENDBRANCH   6   7
BRANCH   4  20
ATOM     20  S   UNL     1       2.543   6.049  18.175  0.00  0.00    +0.000 S 
BRANCH  20  21
ATOM     21  C   UNL     1       3.023   5.407  19.870  0.00  0.00    +0.000 C 
ATOM     22  C   UNL     1       1.853   4.891  20.721  0.00  0.00    +0.000 C 
ATOM     23  C   UNL     1       1.144   3.684  20.107  0.00  0.00    +0.000 C 
ATOM     24  C   UNL     1       2.094   2.540  19.751  0.00  0.00    +0.000 C 
ATOM     25  C   UNL     1       3.390   2.985  19.074  0.00  0.00    +0.000 C 
ATOM     26  C   UNL     1       4.013   4.223  19.727  0.00  0.00    +0.000 C 
ENDBRANCH  20  21
ENDBRANCH   4  20
TORSDOF 5
ENDMDL
MODEL 9
REMARK VINA RESULT:      -7.4      1.112      1.805
REMARK  Name = 
REMARK  5 active torsions:
REMARK  status: ('A' for Active; 'I' for Inactive)
REMARK    1  A    between atoms: C_4  and  S_5
REMARK    2  A    between atoms: S_5  and  C_6
REMARK    3  A    between atoms: C_13  and  C_14
REMARK    4  A    between atoms: C_18  and  S_19
REMARK    5  A    between atoms: S_19  and  C_20
REMARK                            x       y       z     vdW  Elec       q    Type
REMARK                         _______ _______ _______ _____ _____    ______ ____
ROOT
ATOM      1  C   UNL     1       0.303   9.330  22.377  0.00  0.00    +0.000 A 
ATOM      2  N   UNL     1      -0.290  10.022  23.377  0.00  0.00    +0.000 NA
ATOM      3  N   UNL     1      -0.606  11.336  23.178  0.00  0.00    +0.000 NA
ATOM      4  C   UNL     1      -0.312  11.910  21.999  0.00  0.00    +0.000 A 
ATOM      5  N   UNL     1       0.278  11.236  20.967  0.00  0.00    +0.000 NA
ATOM      6  C   UNL     1       0.590   9.917  21.162  0.00  0.00    +0.000 A 
ENDROOT
BRANCH   6   7
ATOM      7  C   UNL     1       1.226   9.156  20.036  0.00  0.00    +0.000 A 
ATOM      8  C   UNL     1       1.253   9.656  18.749  0.00  0.00    +0.000 A 
ATOM      9  N   UNL     1       1.809   8.960  17.731  0.00  0.00    +0.000 NA
ATOM     10  N   UNL     1       2.356   7.737  17.985  0.00  0.00    +0.000 NA
ATOM     11  C   UNL     1       2.340   7.257  19.242  0.00  0.00    +0.000 A 
ATOM     12  N   UNL     1       1.780   7.932  20.293  0.00  0.00    +0.000 NA
BRANCH  11  13
ATOM     13  S   UNL     1       3.096   5.675  19.600  0.00  0.00    +0.000 S 
BRANCH  13  14
ATOM     14  C   UNL     1       1.751   4.388  19.372  0.00  0.00    +0.000 C 
ATOM     15  C   UNL     1       1.465   4.005  17.913  0.00  0.00    +0.000 C 
ATOM     16  C   UNL     1       2.661   3.359  17.214  0.00  0.00    +0.000 C 
ATOM     17  C   UNL     1       3.236   2.163  17.975  0.00  0.00    +0.000 C 
ATOM     18  C   UNL     1       3.362   2.376  19.482  0.00  0.00    +0.000 C 
ATOM     19  C   UNL     1       2.144   3.075  20.097  0.00  0.00    +0.000 C 
ENDBRANCH  13  14
ENDBRANCH  11  13
ENDBRANCH   6   7
BRANCH   4  20
ATOM     20  S   UNL     1      -0.682  13.641  21.727  0.00  0.00    +0.000 S 
BRANCH  20  21
ATOM     21  C   UNL     1      -2.295  13.705  20.774  0.00  0.00    +0.000 C 
ATOM     22  C   UNL     1      -3.370  12.719  21.257  0.00  0.00    +0.000 C 
ATOM     23  C   UNL     1      -3.831  12.982  22.691  0.00  0.00    +0.000 C 
ATOM     24  C   UNL     1      -4.279  14.424  22.929  0.00  0.00    +0.000 C 
ATOM     25  C   UNL     1      -3.366  15.479  22.304  0.00  0.00    +0.000 C 
ATOM     26  C   UNL     1      -2.920  15.119  20.884  0.00  0.00    +0.000 C 
ENDBRANCH  20  21
ENDBRANCH   4  20
TORSDOF 5
ENDMDL
