MODEL 1
REMARK VINA RESULT:      -6.1      0.000      0.000
REMARK  Name = 
REMARK  9 active torsions:
REMARK  status: ('A' for Active; 'I' for Inactive)
REMARK    1  A    between atoms: C_1  and  C_2
REMARK    2  A    between atoms: C_2  and  N_3
REMARK    3  A    between atoms: C_4  and  C_6
REMARK    4  A    between atoms: C_6  and  O_7
REMARK    5  A    between atoms: O_7  and  C_8
REMARK    6  A    between atoms: C_8  and  C_10
REMARK    7  A    between atoms: C_10  and  C_11
REMARK    8  A    between atoms: C_11  and  C_12
REMARK    9  A    between atoms: C_12  and  C_14
REMARK                            x       y       z     vdW  Elec       q    Type
REMARK                         _______ _______ _______ _____ _____    ______ ____
ROOT
ATOM      1  C   UNL     1       5.119   5.896  18.266  0.00  0.00    +0.000 C 
ATOM      2  O   UNL     1       5.258   5.359  19.356  0.00  0.00    +0.000 OA
ENDROOT
BRANCH   1   3
ATOM      3  O   UNL     1       5.930   6.854  17.747  0.00  0.00    +0.000 OA
BRANCH   3   4
ATOM      4  C   UNL     1       7.282   6.452  17.524  0.00  0.00    +0.000 C 
BRANCH   4   6
ATOM      5  N   UNL     1       7.010   5.565  15.240  0.00  0.00    +0.000 N 
ATOM      6  C   UNL     1       7.474   5.313  16.514  0.00  0.00    +0.000 C 
ATOM      7  O   UNL     1       7.970   4.240  16.850  0.00  0.00    +0.000 OA
ATOM      8  H   UNL     1       6.750   6.511  14.979  0.00  0.00    +0.000 HD
BRANCH   5  10
ATOM      9  C   UNL     1       5.858   3.958  13.780  0.00  0.00    +0.000 C 
ATOM     10  C   UNL     1       7.169   4.627  14.154  0.00  0.00    +0.000 C 
ENDBRANCH   5  10
ENDBRANCH   4   6
ENDBRANCH   3   4
ENDBRANCH   1   3
BRANCH   1  11
ATOM     11  C   UNL     1       3.996   5.597  17.302  0.00  0.00    +0.000 C 
BRANCH  11  12
ATOM     12  C   UNL     1       2.635   5.891  17.930  0.00  0.00    +0.000 C 
BRANCH  12  13
ATOM     13  C   UNL     1       1.828   4.618  18.177  0.00  0.00    +0.000 C 
ATOM     14  O   UNL     1       1.075   4.195  17.297  0.00  0.00    +0.000 OA
BRANCH  13  15
ATOM     15  C   UNL     1       2.035   3.956  19.465  0.00  0.00    +0.000 A 
ATOM     16  C   UNL     1       1.502   4.247  20.709  0.00  0.00    +0.000 A 
ATOM     17  C   UNL     1       1.968   3.364  21.729  0.00  0.00    +0.000 A 
ATOM     18  C   UNL     1       2.839   2.422  21.235  0.00  0.00    +0.000 A 
ATOM     19  S   UNL     1       3.092   2.604  19.554  0.00  0.00    +0.000 S 
ENDBRANCH  13  15
ENDBRANCH  12  13
ENDBRANCH  11  12
ENDBRANCH   1  11
TORSDOF 8
ENDMDL
MODEL 2
REMARK VINA RESULT:      -6.1      2.000      3.003
REMARK  Name = 
REMARK  9 active torsions:
REMARK  status: ('A' for Active; 'I' for Inactive)
REMARK    1  A    between atoms: C_1  and  C_2
REMARK    2  A    between atoms: C_2  and  N_3
REMARK    3  A    between atoms: C_4  and  C_6
REMARK    4  A    between atoms: C_6  and  O_7
REMARK    5  A    between atoms: O_7  and  C_8
REMARK    6  A    between atoms: C_8  and  C_10
REMARK    7  A    between atoms: C_10  and  C_11
REMARK    8  A    between atoms: C_11  and  C_12
REMARK    9  A    between atoms: C_12  and  C_14
REMARK                            x       y       z     vdW  Elec       q    Type
REMARK                         _______ _______ _______ _____ _____    ______ ____
ROOT
ATOM      1  C   UNL     1       5.521   4.303  18.273  0.00  0.00    +0.000 C 
ATOM      2  O   UNL     1       5.444   3.748  19.360  0.00  0.00    +0.000 OA
ENDROOT
BRANCH   1   3
ATOM      3  O   UNL     1       6.661   4.485  17.556  0.00  0.00    +0.000 OA
BRANCH   3   4
ATOM      4  C   UNL     1       7.597   5.401  18.124  0.00  0.00    +0.000 C 
BRANCH   4   6
ATOM      5  N   UNL     1       8.136   7.795  18.357  0.00  0.00    +0.000 N 
ATOM      6  C   UNL     1       7.541   6.831  17.571  0.00  0.00    +0.000 C 
ATOM      7  O   UNL     1       6.959   7.086  16.519  0.00  0.00    +0.000 OA
ATOM      8  H   UNL     1       8.728   7.514  19.133  0.00  0.00    +0.000 HD
BRANCH   5  10
ATOM      9  C   UNL     1       9.092   9.992  18.904  0.00  0.00    +0.000 C 
ATOM     10  C   UNL     1       8.229   9.179  17.955  0.00  0.00    +0.000 C 
ENDBRANCH   5  10
ENDBRANCH   4   6
ENDBRANCH   3   4
ENDBRANCH   1   3
BRANCH   1  11
ATOM     11  C   UNL     1       4.350   4.907  17.536  0.00  0.00    +0.000 C 
BRANCH  11  12
ATOM     12  C   UNL     1       3.355   3.832  17.102  0.00  0.00    +0.000 C 
BRANCH  12  13
ATOM     13  C   UNL     1       2.001   3.989  17.789  0.00  0.00    +0.000 C 
ATOM     14  O   UNL     1       1.007   4.271  17.116  0.00  0.00    +0.000 OA
BRANCH  13  15
ATOM     15  C   UNL     1       1.972   3.760  19.233  0.00  0.00    +0.000 A 
ATOM     16  C   UNL     1       2.107   4.659  20.278  0.00  0.00    +0.000 A 
ATOM     17  C   UNL     1       2.037   4.032  21.558  0.00  0.00    +0.000 A 
ATOM     18  C   UNL     1       1.844   2.674  21.455  0.00  0.00    +0.000 A 
ATOM     19  S   UNL     1       1.754   2.163  19.826  0.00  0.00    +0.000 S 
ENDBRANCH  13  15
ENDBRANCH  12  13
ENDBRANCH  11  12
ENDBRANCH   1  11
TORSDOF 8
ENDMDL
MODEL 3
REMARK VINA RESULT:      -6.1      2.209      3.188
REMARK  Name = 
REMARK  9 active torsions:
REMARK  status: ('A' for Active; 'I' for Inactive)
REMARK    1  A    between atoms: C_1  and  C_2
REMARK    2  A    between atoms: C_2  and  N_3
REMARK    3  A    between atoms: C_4  and  C_6
REMARK    4  A    between atoms: C_6  and  O_7
REMARK    5  A    between atoms: O_7  and  C_8
REMARK    6  A    between atoms: C_8  and  C_10
REMARK    7  A    between atoms: C_10  and  C_11
REMARK    8  A    between atoms: C_11  and  C_12
REMARK    9  A    between atoms: C_12  and  C_14
REMARK                            x       y       z     vdW  Elec       q    Type
REMARK                         _______ _______ _______ _____ _____    ______ ____
ROOT
ATOM      1  C   UNL     1       7.642   4.982  17.583  0.00  0.00    +0.000 C 
ATOM      2  O   UNL     1       8.422   4.069  17.809  0.00  0.00    +0.000 OA
ENDROOT
BRANCH   1   3
ATOM      3  O   UNL     1       7.182   5.345  16.357  0.00  0.00    +0.000 OA
BRANCH   3   4
ATOM      4  C   UNL     1       6.547   4.305  15.613  0.00  0.00    +0.000 C 
BRANCH   4   6
ATOM      5  N   UNL     1       6.123   3.364  13.374  0.00  0.00    +0.000 N 
ATOM      6  C   UNL     1       6.729   4.374  14.091  0.00  0.00    +0.000 C 
ATOM      7  O   UNL     1       7.412   5.253  13.570  0.00  0.00    +0.000 OA
ATOM      8  H   UNL     1       5.453   2.756  13.834  0.00  0.00    +0.000 HD
BRANCH   5  10
ATOM      9  C   UNL     1       6.938   2.130  11.411  0.00  0.00    +0.000 C 
ATOM     10  C   UNL     1       6.142   3.314  11.931  0.00  0.00    +0.000 C 
ENDBRANCH   5  10
ENDBRANCH   4   6
ENDBRANCH   3   4
ENDBRANCH   1   3
BRANCH   1  11
ATOM     11  C   UNL     1       7.059   5.891  18.638  0.00  0.00    +0.000 C 
BRANCH  11  12
ATOM     12  C   UNL     1       5.837   5.256  19.300  0.00  0.00    +0.000 C 
BRANCH  12  13
ATOM     13  C   UNL     1       4.570   5.443  18.469  0.00  0.00    +0.000 C 
ATOM     14  O   UNL     1       4.346   6.533  17.937  0.00  0.00    +0.000 OA
BRANCH  13  15
ATOM     15  C   UNL     1       3.700   4.274  18.336  0.00  0.00    +0.000 A 
ATOM     16  C   UNL     1       4.023   2.948  18.103  0.00  0.00    +0.000 A 
ATOM     17  C   UNL     1       2.873   2.106  18.023  0.00  0.00    +0.000 A 
ATOM     18  C   UNL     1       1.706   2.812  18.202  0.00  0.00    +0.000 A 
ATOM     19  S   UNL     1       1.998   4.475  18.462  0.00  0.00    +0.000 S 
ENDBRANCH  13  15
ENDBRANCH  12  13
ENDBRANCH  11  12
ENDBRANCH   1  11
TORSDOF 8
ENDMDL
MODEL 4
REMARK VINA RESULT:      -6.1      1.820      2.245
REMARK  Name = 
REMARK  9 active torsions:
REMARK  status: ('A' for Active; 'I' for Inactive)
REMARK    1  A    between atoms: C_1  and  C_2
REMARK    2  A    between atoms: C_2  and  N_3
REMARK    3  A    between atoms: C_4  and  C_6
REMARK    4  A    between atoms: C_6  and  O_7
REMARK    5  A    between atoms: O_7  and  C_8
REMARK    6  A    between atoms: C_8  and  C_10
REMARK    7  A    between atoms: C_10  and  C_11
REMARK    8  A    between atoms: C_11  and  C_12
REMARK    9  A    between atoms: C_12  and  C_14
REMARK                            x       y       z     vdW  Elec       q    Type
REMARK                         _______ _______ _______ _____ _____    ______ ____
ROOT
ATOM      1  C   UNL     1       6.222   4.814  17.980  0.00  0.00    +0.000 C 
ATOM      2  O   UNL     1       7.218   4.412  18.564  0.00  0.00    +0.000 OA
ENDROOT
BRANCH   1   3
ATOM      3  O   UNL     1       6.015   4.758  16.638  0.00  0.00    +0.000 OA
BRANCH   3   4
ATOM      4  C   UNL     1       7.144   4.347  15.865  0.00  0.00    +0.000 C 
BRANCH   4   6
ATOM      5  N   UNL     1       6.395   3.474  13.685  0.00  0.00    +0.000 N 
ATOM      6  C   UNL     1       7.004   4.520  14.347  0.00  0.00    +0.000 C 
ATOM      7  O   UNL     1       7.452   5.510  13.773  0.00  0.00    +0.000 OA
ATOM      8  H   UNL     1       5.913   2.757  14.217  0.00  0.00    +0.000 HD
BRANCH   5  10
ATOM      9  C   UNL     1       4.658   3.271  11.958  0.00  0.00    +0.000 C 
ATOM     10  C   UNL     1       6.127   3.503  12.266  0.00  0.00    +0.000 C 
ENDBRANCH   5  10
ENDBRANCH   4   6
ENDBRANCH   3   4
ENDBRANCH   1   3
BRANCH   1  11
ATOM     11  C   UNL     1       5.041   5.470  18.653  0.00  0.00    +0.000 C 
BRANCH  11  12
ATOM     12  C   UNL     1       3.995   5.909  17.629  0.00  0.00    +0.000 C 
BRANCH  12  13
ATOM     13  C   UNL     1       2.640   6.189  18.274  0.00  0.00    +0.000 C 
ATOM     14  O   UNL     1       2.114   7.294  18.128  0.00  0.00    +0.000 OA
BRANCH  13  15
ATOM     15  C   UNL     1       2.031   5.084  19.014  0.00  0.00    +0.000 A 
ATOM     16  C   UNL     1       1.732   4.976  20.363  0.00  0.00    +0.000 A 
ATOM     17  C   UNL     1       1.151   3.717  20.700  0.00  0.00    +0.000 A 
ATOM     18  C   UNL     1       1.017   2.902  19.600  0.00  0.00    +0.000 A 
ATOM     19  S   UNL     1       1.592   3.651  18.175  0.00  0.00    +0.000 S 
ENDBRANCH  13  15
ENDBRANCH  12  13
ENDBRANCH  11  12
ENDBRANCH   1  11
TORSDOF 8
ENDMDL
MODEL 5
REMARK VINA RESULT:      -6.1      1.907      2.572
REMARK  Name = 
REMARK  9 active torsions:
REMARK  status: ('A' for Active; 'I' for Inactive)
REMARK    1  A    between atoms: C_1  and  C_2
REMARK    2  A    between atoms: C_2  and  N_3
REMARK    3  A    between atoms: C_4  and  C_6
REMARK    4  A    between atoms: C_6  and  O_7
REMARK    5  A    between atoms: O_7  and  C_8
REMARK    6  A    between atoms: C_8  and  C_10
REMARK    7  A    between atoms: C_10  and  C_11
REMARK    8  A    between atoms: C_11  and  C_12
REMARK    9  A    between atoms: C_12  and  C_14
REMARK                            x       y       z     vdW  Elec       q    Type
REMARK                         _______ _______ _______ _____ _____    ______ ____
ROOT
ATOM      1  C   UNL     1       7.317   4.699  17.897  0.00  0.00    +0.000 C 
ATOM      2  O   UNL     1       8.344   4.530  18.536  0.00  0.00    +0.000 OA
ENDROOT
BRANCH   1   3
ATOM      3  O   UNL     1       7.070   4.215  16.652  0.00  0.00    +0.000 OA
BRANCH   3   4
ATOM      4  C   UNL     1       6.658   5.189  15.692  0.00  0.00    +0.000 C 
BRANCH   4   6
ATOM      5  N   UNL     1       6.234   3.792  13.705  0.00  0.00    +0.000 N 
ATOM      6  C   UNL     1       6.960   4.842  14.228  0.00  0.00    +0.000 C 
ATOM      7  O   UNL     1       7.826   5.442  13.595  0.00  0.00    +0.000 OA
ATOM      8  H   UNL     1       5.434   3.433  14.215  0.00  0.00    +0.000 HD
BRANCH   5  10
ATOM      9  C   UNL     1       4.992   3.136  11.688  0.00  0.00    +0.000 C 
ATOM     10  C   UNL     1       6.349   3.377  12.326  0.00  0.00    +0.000 C 
ENDBRANCH   5  10
ENDBRANCH   4   6
ENDBRANCH   3   4
ENDBRANCH   1   3
BRANCH   1  11
ATOM     11  C   UNL     1       6.132   5.502  18.378  0.00  0.00    +0.000 C 
BRANCH  11  12
ATOM     12  C   UNL     1       5.254   4.682  19.322  0.00  0.00    +0.000 C 
BRANCH  12  13
ATOM     13  C   UNL     1       3.819   5.200  19.369  0.00  0.00    +0.000 C 
ATOM     14  O   UNL     1       3.610   6.415  19.364  0.00  0.00    +0.000 OA
BRANCH  13  15
ATOM     15  C   UNL     1       2.762   4.189  19.387  0.00  0.00    +0.000 A 
ATOM     16  C   UNL     1       1.540   4.193  20.039  0.00  0.00    +0.000 A 
ATOM     17  C   UNL     1       0.792   2.998  19.815  0.00  0.00    +0.000 A 
ATOM     18  C   UNL     1       1.460   2.119  18.995  0.00  0.00    +0.000 A 
ATOM     19  S   UNL     1       2.979   2.731  18.504  0.00  0.00    +0.000 S 
ENDBRANCH  13  15
ENDBRANCH  12  13
ENDBRANCH  11  12
ENDBRANCH   1  11
TORSDOF 8
ENDMDL
MODEL 6
REMARK VINA RESULT:      -6.0      1.751      2.337
REMARK  Name = 
REMARK  9 active torsions:
REMARK  status: ('A' for Active; 'I' for Inactive)
REMARK    1  A    between atoms: C_1  and  C_2
REMARK    2  A    between atoms: C_2  and  N_3
REMARK    3  A    between atoms: C_4  and  C_6
REMARK    4  A    between atoms: C_6  and  O_7
REMARK    5  A    between atoms: O_7  and  C_8
REMARK    6  A    between atoms: C_8  and  C_10
REMARK    7  A    between atoms: C_10  and  C_11
REMARK    8  A    between atoms: C_11  and  C_12
REMARK    9  A    between atoms: C_12  and  C_14
REMARK                            x       y       z     vdW  Elec       q    Type
REMARK                         _______ _______ _______ _____ _____    ______ ____
ROOT
ATOM      1  C   UNL     1       6.223   5.390  17.826  0.00  0.00    +0.000 C 
ATOM      2  O   UNL     1       6.369   4.633  18.774  0.00  0.00    +0.000 OA
ENDROOT
BRANCH   1   3
ATOM      3  O   UNL     1       6.945   5.365  16.675  0.00  0.00    +0.000 OA
BRANCH   3   4
ATOM      4  C   UNL     1       6.809   4.175  15.898  0.00  0.00    +0.000 C 
BRANCH   4   6
ATOM      5  N   UNL     1       6.253   3.355  13.640  0.00  0.00    +0.000 N 
ATOM      6  C   UNL     1       6.822   4.373  14.377  0.00  0.00    +0.000 C 
ATOM      7  O   UNL     1       7.350   5.359  13.866  0.00  0.00    +0.000 OA
ATOM      8  H   UNL     1       5.703   2.644  14.110  0.00  0.00    +0.000 HD
BRANCH   5  10
ATOM      9  C   UNL     1       4.675   3.339  11.756  0.00  0.00    +0.000 C 
ATOM     10  C   UNL     1       6.125   3.412  12.203  0.00  0.00    +0.000 C 
ENDBRANCH   5  10
ENDBRANCH   4   6
ENDBRANCH   3   4
ENDBRANCH   1   3
BRANCH   1  11
ATOM     11  C   UNL     1       5.214   6.511  17.772  0.00  0.00    +0.000 C 
BRANCH  11  12
ATOM     12  C   UNL     1       3.814   5.982  17.464  0.00  0.00    +0.000 C 
BRANCH  12  13
ATOM     13  C   UNL     1       2.961   5.841  18.722  0.00  0.00    +0.000 C 
ATOM     14  O   UNL     1       2.827   6.808  19.477  0.00  0.00    +0.000 OA
BRANCH  13  15
ATOM     15  C   UNL     1       2.322   4.543  18.934  0.00  0.00    +0.000 A 
ATOM     16  C   UNL     1       1.449   3.839  18.122  0.00  0.00    +0.000 A 
ATOM     17  C   UNL     1       1.032   2.603  18.701  0.00  0.00    +0.000 A 
ATOM     18  C   UNL     1       1.603   2.395  19.934  0.00  0.00    +0.000 A 
ATOM     19  S   UNL     1       2.629   3.684  20.390  0.00  0.00    +0.000 S 
ENDBRANCH  13  15
ENDBRANCH  12  13
ENDBRANCH  11  12
ENDBRANCH   1  11
TORSDOF 8
ENDMDL
MODEL 7
REMARK VINA RESULT:      -6.0      1.974      2.590
REMARK  Name = 
REMARK  9 active torsions:
REMARK  status: ('A' for Active; 'I' for Inactive)
REMARK    1  A    between atoms: C_1  and  C_2
REMARK    2  A    between atoms: C_2  and  N_3
REMARK    3  A    between atoms: C_4  and  C_6
REMARK    4  A    between atoms: C_6  and  O_7
REMARK    5  A    between atoms: O_7  and  C_8
REMARK    6  A    between atoms: C_8  and  C_10
REMARK    7  A    between atoms: C_10  and  C_11
REMARK    8  A    between atoms: C_11  and  C_12
REMARK    9  A    between atoms: C_12  and  C_14
REMARK                            x       y       z     vdW  Elec       q    Type
REMARK                         _______ _______ _______ _____ _____    ______ ____
ROOT
ATOM      1  C   UNL     1       5.193   5.512  16.153  0.00  0.00    +0.000 C 
ATOM      2  O   UNL     1       5.073   6.594  15.598  0.00  0.00    +0.000 OA
ENDROOT
BRANCH   1   3
ATOM      3  O   UNL     1       6.020   4.508  15.759  0.00  0.00    +0.000 OA
BRANCH   3   4
ATOM      4  C   UNL     1       7.081   4.900  14.888  0.00  0.00    +0.000 C 
BRANCH   4   6
ATOM      5  N   UNL     1       6.125   3.351  13.226  0.00  0.00    +0.000 N 
ATOM      6  C   UNL     1       6.944   4.442  13.431  0.00  0.00    +0.000 C 
ATOM      7  O   UNL     1       7.568   4.994  12.527  0.00  0.00    +0.000 OA
ATOM      8  H   UNL     1       5.522   3.030  13.976  0.00  0.00    +0.000 HD
BRANCH   5  10
ATOM      9  C   UNL     1       4.448   3.223  11.434  0.00  0.00    +0.000 C 
ATOM     10  C   UNL     1       5.836   2.831  11.910  0.00  0.00    +0.000 C 
ENDBRANCH   5  10
ENDBRANCH   4   6
ENDBRANCH   3   4
ENDBRANCH   1   3
BRANCH   1  11
ATOM     11  C   UNL     1       4.421   5.088  17.379  0.00  0.00    +0.000 C 
BRANCH  11  12
ATOM     12  C   UNL     1       3.570   3.851  17.096  0.00  0.00    +0.000 C 
BRANCH  12  13
ATOM     13  C   UNL     1       2.244   3.879  17.852  0.00  0.00    +0.000 C 
ATOM     14  O   UNL     1       1.211   4.194  17.257  0.00  0.00    +0.000 OA
BRANCH  13  15
ATOM     15  C   UNL     1       2.289   3.491  19.262  0.00  0.00    +0.000 A 
ATOM     16  C   UNL     1       3.192   2.682  19.932  0.00  0.00    +0.000 A 
ATOM     17  C   UNL     1       2.877   2.534  21.317  0.00  0.00    +0.000 A 
ATOM     18  C   UNL     1       1.748   3.238  21.665  0.00  0.00    +0.000 A 
ATOM     19  S   UNL     1       1.074   4.066  20.331  0.00  0.00    +0.000 S 
ENDBRANCH  13  15
ENDBRANCH  12  13
ENDBRANCH  11  12
ENDBRANCH   1  11
TORSDOF 8
ENDMDL
MODEL 8
REMARK VINA RESULT:      -6.0      2.006      2.625
REMARK  Name = 
REMARK  9 active torsions:
REMARK  status: ('A' for Active; 'I' for Inactive)
REMARK    1  A    between atoms: C_1  and  C_2
REMARK    2  A    between atoms: C_2  and  N_3
REMARK    3  A    between atoms: C_4  and  C_6
REMARK    4  A    between atoms: C_6  and  O_7
REMARK    5  A    between atoms: O_7  and  C_8
REMARK    6  A    between atoms: C_8  and  C_10
REMARK    7  A    between atoms: C_10  and  C_11
REMARK    8  A    between atoms: C_11  and  C_12
REMARK    9  A    between atoms: C_12  and  C_14
REMARK                            x       y       z     vdW  Elec       q    Type
REMARK                         _______ _______ _______ _____ _____    ______ ____
ROOT
ATOM      1  C   UNL     1       5.980   6.618  16.952  0.00  0.00    +0.000 C 
ATOM      2  O   UNL     1       6.866   7.109  17.636  0.00  0.00    +0.000 OA
ENDROOT
BRANCH   1   3
ATOM      3  O   UNL     1       6.087   6.285  15.638  0.00  0.00    +0.000 OA
BRANCH   3   4
ATOM      4  C   UNL     1       6.922   5.160  15.362  0.00  0.00    +0.000 C 
BRANCH   4   6
ATOM      5  N   UNL     1       6.218   3.620  13.570  0.00  0.00    +0.000 N 
ATOM      6  C   UNL     1       6.980   4.724  13.892  0.00  0.00    +0.000 C 
ATOM      7  O   UNL     1       7.698   5.306  13.082  0.00  0.00    +0.000 OA
ATOM      8  H   UNL     1       5.533   3.273  14.233  0.00  0.00    +0.000 HD
BRANCH   5  10
ATOM      9  C   UNL     1       4.703   3.270  11.667  0.00  0.00    +0.000 C 
ATOM     10  C   UNL     1       6.109   3.118  12.221  0.00  0.00    +0.000 C 
ENDBRANCH   5  10
ENDBRANCH   4   6
ENDBRANCH   3   4
ENDBRANCH   1   3
BRANCH   1  11
ATOM     11  C   UNL     1       4.588   6.308  17.446  0.00  0.00    +0.000 C 
BRANCH  11  12
ATOM     12  C   UNL     1       4.277   4.817  17.322  0.00  0.00    +0.000 C 
BRANCH  12  13
ATOM     13  C   UNL     1       4.396   4.091  18.660  0.00  0.00    +0.000 C 
ATOM     14  O   UNL     1       5.513   3.853  19.125  0.00  0.00    +0.000 OA
BRANCH  13  15
ATOM     15  C   UNL     1       3.141   3.744  19.327  0.00  0.00    +0.000 A 
ATOM     16  C   UNL     1       2.350   2.615  19.199  0.00  0.00    +0.000 A 
ATOM     17  C   UNL     1       1.183   2.664  20.021  0.00  0.00    +0.000 A 
ATOM     18  C   UNL     1       1.120   3.825  20.756  0.00  0.00    +0.000 A 
ATOM     19  S   UNL     1       2.456   4.847  20.453  0.00  0.00    +0.000 S 
ENDBRANCH  13  15
ENDBRANCH  12  13
ENDBRANCH  11  12
ENDBRANCH   1  11
TORSDOF 8
ENDMDL
MODEL 9
REMARK VINA RESULT:      -6.0      1.600      2.080
REMARK  Name = 
REMARK  9 active torsions:
REMARK  status: ('A' for Active; 'I' for Inactive)
REMARK    1  A    between atoms: C_1  and  C_2
REMARK    2  A    between atoms: C_2  and  N_3
REMARK    3  A    between atoms: C_4  and  C_6
REMARK    4  A    between atoms: C_6  and  O_7
REMARK    5  A    between atoms: O_7  and  C_8
REMARK    6  A    between atoms: C_8  and  C_10
REMARK    7  A    between atoms: C_10  and  C_11
REMARK    8  A    between atoms: C_11  and  C_12
REMARK    9  A    between atoms: C_12  and  C_14
REMARK                            x       y       z     vdW  Elec       q    Type
REMARK                         _______ _______ _______ _____ _____    ______ ____
ROOT
ATOM      1  C   UNL     1       6.310   6.564  17.247  0.00  0.00    +0.000 C 
ATOM      2  O   UNL     1       7.208   7.381  17.112  0.00  0.00    +0.000 OA
ENDROOT
BRANCH   1   3
ATOM      3  O   UNL     1       6.477   5.235  17.475  0.00  0.00    +0.000 OA
BRANCH   3   4
ATOM      4  C   UNL     1       7.352   4.567  16.565  0.00  0.00    +0.000 C 
BRANCH   4   6
ATOM      5  N   UNL     1       5.935   3.982  14.634  0.00  0.00    +0.000 N 
ATOM      6  C   UNL     1       7.007   4.728  15.079  0.00  0.00    +0.000 C 
ATOM      7  O   UNL     1       7.682   5.442  14.341  0.00  0.00    +0.000 OA
ATOM      8  H   UNL     1       5.325   3.530  15.307  0.00  0.00    +0.000 HD
BRANCH   5  10
ATOM      9  C   UNL     1       6.181   3.128  12.342  0.00  0.00    +0.000 C 
ATOM     10  C   UNL     1       5.439   4.064  13.281  0.00  0.00    +0.000 C 
ENDBRANCH   5  10
ENDBRANCH   4   6
ENDBRANCH   3   4
ENDBRANCH   1   3
BRANCH   1  11
ATOM     11  C   UNL     1       4.838   6.888  17.165  0.00  0.00    +0.000 C 
BRANCH  11  12
ATOM     12  C   UNL     1       3.983   5.670  17.510  0.00  0.00    +0.000 C 
BRANCH  12  13
ATOM     13  C   UNL     1       2.720   6.051  18.277  0.00  0.00    +0.000 C 
ATOM     14  O   UNL     1       2.286   7.203  18.200  0.00  0.00    +0.000 OA
BRANCH  13  15
ATOM     15  C   UNL     1       2.078   4.986  19.047  0.00  0.00    +0.000 A 
ATOM     16  C   UNL     1       1.798   4.913  20.401  0.00  0.00    +0.000 A 
ATOM     17  C   UNL     1       1.171   3.685  20.770  0.00  0.00    +0.000 A 
ATOM     18  C   UNL     1       0.985   2.858  19.687  0.00  0.00    +0.000 A 
ATOM     19  S   UNL     1       1.566   3.558  18.240  0.00  0.00    +0.000 S 
ENDBRANCH  13  15
ENDBRANCH  12  13
ENDBRANCH  11  12
ENDBRANCH   1  11
TORSDOF 8
ENDMDL
