MODEL 1
REMARK VINA RESULT:      -7.5      0.000      0.000
REMARK  Name = 
REMARK  8 active torsions:
REMARK  status: ('A' for Active; 'I' for Inactive)
REMARK    1  A    between atoms: C_1  and  C_2
REMARK    2  A    between atoms: C_2  and  C_3
REMARK    3  A    between atoms: C_9  and  C_10
REMARK    4  A    between atoms: N_12  and  C_13
REMARK    5  A    between atoms: C_13  and  C_14
REMARK    6  A    between atoms: C_14  and  C_15
REMARK    7  A    between atoms: C_15  and  O_16
REMARK    8  A    between atoms: C_17  and  N_18
REMARK                            x       y       z     vdW  Elec       q    Type
REMARK                         _______ _______ _______ _____ _____    ______ ____
ROOT
ATOM      1  C   UNL     1       0.537   3.311  19.802  0.00  0.00    +0.000 C 
ATOM      2  C   UNL     1       1.741   3.490  20.742  0.00  0.00    +0.000 C 
ATOM      3  C   UNL     1       1.426   2.801  22.074  0.00  0.00    +0.000 C 
ATOM      4  C   UNL     1       3.032   2.898  20.160  0.00  0.00    +0.000 C 
ATOM      5  C   UNL     1       3.567   3.741  19.039  0.00  0.00    +0.000 A 
ATOM      6  N   UNL     1       4.393   3.119  18.173  0.00  0.00    +0.000 NA
ATOM      7  C   UNL     1       4.860   3.895  17.184  0.00  0.00    +0.000 A 
ATOM      8  S   UNL     1       5.901   3.249  16.022  0.00  0.00    +0.000 S 
ATOM      9  C   UNL     1       6.012   4.743  15.171  0.00  0.00    +0.000 A 
ATOM     10  C   UNL     1       5.247   5.718  15.791  0.00  0.00    +0.000 A 
ATOM     11  C   UNL     1       4.582   5.238  16.972  0.00  0.00    +0.000 A 
ATOM     12  C   UNL     1       3.727   5.852  17.907  0.00  0.00    +0.000 A 
ATOM     13  C   UNL     1       3.223   5.089  18.963  0.00  0.00    +0.000 A 
ATOM     14  C   UNL     1       2.263   5.701  19.941  0.00  0.00    +0.000 C 
ATOM     15  O   UNL     1       1.966   4.871  21.062  0.00  0.00    +0.000 OA
ENDROOT
BRANCH   9  16
ATOM     16  C   UNL     1       6.838   4.815  13.969  0.00  0.00    +0.000 C 
ATOM     17  O   UNL     1       7.771   5.605  13.823  0.00  0.00    +0.000 OA
ATOM     18  N   UNL     1       6.479   3.923  12.975  0.00  0.00    +0.000 N 
ATOM     19  H   UNL     1       5.679   3.327  13.158  0.00  0.00    +0.000 HD
BRANCH  18  20
ATOM     20  C   UNL     1       7.103   3.831  11.674  0.00  0.00    +0.000 C 
BRANCH  20  21
ATOM     21  C   UNL     1       7.242   2.381  11.227  0.00  0.00    +0.000 C 
BRANCH  21  22
ATOM     22  C   UNL     1       5.961   1.588  11.448  0.00  0.00    +0.000 C 
BRANCH  22  23
ATOM     23  O   UNL     1       6.220   0.199  11.290  0.00  0.00    +0.000 OA
ATOM     24  H   UNL     1       7.077   0.011  11.712  0.00  0.00    +0.000 HD
ENDBRANCH  22  23
ENDBRANCH  21  22
ENDBRANCH  20  21
ENDBRANCH  18  20
ENDBRANCH   9  16
BRANCH  10  25
ATOM     25  N   UNL     1       5.113   6.996  15.365  0.00  0.00    +0.000 N 
ATOM     26  H   UNL     1       5.826   7.454  14.803  0.00  0.00    +0.000 HD
ATOM     27  H   UNL     1       4.273   7.549  15.506  0.00  0.00    +0.000 HD
ENDBRANCH  10  25
TORSDOF 6
ENDMDL
MODEL 2
REMARK VINA RESULT:      -6.8      5.230      8.153
REMARK  Name = 
REMARK  8 active torsions:
REMARK  status: ('A' for Active; 'I' for Inactive)
REMARK    1  A    between atoms: C_1  and  C_2
REMARK    2  A    between atoms: C_2  and  C_3
REMARK    3  A    between atoms: C_9  and  C_10
REMARK    4  A    between atoms: N_12  and  C_13
REMARK    5  A    between atoms: C_13  and  C_14
REMARK    6  A    between atoms: C_14  and  C_15
REMARK    7  A    between atoms: C_15  and  O_16
REMARK    8  A    between atoms: C_17  and  N_18
REMARK                            x       y       z     vdW  Elec       q    Type
REMARK                         _______ _______ _______ _____ _____    ______ ____
ROOT
ATOM      1  C   UNL     1       1.100   2.444  18.656  0.00  0.00    +0.000 C 
ATOM      2  C   UNL     1       2.593   2.693  18.932  0.00  0.00    +0.000 C 
ATOM      3  C   UNL     1       3.387   1.471  18.455  0.00  0.00    +0.000 C 
ATOM      4  C   UNL     1       3.120   3.947  18.222  0.00  0.00    +0.000 C 
ATOM      5  C   UNL     1       2.616   5.202  18.876  0.00  0.00    +0.000 A 
ATOM      6  N   UNL     1       2.620   6.311  18.109  0.00  0.00    +0.000 NA
ATOM      7  C   UNL     1       2.170   7.417  18.718  0.00  0.00    +0.000 A 
ATOM      8  S   UNL     1       2.113   8.881  17.878  0.00  0.00    +0.000 S 
ATOM      9  C   UNL     1       1.455   9.726  19.228  0.00  0.00    +0.000 A 
ATOM     10  C   UNL     1       1.288   8.872  20.306  0.00  0.00    +0.000 A 
ATOM     11  C   UNL     1       1.713   7.527  20.023  0.00  0.00    +0.000 A 
ATOM     12  C   UNL     1       1.739   6.349  20.794  0.00  0.00    +0.000 A 
ATOM     13  C   UNL     1       2.211   5.171  20.208  0.00  0.00    +0.000 A 
ATOM     14  C   UNL     1       2.195   3.888  20.986  0.00  0.00    +0.000 C 
ATOM     15  O   UNL     1       2.862   2.806  20.338  0.00  0.00    +0.000 OA
ENDROOT
BRANCH   9  16
ATOM     16  C   UNL     1       1.160  11.151  19.098  0.00  0.00    +0.000 C 
ATOM     17  O   UNL     1       0.181  11.697  19.605  0.00  0.00    +0.000 OA
ATOM     18  N   UNL     1       2.072  11.855  18.333  0.00  0.00    +0.000 N 
ATOM     19  H   UNL     1       2.834  11.327  17.922  0.00  0.00    +0.000 HD
BRANCH  18  20
ATOM     20  C   UNL     1       1.976  13.261  18.011  0.00  0.00    +0.000 C 
BRANCH  20  21
ATOM     21  C   UNL     1       2.878  14.098  18.910  0.00  0.00    +0.000 C 
BRANCH  21  22
ATOM     22  C   UNL     1       4.094  14.633  18.165  0.00  0.00    +0.000 C 
BRANCH  22  23
ATOM     23  O   UNL     1       3.682  15.262  16.959  0.00  0.00    +0.000 OA
ATOM     24  H   UNL     1       4.234  16.054  16.838  0.00  0.00    +0.000 HD
ENDBRANCH  22  23
ENDBRANCH  21  22
ENDBRANCH  20  21
ENDBRANCH  18  20
ENDBRANCH   9  16
BRANCH  10  25
ATOM     25  N   UNL     1       0.782   9.224  21.512  0.00  0.00    +0.000 N 
ATOM     26  H   UNL     1       1.264   9.871  22.130  0.00  0.00    +0.000 HD
ATOM     27  H   UNL     1      -0.133   8.934  21.842  0.00  0.00    +0.000 HD
ENDBRANCH  10  25
TORSDOF 6
ENDMDL
MODEL 3
REMARK VINA RESULT:      -6.8      4.349      6.451
REMARK  Name = 
REMARK  8 active torsions:
REMARK  status: ('A' for Active; 'I' for Inactive)
REMARK    1  A    between atoms: C_1  and  C_2
REMARK    2  A    between atoms: C_2  and  C_3
REMARK    3  A    between atoms: C_9  and  C_10
REMARK    4  A    between atoms: N_12  and  C_13
REMARK    5  A    between atoms: C_13  and  C_14
REMARK    6  A    between atoms: C_14  and  C_15
REMARK    7  A    between atoms: C_15  and  O_16
REMARK    8  A    between atoms: C_17  and  N_18
REMARK                            x       y       z     vdW  Elec       q    Type
REMARK                         _______ _______ _______ _____ _____    ______ ____
ROOT
ATOM      1  C   UNL     1       1.076  12.631  21.057  0.00  0.00    +0.000 C 
ATOM      2  C   UNL     1      -0.114  12.124  20.224  0.00  0.00    +0.000 C 
ATOM      3  C   UNL     1      -0.972  13.328  19.818  0.00  0.00    +0.000 C 
ATOM      4  C   UNL     1       0.330  11.372  18.963  0.00  0.00    +0.000 C 
ATOM      5  C   UNL     1       0.889  10.019  19.299  0.00  0.00    +0.000 A 
ATOM      6  N   UNL     1       1.708   9.472  18.377  0.00  0.00    +0.000 NA
ATOM      7  C   UNL     1       2.189   8.263  18.699  0.00  0.00    +0.000 A 
ATOM      8  S   UNL     1       3.232   7.459  17.642  0.00  0.00    +0.000 S 
ATOM      9  C   UNL     1       3.400   6.110  18.701  0.00  0.00    +0.000 A 
ATOM     10  C   UNL     1       2.653   6.296  19.853  0.00  0.00    +0.000 A 
ATOM     11  C   UNL     1       1.934   7.541  19.856  0.00  0.00    +0.000 A 
ATOM     12  C   UNL     1       1.063   8.142  20.786  0.00  0.00    +0.000 A 
ATOM     13  C   UNL     1       0.525   9.398  20.491  0.00  0.00    +0.000 A 
ATOM     14  C   UNL     1      -0.359  10.088  21.488  0.00  0.00    +0.000 C 
ATOM     15  O   UNL     1      -0.978  11.274  20.994  0.00  0.00    +0.000 OA
ENDROOT
BRANCH   9  16
ATOM     16  C   UNL     1       4.257   4.997  18.301  0.00  0.00    +0.000 C 
ATOM     17  O   UNL     1       4.069   3.830  18.643  0.00  0.00    +0.000 OA
ATOM     18  N   UNL     1       5.328   5.358  17.505  0.00  0.00    +0.000 N 
ATOM     19  H   UNL     1       5.433   6.344  17.294  0.00  0.00    +0.000 HD
BRANCH  18  20
ATOM     20  C   UNL     1       6.348   4.453  17.023  0.00  0.00    +0.000 C 
BRANCH  20  21
ATOM     21  C   UNL     1       5.967   3.858  15.672  0.00  0.00    +0.000 C 
BRANCH  21  22
ATOM     22  C   UNL     1       6.728   4.508  14.524  0.00  0.00    +0.000 C 
BRANCH  22  23
ATOM     23  O   UNL     1       7.431   5.650  14.996  0.00  0.00    +0.000 OA
ATOM     24  H   UNL     1       8.315   5.354  15.276  0.00  0.00    +0.000 HD
ENDBRANCH  22  23
ENDBRANCH  21  22
ENDBRANCH  20  21
ENDBRANCH  18  20
ENDBRANCH   9  16
BRANCH  10  25
ATOM     25  N   UNL     1       2.581   5.425  20.887  0.00  0.00    +0.000 N 
ATOM     26  H   UNL     1       3.373   5.249  21.499  0.00  0.00    +0.000 HD
ATOM     27  H   UNL     1       1.724   4.957  21.167  0.00  0.00    +0.000 HD
ENDBRANCH  10  25
TORSDOF 6
ENDMDL
MODEL 4
REMARK VINA RESULT:      -6.7      5.172      7.322
REMARK  Name = 
REMARK  8 active torsions:
REMARK  status: ('A' for Active; 'I' for Inactive)
REMARK    1  A    between atoms: C_1  and  C_2
REMARK    2  A    between atoms: C_2  and  C_3
REMARK    3  A    between atoms: C_9  and  C_10
REMARK    4  A    between atoms: N_12  and  C_13
REMARK    5  A    between atoms: C_13  and  C_14
REMARK    6  A    between atoms: C_14  and  C_15
REMARK    7  A    between atoms: C_15  and  O_16
REMARK    8  A    between atoms: C_17  and  N_18
REMARK                            x       y       z     vdW  Elec       q    Type
REMARK                         _______ _______ _______ _____ _____    ______ ____
ROOT
ATOM      1  C   UNL     1       0.465  13.352  21.605  0.00  0.00    +0.000 C 
ATOM      2  C   UNL     1      -0.797  12.834  20.895  0.00  0.00    +0.000 C 
ATOM      3  C   UNL     1      -1.742  14.017  20.657  0.00  0.00    +0.000 C 
ATOM      4  C   UNL     1      -0.480  12.162  19.552  0.00  0.00    +0.000 C 
ATOM      5  C   UNL     1       0.166  10.821  19.747  0.00  0.00    +0.000 A 
ATOM      6  N   UNL     1       0.888  10.355  18.707  0.00  0.00    +0.000 NA
ATOM      7  C   UNL     1       1.449   9.154  18.906  0.00  0.00    +0.000 A 
ATOM      8  S   UNL     1       2.387   8.448  17.691  0.00  0.00    +0.000 S 
ATOM      9  C   UNL     1       2.732   7.059  18.651  0.00  0.00    +0.000 A 
ATOM     10  C   UNL     1       2.124   7.157  19.891  0.00  0.00    +0.000 A 
ATOM     11  C   UNL     1       1.364   8.368  20.046  0.00  0.00    +0.000 A 
ATOM     12  C   UNL     1       0.590   8.885  21.102  0.00  0.00    +0.000 A 
ATOM     13  C   UNL     1      -0.027  10.129  20.940  0.00  0.00    +0.000 A 
ATOM     14  C   UNL     1      -0.809  10.731  22.070  0.00  0.00    +0.000 C 
ATOM     15  O   UNL     1      -1.528  11.911  21.716  0.00  0.00    +0.000 OA
ENDROOT
BRANCH   9  16
ATOM     16  C   UNL     1       3.576   6.004  18.094  0.00  0.00    +0.000 C 
ATOM     17  O   UNL     1       3.504   4.822  18.427  0.00  0.00    +0.000 OA
ATOM     18  N   UNL     1       4.493   6.442  17.156  0.00  0.00    +0.000 N 
ATOM     19  H   UNL     1       4.512   7.437  16.960  0.00  0.00    +0.000 HD
BRANCH  18  20
ATOM     20  C   UNL     1       5.473   5.607  16.499  0.00  0.00    +0.000 C 
BRANCH  20  21
ATOM     21  C   UNL     1       6.886   5.943  16.963  0.00  0.00    +0.000 C 
BRANCH  21  22
ATOM     22  C   UNL     1       7.476   4.849  17.844  0.00  0.00    +0.000 C 
BRANCH  22  23
ATOM     23  O   UNL     1       6.430   4.051  18.385  0.00  0.00    +0.000 OA
ATOM     24  H   UNL     1       6.797   3.564  19.144  0.00  0.00    +0.000 HD
ENDBRANCH  22  23
ENDBRANCH  21  22
ENDBRANCH  20  21
ENDBRANCH  18  20
ENDBRANCH   9  16
BRANCH  10  25
ATOM     25  N   UNL     1       2.210   6.236  20.880  0.00  0.00    +0.000 N 
ATOM     26  H   UNL     1       3.104   5.933  21.258  0.00  0.00    +0.000 HD
ATOM     27  H   UNL     1       1.402   5.850  21.359  0.00  0.00    +0.000 HD
ENDBRANCH  10  25
TORSDOF 6
ENDMDL
MODEL 5
REMARK VINA RESULT:      -6.7      5.217      8.826
REMARK  Name = 
REMARK  8 active torsions:
REMARK  status: ('A' for Active; 'I' for Inactive)
REMARK    1  A    between atoms: C_1  and  C_2
REMARK    2  A    between atoms: C_2  and  C_3
REMARK    3  A    between atoms: C_9  and  C_10
REMARK    4  A    between atoms: N_12  and  C_13
REMARK    5  A    between atoms: C_13  and  C_14
REMARK    6  A    between atoms: C_14  and  C_15
REMARK    7  A    between atoms: C_15  and  O_16
REMARK    8  A    between atoms: C_17  and  N_18
REMARK                            x       y       z     vdW  Elec       q    Type
REMARK                         _______ _______ _______ _____ _____    ______ ____
ROOT
ATOM      1  C   UNL     1       3.299   3.510  16.900  0.00  0.00    +0.000 C 
ATOM      2  C   UNL     1       4.573   4.330  17.167  0.00  0.00    +0.000 C 
ATOM      3  C   UNL     1       5.698   3.786  16.278  0.00  0.00    +0.000 C 
ATOM      4  C   UNL     1       4.380   5.825  16.878  0.00  0.00    +0.000 C 
ATOM      5  C   UNL     1       3.533   6.483  17.930  0.00  0.00    +0.000 A 
ATOM      6  N   UNL     1       2.925   7.630  17.566  0.00  0.00    +0.000 NA
ATOM      7  C   UNL     1       2.180   8.199  18.525  0.00  0.00    +0.000 A 
ATOM      8  S   UNL     1       1.355   9.639  18.211  0.00  0.00    +0.000 S 
ATOM      9  C   UNL     1       0.676   9.693  19.794  0.00  0.00    +0.000 A 
ATOM     10  C   UNL     1       1.092   8.603  20.542  0.00  0.00    +0.000 A 
ATOM     11  C   UNL     1       1.978   7.734  19.816  0.00  0.00    +0.000 A 
ATOM     12  C   UNL     1       2.642   6.540  20.158  0.00  0.00    +0.000 A 
ATOM     13  C   UNL     1       3.442   5.914  19.198  0.00  0.00    +0.000 A 
ATOM     14  C   UNL     1       4.114   4.610  19.515  0.00  0.00    +0.000 C 
ATOM     15  O   UNL     1       5.034   4.172  18.517  0.00  0.00    +0.000 OA
ENDROOT
BRANCH   9  16
ATOM     16  C   UNL     1      -0.207  10.800  20.150  0.00  0.00    +0.000 C 
ATOM     17  O   UNL     1      -0.169  11.387  21.231  0.00  0.00    +0.000 OA
ATOM     18  N   UNL     1      -1.122  11.139  19.170  0.00  0.00    +0.000 N 
ATOM     19  H   UNL     1      -1.112  10.586  18.320  0.00  0.00    +0.000 HD
BRANCH  18  20
ATOM     20  C   UNL     1      -2.136  12.161  19.297  0.00  0.00    +0.000 C 
BRANCH  20  21
ATOM     21  C   UNL     1      -3.366  11.828  18.459  0.00  0.00    +0.000 C 
BRANCH  21  22
ATOM     22  C   UNL     1      -3.016  10.990  17.236  0.00  0.00    +0.000 C 
BRANCH  22  23
ATOM     23  O   UNL     1      -2.068  11.681  16.433  0.00  0.00    +0.000 OA
ATOM     24  H   UNL     1      -1.183  11.386  16.707  0.00  0.00    +0.000 HD
ENDBRANCH  22  23
ENDBRANCH  21  22
ENDBRANCH  20  21
ENDBRANCH  18  20
ENDBRANCH   9  16
BRANCH  10  25
ATOM     25  N   UNL     1       0.727   8.347  21.820  0.00  0.00    +0.000 N 
ATOM     26  H   UNL     1       0.225   9.027  22.384  0.00  0.00    +0.000 HD
ATOM     27  H   UNL     1       0.857   7.445  22.270  0.00  0.00    +0.000 HD
ENDBRANCH  10  25
TORSDOF 6
ENDMDL
MODEL 6
REMARK VINA RESULT:      -6.6      5.152      7.525
REMARK  Name = 
REMARK  8 active torsions:
REMARK  status: ('A' for Active; 'I' for Inactive)
REMARK    1  A    between atoms: C_1  and  C_2
REMARK    2  A    between atoms: C_2  and  C_3
REMARK    3  A    between atoms: C_9  and  C_10
REMARK    4  A    between atoms: N_12  and  C_13
REMARK    5  A    between atoms: C_13  and  C_14
REMARK    6  A    between atoms: C_14  and  C_15
REMARK    7  A    between atoms: C_15  and  O_16
REMARK    8  A    between atoms: C_17  and  N_18
REMARK                            x       y       z     vdW  Elec       q    Type
REMARK                         _______ _______ _______ _____ _____    ______ ____
ROOT
ATOM      1  C   UNL     1       0.619  13.182  21.521  0.00  0.00    +0.000 C 
ATOM      2  C   UNL     1      -0.623  12.683  20.762  0.00  0.00    +0.000 C 
ATOM      3  C   UNL     1      -1.523  13.886  20.456  0.00  0.00    +0.000 C 
ATOM      4  C   UNL     1      -0.262  11.975  19.449  0.00  0.00    +0.000 C 
ATOM      5  C   UNL     1       0.336  10.621  19.701  0.00  0.00    +0.000 A 
ATOM      6  N   UNL     1       1.092  10.114  18.706  0.00  0.00    +0.000 NA
ATOM      7  C   UNL     1       1.610   8.903  18.954  0.00  0.00    +0.000 A 
ATOM      8  S   UNL     1       2.583   8.146  17.800  0.00  0.00    +0.000 S 
ATOM      9  C   UNL     1       2.844   6.769  18.802  0.00  0.00    +0.000 A 
ATOM     10  C   UNL     1       2.181   6.909  20.010  0.00  0.00    +0.000 A 
ATOM     11  C   UNL     1       1.449   8.143  20.104  0.00  0.00    +0.000 A 
ATOM     12  C   UNL     1       0.641   8.704  21.113  0.00  0.00    +0.000 A 
ATOM     13  C   UNL     1       0.068   9.960  20.897  0.00  0.00    +0.000 A 
ATOM     14  C   UNL     1      -0.749  10.607  21.976  0.00  0.00    +0.000 C 
ATOM     15  O   UNL     1      -1.418  11.798  21.565  0.00  0.00    +0.000 OA
ENDROOT
BRANCH   9  16
ATOM     16  C   UNL     1       3.683   5.680  18.307  0.00  0.00    +0.000 C 
ATOM     17  O   UNL     1       3.366   4.939  17.376  0.00  0.00    +0.000 OA
ATOM     18  N   UNL     1       4.879   5.527  18.984  0.00  0.00    +0.000 N 
ATOM     19  H   UNL     1       5.052   6.156  19.760  0.00  0.00    +0.000 HD
BRANCH  18  20
ATOM     20  C   UNL     1       5.856   4.494  18.723  0.00  0.00    +0.000 C 
BRANCH  20  21
ATOM     21  C   UNL     1       7.103   5.066  18.058  0.00  0.00    +0.000 C 
BRANCH  21  22
ATOM     22  C   UNL     1       7.907   5.944  19.008  0.00  0.00    +0.000 C 
BRANCH  22  23
ATOM     23  O   UNL     1       7.763   5.470  20.341  0.00  0.00    +0.000 OA
ATOM     24  H   UNL     1       7.983   6.205  20.939  0.00  0.00    +0.000 HD
ENDBRANCH  22  23
ENDBRANCH  21  22
ENDBRANCH  20  21
ENDBRANCH  18  20
ENDBRANCH   9  16
BRANCH  10  25
ATOM     25  N   UNL     1       2.195   6.007  21.020  0.00  0.00    +0.000 N 
ATOM     26  H   UNL     1       1.351   5.538  21.335  0.00  0.00    +0.000 HD
ATOM     27  H   UNL     1       3.046   5.683  21.471  0.00  0.00    +0.000 HD
ENDBRANCH  10  25
TORSDOF 6
ENDMDL
MODEL 7
REMARK VINA RESULT:      -6.6      6.048     10.254
REMARK  Name = 
REMARK  8 active torsions:
REMARK  status: ('A' for Active; 'I' for Inactive)
REMARK    1  A    between atoms: C_1  and  C_2
REMARK    2  A    between atoms: C_2  and  C_3
REMARK    3  A    between atoms: C_9  and  C_10
REMARK    4  A    between atoms: N_12  and  C_13
REMARK    5  A    between atoms: C_13  and  C_14
REMARK    6  A    between atoms: C_14  and  C_15
REMARK    7  A    between atoms: C_15  and  O_16
REMARK    8  A    between atoms: C_17  and  N_18
REMARK                            x       y       z     vdW  Elec       q    Type
REMARK                         _______ _______ _______ _____ _____    ______ ____
ROOT
ATOM      1  C   UNL     1       5.436   5.209  19.384  0.00  0.00    +0.000 C 
ATOM      2  C   UNL     1       4.113   4.526  19.000  0.00  0.00    +0.000 C 
ATOM      3  C   UNL     1       4.312   3.007  19.061  0.00  0.00    +0.000 C 
ATOM      4  C   UNL     1       2.957   4.922  19.928  0.00  0.00    +0.000 C 
ATOM      5  C   UNL     1       2.501   6.329  19.671  0.00  0.00    +0.000 A 
ATOM      6  N   UNL     1       1.844   6.932  20.682  0.00  0.00    +0.000 NA
ATOM      7  C   UNL     1       1.444   8.186  20.424  0.00  0.00    +0.000 A 
ATOM      8  S   UNL     1       0.613   9.068  21.600  0.00  0.00    +0.000 S 
ATOM      9  C   UNL     1       0.490  10.458  20.591  0.00  0.00    +0.000 A 
ATOM     10  C   UNL     1       1.090  10.227  19.364  0.00  0.00    +0.000 A 
ATOM     11  C   UNL     1       1.638   8.902  19.251  0.00  0.00    +0.000 A 
ATOM     12  C   UNL     1       2.317   8.230  18.216  0.00  0.00    +0.000 A 
ATOM     13  C   UNL     1       2.743   6.917  18.431  0.00  0.00    +0.000 A 
ATOM     14  C   UNL     1       3.520   6.197  17.368  0.00  0.00    +0.000 C 
ATOM     15  O   UNL     1       3.740   4.815  17.643  0.00  0.00    +0.000 OA
ENDROOT
BRANCH   9  16
ATOM     16  C   UNL     1      -0.182  11.650  21.103  0.00  0.00    +0.000 C 
ATOM     17  O   UNL     1      -0.132  12.752  20.559  0.00  0.00    +0.000 OA
ATOM     18  N   UNL     1      -0.879  11.450  22.280  0.00  0.00    +0.000 N 
ATOM     19  H   UNL     1      -0.844  10.521  22.685  0.00  0.00    +0.000 HD
BRANCH  18  20
ATOM     20  C   UNL     1      -1.581  12.478  23.015  0.00  0.00    +0.000 C 
BRANCH  20  21
ATOM     21  C   UNL     1      -3.089  12.261  22.968  0.00  0.00    +0.000 C 
BRANCH  21  22
ATOM     22  C   UNL     1      -3.758  12.592  24.296  0.00  0.00    +0.000 C 
BRANCH  22  23
ATOM     23  O   UNL     1      -5.086  12.083  24.308  0.00  0.00    +0.000 OA
ATOM     24  H   UNL     1      -5.244  11.660  23.446  0.00  0.00    +0.000 HD
ENDBRANCH  22  23
ENDBRANCH  21  22
ENDBRANCH  20  21
ENDBRANCH  18  20
ENDBRANCH   9  16
BRANCH  10  25
ATOM     25  N   UNL     1       1.174  11.123  18.352  0.00  0.00    +0.000 N 
ATOM     26  H   UNL     1       1.533  10.870  17.436  0.00  0.00    +0.000 HD
ATOM     27  H   UNL     1       0.816  12.072  18.413  0.00  0.00    +0.000 HD
ENDBRANCH  10  25
TORSDOF 6
ENDMDL
MODEL 8
REMARK VINA RESULT:      -6.5      5.455      9.038
REMARK  Name = 
REMARK  8 active torsions:
REMARK  status: ('A' for Active; 'I' for Inactive)
REMARK    1  A    between atoms: C_1  and  C_2
REMARK    2  A    between atoms: C_2  and  C_3
REMARK    3  A    between atoms: C_9  and  C_10
REMARK    4  A    between atoms: N_12  and  C_13
REMARK    5  A    between atoms: C_13  and  C_14
REMARK    6  A    between atoms: C_14  and  C_15
REMARK    7  A    between atoms: C_15  and  O_16
REMARK    8  A    between atoms: C_17  and  N_18
REMARK                            x       y       z     vdW  Elec       q    Type
REMARK                         _______ _______ _______ _____ _____    ______ ____
ROOT
ATOM      1  C   UNL     1       5.355   4.320  19.343  0.00  0.00    +0.000 C 
ATOM      2  C   UNL     1       3.966   3.708  19.094  0.00  0.00    +0.000 C 
ATOM      3  C   UNL     1       4.061   2.189  19.283  0.00  0.00    +0.000 C 
ATOM      4  C   UNL     1       2.899   4.269  20.044  0.00  0.00    +0.000 C 
ATOM      5  C   UNL     1       2.529   5.679  19.683  0.00  0.00    +0.000 A 
ATOM      6  N   UNL     1       1.977   6.416  20.668  0.00  0.00    +0.000 NA
ATOM      7  C   UNL     1       1.652   7.669  20.319  0.00  0.00    +0.000 A 
ATOM      8  S   UNL     1       0.957   8.710  21.453  0.00  0.00    +0.000 S 
ATOM      9  C   UNL     1       0.872  10.012  20.328  0.00  0.00    +0.000 A 
ATOM     10  C   UNL     1       1.379   9.630  19.096  0.00  0.00    +0.000 A 
ATOM     11  C   UNL     1       1.824   8.263  19.077  0.00  0.00    +0.000 A 
ATOM     12  C   UNL     1       2.390   7.454  18.072  0.00  0.00    +0.000 A 
ATOM     13  C   UNL     1       2.736   6.136  18.384  0.00  0.00    +0.000 A 
ATOM     14  C   UNL     1       3.395   5.270  17.351  0.00  0.00    +0.000 C 
ATOM     15  O   UNL     1       3.532   3.904  17.739  0.00  0.00    +0.000 OA
ENDROOT
BRANCH   9  16
ATOM     16  C   UNL     1       0.318  11.291  20.764  0.00  0.00    +0.000 C 
ATOM     17  O   UNL     1       0.995  12.212  21.221  0.00  0.00    +0.000 OA
ATOM     18  N   UNL     1      -1.056  11.391  20.640  0.00  0.00    +0.000 N 
ATOM     19  H   UNL     1      -1.547  10.578  20.286  0.00  0.00    +0.000 HD
BRANCH  18  20
ATOM     20  C   UNL     1      -1.847  12.529  21.050  0.00  0.00    +0.000 C 
BRANCH  20  21
ATOM     21  C   UNL     1      -2.933  12.847  20.028  0.00  0.00    +0.000 C 
BRANCH  21  22
ATOM     22  C   UNL     1      -2.929  11.864  18.864  0.00  0.00    +0.000 C 
BRANCH  22  23
ATOM     23  O   UNL     1      -2.083  12.346  17.829  0.00  0.00    +0.000 OA
ATOM     24  H   UNL     1      -2.494  12.108  16.980  0.00  0.00    +0.000 HD
ENDBRANCH  22  23
ENDBRANCH  21  22
ENDBRANCH  20  21
ENDBRANCH  18  20
ENDBRANCH   9  16
BRANCH  10  25
ATOM     25  N   UNL     1       1.464  10.426  18.004  0.00  0.00    +0.000 N 
ATOM     26  H   UNL     1       0.700  11.033  17.718  0.00  0.00    +0.000 HD
ATOM     27  H   UNL     1       2.309  10.530  17.451  0.00  0.00    +0.000 HD
ENDBRANCH  10  25
TORSDOF 6
ENDMDL
MODEL 9
REMARK VINA RESULT:      -6.5      5.121      8.540
REMARK  Name = 
REMARK  8 active torsions:
REMARK  status: ('A' for Active; 'I' for Inactive)
REMARK    1  A    between atoms: C_1  and  C_2
REMARK    2  A    between atoms: C_2  and  C_3
REMARK    3  A    between atoms: C_9  and  C_10
REMARK    4  A    between atoms: N_12  and  C_13
REMARK    5  A    between atoms: C_13  and  C_14
REMARK    6  A    between atoms: C_14  and  C_15
REMARK    7  A    between atoms: C_15  and  O_16
REMARK    8  A    between atoms: C_17  and  N_18
REMARK                            x       y       z     vdW  Elec       q    Type
REMARK                         _______ _______ _______ _____ _____    ______ ____
ROOT
ATOM      1  C   UNL     1       1.354   2.307  18.568  0.00  0.00    +0.000 C 
ATOM      2  C   UNL     1       2.838   2.629  18.808  0.00  0.00    +0.000 C 
ATOM      3  C   UNL     1       3.683   1.479  18.248  0.00  0.00    +0.000 C 
ATOM      4  C   UNL     1       3.269   3.943  18.143  0.00  0.00    +0.000 C 
ATOM      5  C   UNL     1       2.718   5.134  18.873  0.00  0.00    +0.000 A 
ATOM      6  N   UNL     1       2.633   6.276  18.161  0.00  0.00    +0.000 NA
ATOM      7  C   UNL     1       2.143   7.325  18.837  0.00  0.00    +0.000 A 
ATOM      8  S   UNL     1       1.974   8.821  18.070  0.00  0.00    +0.000 S 
ATOM      9  C   UNL     1       1.316   9.562  19.480  0.00  0.00    +0.000 A 
ATOM     10  C   UNL     1       1.235   8.651  20.520  0.00  0.00    +0.000 A 
ATOM     11  C   UNL     1       1.725   7.348  20.160  0.00  0.00    +0.000 A 
ATOM     12  C   UNL     1       1.844   6.138  20.871  0.00  0.00    +0.000 A 
ATOM     13  C   UNL     1       2.361   5.018  20.214  0.00  0.00    +0.000 A 
ATOM     14  C   UNL     1       2.444   3.701  20.929  0.00  0.00    +0.000 C 
ATOM     15  O   UNL     1       3.149   2.692  20.209  0.00  0.00    +0.000 OA
ENDROOT
BRANCH   9  16
ATOM     16  C   UNL     1       0.937  10.972  19.429  0.00  0.00    +0.000 C 
ATOM     17  O   UNL     1       1.399  11.834  20.175  0.00  0.00    +0.000 OA
ATOM     18  N   UNL     1      -0.013  11.273  18.470  0.00  0.00    +0.000 N 
ATOM     19  H   UNL     1      -0.369  10.502  17.917  0.00  0.00    +0.000 HD
BRANCH  18  20
ATOM     20  C   UNL     1      -0.592  12.580  18.255  0.00  0.00    +0.000 C 
BRANCH  20  21
ATOM     21  C   UNL     1      -1.799  12.807  19.158  0.00  0.00    +0.000 C 
BRANCH  21  22
ATOM     22  C   UNL     1      -2.907  11.795  18.899  0.00  0.00    +0.000 C 
BRANCH  22  23
ATOM     23  O   UNL     1      -4.111  12.474  18.564  0.00  0.00    +0.000 OA
ATOM     24  H   UNL     1      -4.245  12.375  17.606  0.00  0.00    +0.000 HD
ENDBRANCH  22  23
ENDBRANCH  21  22
ENDBRANCH  20  21
ENDBRANCH  18  20
ENDBRANCH   9  16
BRANCH  10  25
ATOM     25  N   UNL     1       0.752   8.916  21.757  0.00  0.00    +0.000 N 
ATOM     26  H   UNL     1       0.674   8.197  22.471  0.00  0.00    +0.000 HD
ATOM     27  H   UNL     1       0.513   9.850  22.077  0.00  0.00    +0.000 HD
ENDBRANCH  10  25
TORSDOF 6
ENDMDL
