MODEL 1
REMARK VINA RESULT:      -6.1      0.000      0.000
REMARK  Name = 
REMARK  14 active torsions:
REMARK  status: ('A' for Active; 'I' for Inactive)
REMARK    1  A    between atoms: C_1  and  C_2
REMARK    2  A    between atoms: C_2  and  C_3
REMARK    3  A    between atoms: C_3  and  C_4
REMARK    4  A    between atoms: C_4  and  C_5
REMARK    5  A    between atoms: C_7  and  C_8
REMARK    6  A    between atoms: C_8  and  N_9
REMARK    7  A    between atoms: N_9  and  C_10
REMARK    8  A    between atoms: N_9  and  C_13
REMARK    9  A    between atoms: C_10  and  C_11
REMARK   10  A    between atoms: C_11  and  O_12
REMARK   11  A    between atoms: C_13  and  C_14
REMARK   12  A    between atoms: C_13  and  C_15
REMARK   13  A    between atoms: C_13  and  C_16
REMARK   14  A    between atoms: C_16  and  O_17
REMARK                            x       y       z     vdW  Elec       q    Type
REMARK                         _______ _______ _______ _____ _____    ______ ____
ROOT
ATOM      1  N   UNL     1       3.007   4.972  19.563  0.00  0.00    +0.000 NA
ENDROOT
BRANCH   1   2
ATOM      2  C   UNL     1       2.074   3.863  19.052  0.00  0.00    +0.000 C 
ATOM      3  C   UNL     1       0.915   3.581  20.051  0.00  0.00    +0.000 C 
ATOM      4  C   UNL     1       1.423   4.183  17.682  0.00  0.00    +0.000 C 
BRANCH   2   5
ATOM      5  C   UNL     1       2.828   2.495  18.886  0.00  0.00    +0.000 C 
BRANCH   5   6
ATOM      6  O   UNL     1       1.933   1.404  18.698  0.00  0.00    +0.000 OA
ATOM      7  H   UNL     1       2.484   0.634  18.492  0.00  0.00    +0.000 HD
ENDBRANCH   5   6
ENDBRANCH   2   5
ENDBRANCH   1   2
BRANCH   1   8
ATOM      8  C   UNL     1       3.521   5.766  18.409  0.00  0.00    +0.000 C 
BRANCH   8  11
ATOM      9  C   UNL     1       6.296   4.754  16.328  0.00  0.00    +0.000 A 
ATOM     10  N   UNL     1       5.053   5.107  16.584  0.00  0.00    +0.000 NA
ATOM     11  C   UNL     1       4.906   5.424  17.928  0.00  0.00    +0.000 A 
ATOM     12  C   UNL     1       6.048   5.252  18.688  0.00  0.00    +0.000 A 
ATOM     13  S   UNL     1       7.346   4.749  17.685  0.00  0.00    +0.000 S 
BRANCH   9  14
ATOM     14  C   UNL     1       6.769   4.339  14.970  0.00  0.00    +0.000 C 
BRANCH  14  15
ATOM     15  C   UNL     1       5.613   4.217  13.973  0.00  0.00    +0.000 C 
BRANCH  15  17
ATOM     16  C   UNL     1       4.906   3.156  11.791  0.00  0.00    +0.000 C 
ATOM     17  C   UNL     1       6.076   3.533  12.685  0.00  0.00    +0.000 C 
ENDBRANCH  15  17
ENDBRANCH  14  15
ENDBRANCH   9  14
ENDBRANCH   8  11
ENDBRANCH   1   8
BRANCH   1  18
ATOM     18  C   UNL     1       2.294   5.840  20.553  0.00  0.00    +0.000 C 
BRANCH  18  19
ATOM     19  C   UNL     1       1.998   7.319  20.238  0.00  0.00    +0.000 C 
BRANCH  19  20
ATOM     20  O   UNL     1       1.658   8.001  21.454  0.00  0.00    +0.000 OA
ATOM     21  H   UNL     1       0.843   7.584  21.790  0.00  0.00    +0.000 HD
ENDBRANCH  19  20
ENDBRANCH  18  19
ENDBRANCH   1  18
TORSDOF 11
ENDMDL
MODEL 2
REMARK VINA RESULT:      -5.9      1.478      1.661
REMARK  Name = 
REMARK  14 active torsions:
REMARK  status: ('A' for Active; 'I' for Inactive)
REMARK    1  A    between atoms: C_1  and  C_2
REMARK    2  A    between atoms: C_2  and  C_3
REMARK    3  A    between atoms: C_3  and  C_4
REMARK    4  A    between atoms: C_4  and  C_5
REMARK    5  A    between atoms: C_7  and  C_8
REMARK    6  A    between atoms: C_8  and  N_9
REMARK    7  A    between atoms: N_9  and  C_10
REMARK    8  A    between atoms: N_9  and  C_13
REMARK    9  A    between atoms: C_10  and  C_11
REMARK   10  A    between atoms: C_11  and  O_12
REMARK   11  A    between atoms: C_13  and  C_14
REMARK   12  A    between atoms: C_13  and  C_15
REMARK   13  A    between atoms: C_13  and  C_16
REMARK   14  A    between atoms: C_16  and  O_17
REMARK                            x       y       z     vdW  Elec       q    Type
REMARK                         _______ _______ _______ _____ _____    ______ ____
ROOT
ATOM      1  N   UNL     1       3.101   4.347  19.177  0.00  0.00    +0.000 NA
ENDROOT
BRANCH   1   2
ATOM      2  C   UNL     1       2.137   3.366  19.860  0.00  0.00    +0.000 C 
ATOM      3  C   UNL     1       0.842   4.077  20.347  0.00  0.00    +0.000 C 
ATOM      4  C   UNL     1       1.693   2.195  18.945  0.00  0.00    +0.000 C 
BRANCH   2   5
ATOM      5  C   UNL     1       2.771   2.720  21.144  0.00  0.00    +0.000 C 
BRANCH   5   6
ATOM      6  O   UNL     1       1.853   2.664  22.231  0.00  0.00    +0.000 OA
ATOM      7  H   UNL     1       1.173   2.023  21.978  0.00  0.00    +0.000 HD
ENDBRANCH   5   6
ENDBRANCH   2   5
ENDBRANCH   1   2
BRANCH   1   8
ATOM      8  C   UNL     1       4.158   3.587  18.447  0.00  0.00    +0.000 C 
BRANCH   8  11
ATOM      9  C   UNL     1       6.272   4.866  15.811  0.00  0.00    +0.000 A 
ATOM     10  N   UNL     1       5.311   4.129  16.329  0.00  0.00    +0.000 NA
ATOM     11  C   UNL     1       5.161   4.407  17.681  0.00  0.00    +0.000 A 
ATOM     12  C   UNL     1       6.063   5.327  18.182  0.00  0.00    +0.000 A 
ATOM     13  S   UNL     1       7.071   5.903  16.919  0.00  0.00    +0.000 S 
BRANCH   9  14
ATOM     14  C   UNL     1       6.686   4.786  14.375  0.00  0.00    +0.000 C 
BRANCH  14  15
ATOM     15  C   UNL     1       6.179   3.506  13.703  0.00  0.00    +0.000 C 
BRANCH  15  17
ATOM     16  C   UNL     1       4.722   3.184  11.663  0.00  0.00    +0.000 C 
ATOM     17  C   UNL     1       6.052   3.700  12.190  0.00  0.00    +0.000 C 
ENDBRANCH  15  17
ENDBRANCH  14  15
ENDBRANCH   9  14
ENDBRANCH   8  11
ENDBRANCH   1   8
BRANCH   1  18
ATOM     18  C   UNL     1       2.353   5.265  18.260  0.00  0.00    +0.000 C 
BRANCH  18  19
ATOM     19  C   UNL     1       2.560   6.790  18.328  0.00  0.00    +0.000 C 
BRANCH  19  20
ATOM     20  O   UNL     1       2.322   7.238  19.671  0.00  0.00    +0.000 OA
ATOM     21  H   UNL     1       2.504   8.197  19.683  0.00  0.00    +0.000 HD
ENDBRANCH  19  20
ENDBRANCH  18  19
ENDBRANCH   1  18
TORSDOF 11
ENDMDL
MODEL 3
REMARK VINA RESULT:      -5.9      2.185      3.589
REMARK  Name = 
REMARK  14 active torsions:
REMARK  status: ('A' for Active; 'I' for Inactive)
REMARK    1  A    between atoms: C_1  and  C_2
REMARK    2  A    between atoms: C_2  and  C_3
REMARK    3  A    between atoms: C_3  and  C_4
REMARK    4  A    between atoms: C_4  and  C_5
REMARK    5  A    between atoms: C_7  and  C_8
REMARK    6  A    between atoms: C_8  and  N_9
REMARK    7  A    between atoms: N_9  and  C_10
REMARK    8  A    between atoms: N_9  and  C_13
REMARK    9  A    between atoms: C_10  and  C_11
REMARK   10  A    between atoms: C_11  and  O_12
REMARK   11  A    between atoms: C_13  and  C_14
REMARK   12  A    between atoms: C_13  and  C_15
REMARK   13  A    between atoms: C_13  and  C_16
REMARK   14  A    between atoms: C_16  and  O_17
REMARK                            x       y       z     vdW  Elec       q    Type
REMARK                         _______ _______ _______ _____ _____    ______ ____
ROOT
ATOM      1  N   UNL     1       2.947   4.241  18.523  0.00  0.00    +0.000 NA
ENDROOT
BRANCH   1   2
ATOM      2  C   UNL     1       2.432   3.096  19.409  0.00  0.00    +0.000 C 
ATOM      3  C   UNL     1       1.172   3.518  20.219  0.00  0.00    +0.000 C 
ATOM      4  C   UNL     1       2.053   1.820  18.615  0.00  0.00    +0.000 C 
BRANCH   2   5
ATOM      5  C   UNL     1       3.496   2.662  20.481  0.00  0.00    +0.000 C 
BRANCH   5   6
ATOM      6  O   UNL     1       4.702   2.194  19.887  0.00  0.00    +0.000 OA
ATOM      7  H   UNL     1       4.503   2.048  18.950  0.00  0.00    +0.000 HD
ENDBRANCH   5   6
ENDBRANCH   2   5
ENDBRANCH   1   2
BRANCH   1   8
ATOM      8  C   UNL     1       3.362   3.700  17.195  0.00  0.00    +0.000 C 
BRANCH   8  11
ATOM      9  C   UNL     1       6.859   4.605  17.252  0.00  0.00    +0.000 A 
ATOM     10  N   UNL     1       5.683   4.319  17.774  0.00  0.00    +0.000 NA
ATOM     11  C   UNL     1       4.781   3.974  16.777  0.00  0.00    +0.000 A 
ATOM     12  C   UNL     1       5.284   4.058  15.492  0.00  0.00    +0.000 A 
ATOM     13  S   UNL     1       6.938   4.512  15.541  0.00  0.00    +0.000 S 
BRANCH   9  14
ATOM     14  C   UNL     1       8.039   5.029  18.069  0.00  0.00    +0.000 C 
BRANCH  14  15
ATOM     15  C   UNL     1       7.839   6.417  18.688  0.00  0.00    +0.000 C 
BRANCH  15  17
ATOM     16  C   UNL     1       8.178   8.816  17.972  0.00  0.00    +0.000 C 
ATOM     17  C   UNL     1       7.590   7.465  17.601  0.00  0.00    +0.000 C 
ENDBRANCH  15  17
ENDBRANCH  14  15
ENDBRANCH   9  14
ENDBRANCH   8  11
ENDBRANCH   1   8
BRANCH   1  18
ATOM     18  C   UNL     1       1.902   5.304  18.382  0.00  0.00    +0.000 C 
BRANCH  18  19
ATOM     19  C   UNL     1       2.299   6.785  18.230  0.00  0.00    +0.000 C 
BRANCH  19  20
ATOM     20  O   UNL     1       3.728   6.882  18.126  0.00  0.00    +0.000 OA
ATOM     21  H   UNL     1       4.098   6.316  18.829  0.00  0.00    +0.000 HD
ENDBRANCH  19  20
ENDBRANCH  18  19
ENDBRANCH   1  18
TORSDOF 11
ENDMDL
MODEL 4
REMARK VINA RESULT:      -5.9      1.494      1.617
REMARK  Name = 
REMARK  14 active torsions:
REMARK  status: ('A' for Active; 'I' for Inactive)
REMARK    1  A    between atoms: C_1  and  C_2
REMARK    2  A    between atoms: C_2  and  C_3
REMARK    3  A    between atoms: C_3  and  C_4
REMARK    4  A    between atoms: C_4  and  C_5
REMARK    5  A    between atoms: C_7  and  C_8
REMARK    6  A    between atoms: C_8  and  N_9
REMARK    7  A    between atoms: N_9  and  C_10
REMARK    8  A    between atoms: N_9  and  C_13
REMARK    9  A    between atoms: C_10  and  C_11
REMARK   10  A    between atoms: C_11  and  O_12
REMARK   11  A    between atoms: C_13  and  C_14
REMARK   12  A    between atoms: C_13  and  C_15
REMARK   13  A    between atoms: C_13  and  C_16
REMARK   14  A    between atoms: C_16  and  O_17
REMARK                            x       y       z     vdW  Elec       q    Type
REMARK                         _______ _______ _______ _____ _____    ______ ____
ROOT
ATOM      1  N   UNL     1       2.966   4.375  19.770  0.00  0.00    +0.000 NA
ENDROOT
BRANCH   1   2
ATOM      2  C   UNL     1       2.649   2.872  19.745  0.00  0.00    +0.000 C 
ATOM      3  C   UNL     1       1.727   2.458  20.928  0.00  0.00    +0.000 C 
ATOM      4  C   UNL     1       1.948   2.409  18.441  0.00  0.00    +0.000 C 
BRANCH   2   5
ATOM      5  C   UNL     1       3.946   1.998  19.896  0.00  0.00    +0.000 C 
BRANCH   5   6
ATOM      6  O   UNL     1       5.127   2.723  19.570  0.00  0.00    +0.000 OA
ATOM      7  H   UNL     1       5.859   2.093  19.643  0.00  0.00    +0.000 HD
ENDBRANCH   5   6
ENDBRANCH   2   5
ENDBRANCH   1   2
BRANCH   1   8
ATOM      8  C   UNL     1       2.698   4.968  18.427  0.00  0.00    +0.000 C 
BRANCH   8  11
ATOM      9  C   UNL     1       5.765   5.146  16.525  0.00  0.00    +0.000 A 
ATOM     10  N   UNL     1       4.724   4.553  17.072  0.00  0.00    +0.000 NA
ATOM     11  C   UNL     1       3.895   5.488  17.677  0.00  0.00    +0.000 A 
ATOM     12  C   UNL     1       4.360   6.789  17.622  0.00  0.00    +0.000 A 
ATOM     13  S   UNL     1       5.828   6.847  16.735  0.00  0.00    +0.000 S 
BRANCH   9  14
ATOM     14  C   UNL     1       6.850   4.405  15.809  0.00  0.00    +0.000 C 
BRANCH  14  15
ATOM     15  C   UNL     1       6.809   4.649  14.296  0.00  0.00    +0.000 C 
BRANCH  15  17
ATOM     16  C   UNL     1       6.141   3.396  12.206  0.00  0.00    +0.000 C 
ATOM     17  C   UNL     1       5.756   3.760  13.631  0.00  0.00    +0.000 C 
ENDBRANCH  15  17
ENDBRANCH  14  15
ENDBRANCH   9  14
ENDBRANCH   8  11
ENDBRANCH   1   8
BRANCH   1  18
ATOM     18  C   UNL     1       2.172   5.059  20.841  0.00  0.00    +0.000 C 
BRANCH  18  19
ATOM     19  C   UNL     1       1.359   6.331  20.530  0.00  0.00    +0.000 C 
BRANCH  19  20
ATOM     20  O   UNL     1       2.083   7.479  20.998  0.00  0.00    +0.000 OA
ATOM     21  H   UNL     1       1.421   8.100  21.356  0.00  0.00    +0.000 HD
ENDBRANCH  19  20
ENDBRANCH  18  19
ENDBRANCH   1  18
TORSDOF 11
ENDMDL
MODEL 5
REMARK VINA RESULT:      -5.8      1.715      2.460
REMARK  Name = 
REMARK  14 active torsions:
REMARK  status: ('A' for Active; 'I' for Inactive)
REMARK    1  A    between atoms: C_1  and  C_2
REMARK    2  A    between atoms: C_2  and  C_3
REMARK    3  A    between atoms: C_3  and  C_4
REMARK    4  A    between atoms: C_4  and  C_5
REMARK    5  A    between atoms: C_7  and  C_8
REMARK    6  A    between atoms: C_8  and  N_9
REMARK    7  A    between atoms: N_9  and  C_10
REMARK    8  A    between atoms: N_9  and  C_13
REMARK    9  A    between atoms: C_10  and  C_11
REMARK   10  A    between atoms: C_11  and  O_12
REMARK   11  A    between atoms: C_13  and  C_14
REMARK   12  A    between atoms: C_13  and  C_15
REMARK   13  A    between atoms: C_13  and  C_16
REMARK   14  A    between atoms: C_16  and  O_17
REMARK                            x       y       z     vdW  Elec       q    Type
REMARK                         _______ _______ _______ _____ _____    ______ ____
ROOT
ATOM      1  N   UNL     1       3.443   3.481  18.692  0.00  0.00    +0.000 NA
ENDROOT
BRANCH   1   2
ATOM      2  C   UNL     1       1.997   3.967  18.873  0.00  0.00    +0.000 C 
ATOM      3  C   UNL     1       1.891   5.056  19.980  0.00  0.00    +0.000 C 
ATOM      4  C   UNL     1       1.379   4.569  17.585  0.00  0.00    +0.000 C 
BRANCH   2   5
ATOM      5  C   UNL     1       1.043   2.806  19.332  0.00  0.00    +0.000 C 
BRANCH   5   6
ATOM      6  O   UNL     1       0.594   2.973  20.673  0.00  0.00    +0.000 OA
ATOM      7  H   UNL     1       0.844   2.166  21.144  0.00  0.00    +0.000 HD
ENDBRANCH   5   6
ENDBRANCH   2   5
ENDBRANCH   1   2
BRANCH   1   8
ATOM      8  C   UNL     1       4.386   4.485  19.266  0.00  0.00    +0.000 C 
BRANCH   8  11
ATOM      9  C   UNL     1       6.129   5.412  16.240  0.00  0.00    +0.000 A 
ATOM     10  N   UNL     1       5.177   4.845  16.952  0.00  0.00    +0.000 NA
ATOM     11  C   UNL     1       5.344   5.130  18.301  0.00  0.00    +0.000 A 
ATOM     12  C   UNL     1       6.468   5.878  18.595  0.00  0.00    +0.000 A 
ATOM     13  S   UNL     1       7.293   6.287  17.147  0.00  0.00    +0.000 S 
BRANCH   9  14
ATOM     14  C   UNL     1       6.234   5.278  14.753  0.00  0.00    +0.000 C 
BRANCH  14  15
ATOM     15  C   UNL     1       5.639   3.958  14.254  0.00  0.00    +0.000 C 
BRANCH  15  17
ATOM     16  C   UNL     1       5.068   3.212  11.908  0.00  0.00    +0.000 C 
ATOM     17  C   UNL     1       6.180   3.609  12.865  0.00  0.00    +0.000 C 
ENDBRANCH  15  17
ENDBRANCH  14  15
ENDBRANCH   9  14
ENDBRANCH   8  11
ENDBRANCH   1   8
BRANCH   1  18
ATOM     18  C   UNL     1       3.625   2.133  19.319  0.00  0.00    +0.000 C 
BRANCH  18  19
ATOM     19  C   UNL     1       4.343   1.984  20.674  0.00  0.00    +0.000 C 
BRANCH  19  20
ATOM     20  O   UNL     1       3.399   2.202  21.734  0.00  0.00    +0.000 OA
ATOM     21  H   UNL     1       2.899   1.371  21.839  0.00  0.00    +0.000 HD
ENDBRANCH  19  20
ENDBRANCH  18  19
ENDBRANCH   1  18
TORSDOF 11
ENDMDL
MODEL 6
REMARK VINA RESULT:      -5.8      1.670      2.972
REMARK  Name = 
REMARK  14 active torsions:
REMARK  status: ('A' for Active; 'I' for Inactive)
REMARK    1  A    between atoms: C_1  and  C_2
REMARK    2  A    between atoms: C_2  and  C_3
REMARK    3  A    between atoms: C_3  and  C_4
REMARK    4  A    between atoms: C_4  and  C_5
REMARK    5  A    between atoms: C_7  and  C_8
REMARK    6  A    between atoms: C_8  and  N_9
REMARK    7  A    between atoms: N_9  and  C_10
REMARK    8  A    between atoms: N_9  and  C_13
REMARK    9  A    between atoms: C_10  and  C_11
REMARK   10  A    between atoms: C_11  and  O_12
REMARK   11  A    between atoms: C_13  and  C_14
REMARK   12  A    between atoms: C_13  and  C_15
REMARK   13  A    between atoms: C_13  and  C_16
REMARK   14  A    between atoms: C_16  and  O_17
REMARK                            x       y       z     vdW  Elec       q    Type
REMARK                         _______ _______ _______ _____ _____    ______ ____
ROOT
ATOM      1  N   UNL     1       2.690   3.781  18.832  0.00  0.00    +0.000 NA
ENDROOT
BRANCH   1   2
ATOM      2  C   UNL     1       1.998   4.020  20.183  0.00  0.00    +0.000 C 
ATOM      3  C   UNL     1       1.983   5.529  20.563  0.00  0.00    +0.000 C 
ATOM      4  C   UNL     1       0.528   3.529  20.221  0.00  0.00    +0.000 C 
BRANCH   2   5
ATOM      5  C   UNL     1       2.746   3.297  21.360  0.00  0.00    +0.000 C 
BRANCH   5   6
ATOM      6  O   UNL     1       1.872   2.489  22.141  0.00  0.00    +0.000 OA
ATOM      7  H   UNL     1       0.994   2.575  21.740  0.00  0.00    +0.000 HD
ENDBRANCH   5   6
ENDBRANCH   2   5
ENDBRANCH   1   2
BRANCH   1   8
ATOM      8  C   UNL     1       3.289   5.057  18.342  0.00  0.00    +0.000 C 
BRANCH   8  11
ATOM      9  C   UNL     1       6.246   4.494  16.344  0.00  0.00    +0.000 A 
ATOM     10  N   UNL     1       4.953   4.582  16.577  0.00  0.00    +0.000 NA
ATOM     11  C   UNL     1       4.721   4.989  17.884  0.00  0.00    +0.000 A 
ATOM     12  C   UNL     1       5.863   5.154  18.646  0.00  0.00    +0.000 A 
ATOM     13  S   UNL     1       7.254   4.860  17.684  0.00  0.00    +0.000 S 
BRANCH   9  14
ATOM     14  C   UNL     1       6.818   4.064  15.030  0.00  0.00    +0.000 C 
BRANCH  14  15
ATOM     15  C   UNL     1       5.787   4.153  13.900  0.00  0.00    +0.000 C 
BRANCH  15  17
ATOM     16  C   UNL     1       5.568   2.771  11.796  0.00  0.00    +0.000 C 
ATOM     17  C   UNL     1       6.418   3.776  12.558  0.00  0.00    +0.000 C 
ENDBRANCH  15  17
ENDBRANCH  14  15
ENDBRANCH   9  14
ENDBRANCH   8  11
ENDBRANCH   1   8
BRANCH   1  18
ATOM     18  C   UNL     1       3.721   2.701  18.955  0.00  0.00    +0.000 C 
BRANCH  18  19
ATOM     19  C   UNL     1       3.626   1.419  18.106  0.00  0.00    +0.000 C 
BRANCH  19  20
ATOM     20  O   UNL     1       4.457   0.405  18.690  0.00  0.00    +0.000 OA
ATOM     21  H   UNL     1       4.692   0.716  19.584  0.00  0.00    +0.000 HD
ENDBRANCH  19  20
ENDBRANCH  18  19
ENDBRANCH   1  18
TORSDOF 11
ENDMDL
MODEL 7
REMARK VINA RESULT:      -5.8      0.999      1.059
REMARK  Name = 
REMARK  14 active torsions:
REMARK  status: ('A' for Active; 'I' for Inactive)
REMARK    1  A    between atoms: C_1  and  C_2
REMARK    2  A    between atoms: C_2  and  C_3
REMARK    3  A    between atoms: C_3  and  C_4
REMARK    4  A    between atoms: C_4  and  C_5
REMARK    5  A    between atoms: C_7  and  C_8
REMARK    6  A    between atoms: C_8  and  N_9
REMARK    7  A    between atoms: N_9  and  C_10
REMARK    8  A    between atoms: N_9  and  C_13
REMARK    9  A    between atoms: C_10  and  C_11
REMARK   10  A    between atoms: C_11  and  O_12
REMARK   11  A    between atoms: C_13  and  C_14
REMARK   12  A    between atoms: C_13  and  C_15
REMARK   13  A    between atoms: C_13  and  C_16
REMARK   14  A    between atoms: C_16  and  O_17
REMARK                            x       y       z     vdW  Elec       q    Type
REMARK                         _______ _______ _______ _____ _____    ______ ____
ROOT
ATOM      1  N   UNL     1       3.160   4.693  19.734  0.00  0.00    +0.000 NA
ENDROOT
BRANCH   1   2
ATOM      2  C   UNL     1       2.050   3.796  19.165  0.00  0.00    +0.000 C 
ATOM      3  C   UNL     1       0.819   3.731  20.115  0.00  0.00    +0.000 C 
ATOM      4  C   UNL     1       1.529   4.258  17.780  0.00  0.00    +0.000 C 
BRANCH   2   5
ATOM      5  C   UNL     1       2.529   2.309  18.994  0.00  0.00    +0.000 C 
BRANCH   5   6
ATOM      6  O   UNL     1       1.458   1.431  18.663  0.00  0.00    +0.000 OA
ATOM      7  H   UNL     1       1.821   0.786  18.039  0.00  0.00    +0.000 HD
ENDBRANCH   5   6
ENDBRANCH   2   5
ENDBRANCH   1   2
BRANCH   1   8
ATOM      8  C   UNL     1       4.493   4.090  19.438  0.00  0.00    +0.000 C 
BRANCH   8  11
ATOM      9  C   UNL     1       5.985   5.310  16.382  0.00  0.00    +0.000 A 
ATOM     10  N   UNL     1       5.101   4.660  17.111  0.00  0.00    +0.000 NA
ATOM     11  C   UNL     1       5.362   4.838  18.463  0.00  0.00    +0.000 A 
ATOM     12  C   UNL     1       6.490   5.590  18.737  0.00  0.00    +0.000 A 
ATOM     13  S   UNL     1       7.195   6.139  17.273  0.00  0.00    +0.000 S 
BRANCH   9  14
ATOM     14  C   UNL     1       5.982   5.302  14.886  0.00  0.00    +0.000 C 
BRANCH  14  15
ATOM     15  C   UNL     1       6.039   3.878  14.321  0.00  0.00    +0.000 C 
BRANCH  15  17
ATOM     16  C   UNL     1       5.646   2.915  12.018  0.00  0.00    +0.000 C 
ATOM     17  C   UNL     1       6.459   3.895  12.849  0.00  0.00    +0.000 C 
ENDBRANCH  15  17
ENDBRANCH  14  15
ENDBRANCH   9  14
ENDBRANCH   8  11
ENDBRANCH   1   8
BRANCH   1  18
ATOM     18  C   UNL     1       3.049   6.079  19.180  0.00  0.00    +0.000 C 
BRANCH  18  19
ATOM     19  C   UNL     1       2.236   7.161  19.917  0.00  0.00    +0.000 C 
BRANCH  19  20
ATOM     20  O   UNL     1       1.953   8.238  19.011  0.00  0.00    +0.000 OA
ATOM     21  H   UNL     1       1.019   8.481  19.149  0.00  0.00    +0.000 HD
ENDBRANCH  19  20
ENDBRANCH  18  19
ENDBRANCH   1  18
TORSDOF 11
ENDMDL
MODEL 8
REMARK VINA RESULT:      -5.8      1.252      1.366
REMARK  Name = 
REMARK  14 active torsions:
REMARK  status: ('A' for Active; 'I' for Inactive)
REMARK    1  A    between atoms: C_1  and  C_2
REMARK    2  A    between atoms: C_2  and  C_3
REMARK    3  A    between atoms: C_3  and  C_4
REMARK    4  A    between atoms: C_4  and  C_5
REMARK    5  A    between atoms: C_7  and  C_8
REMARK    6  A    between atoms: C_8  and  N_9
REMARK    7  A    between atoms: N_9  and  C_10
REMARK    8  A    between atoms: N_9  and  C_13
REMARK    9  A    between atoms: C_10  and  C_11
REMARK   10  A    between atoms: C_11  and  O_12
REMARK   11  A    between atoms: C_13  and  C_14
REMARK   12  A    between atoms: C_13  and  C_15
REMARK   13  A    between atoms: C_13  and  C_16
REMARK   14  A    between atoms: C_16  and  O_17
REMARK                            x       y       z     vdW  Elec       q    Type
REMARK                         _______ _______ _______ _____ _____    ______ ____
ROOT
ATOM      1  N   UNL     1       3.223   4.200  19.252  0.00  0.00    +0.000 NA
ENDROOT
BRANCH   1   2
ATOM      2  C   UNL     1       2.905   2.777  19.737  0.00  0.00    +0.000 C 
ATOM      3  C   UNL     1       2.449   2.766  21.225  0.00  0.00    +0.000 C 
ATOM      4  C   UNL     1       1.790   2.077  18.917  0.00  0.00    +0.000 C 
BRANCH   2   5
ATOM      5  C   UNL     1       4.166   1.842  19.675  0.00  0.00    +0.000 C 
BRANCH   5   6
ATOM      6  O   UNL     1       4.096   0.911  18.601  0.00  0.00    +0.000 OA
ATOM      7  H   UNL     1       4.964   0.484  18.557  0.00  0.00    +0.000 HD
ENDBRANCH   5   6
ENDBRANCH   2   5
ENDBRANCH   1   2
BRANCH   1   8
ATOM      8  C   UNL     1       3.384   4.200  17.768  0.00  0.00    +0.000 C 
BRANCH   8  11
ATOM      9  C   UNL     1       6.213   4.640  15.565  0.00  0.00    +0.000 A 
ATOM     10  N   UNL     1       4.942   4.482  15.870  0.00  0.00    +0.000 NA
ATOM     11  C   UNL     1       4.772   4.459  17.248  0.00  0.00    +0.000 A 
ATOM     12  C   UNL     1       5.945   4.549  17.973  0.00  0.00    +0.000 A 
ATOM     13  S   UNL     1       7.278   4.733  16.908  0.00  0.00    +0.000 S 
BRANCH   9  14
ATOM     14  C   UNL     1       6.722   4.689  14.158  0.00  0.00    +0.000 C 
BRANCH  14  15
ATOM     15  C   UNL     1       6.224   3.501  13.328  0.00  0.00    +0.000 C 
BRANCH  15  17
ATOM     16  C   UNL     1       4.715   2.842  11.412  0.00  0.00    +0.000 C 
ATOM     17  C   UNL     1       5.056   3.917  12.431  0.00  0.00    +0.000 C 
ENDBRANCH  15  17
ENDBRANCH  14  15
ENDBRANCH   9  14
ENDBRANCH   8  11
ENDBRANCH   1   8
BRANCH   1  18
ATOM     18  C   UNL     1       2.154   5.153  19.689  0.00  0.00    +0.000 C 
BRANCH  18  19
ATOM     19  C   UNL     1       2.412   6.672  19.712  0.00  0.00    +0.000 C 
BRANCH  19  20
ATOM     20  O   UNL     1       1.915   7.216  20.944  0.00  0.00    +0.000 OA
ATOM     21  H   UNL     1       1.240   6.593  21.273  0.00  0.00    +0.000 HD
ENDBRANCH  19  20
ENDBRANCH  18  19
ENDBRANCH   1  18
TORSDOF 11
ENDMDL
MODEL 9
REMARK VINA RESULT:      -5.8      2.419      3.839
REMARK  Name = 
REMARK  14 active torsions:
REMARK  status: ('A' for Active; 'I' for Inactive)
REMARK    1  A    between atoms: C_1  and  C_2
REMARK    2  A    between atoms: C_2  and  C_3
REMARK    3  A    between atoms: C_3  and  C_4
REMARK    4  A    between atoms: C_4  and  C_5
REMARK    5  A    between atoms: C_7  and  C_8
REMARK    6  A    between atoms: C_8  and  N_9
REMARK    7  A    between atoms: N_9  and  C_10
REMARK    8  A    between atoms: N_9  and  C_13
REMARK    9  A    between atoms: C_10  and  C_11
REMARK   10  A    between atoms: C_11  and  O_12
REMARK   11  A    between atoms: C_13  and  C_14
REMARK   12  A    between atoms: C_13  and  C_15
REMARK   13  A    between atoms: C_13  and  C_16
REMARK   14  A    between atoms: C_16  and  O_17
REMARK                            x       y       z     vdW  Elec       q    Type
REMARK                         _______ _______ _______ _____ _____    ______ ____
ROOT
ATOM      1  N   UNL     1       3.111   4.671  19.222  0.00  0.00    +0.000 NA
ENDROOT
BRANCH   1   2
ATOM      2  C   UNL     1       2.676   3.219  19.479  0.00  0.00    +0.000 C 
ATOM      3  C   UNL     1       1.484   3.143  20.475  0.00  0.00    +0.000 C 
ATOM      4  C   UNL     1       2.242   2.466  18.195  0.00  0.00    +0.000 C 
BRANCH   2   5
ATOM      5  C   UNL     1       3.826   2.371  20.133  0.00  0.00    +0.000 C 
BRANCH   5   6
ATOM      6  O   UNL     1       5.111   2.725  19.631  0.00  0.00    +0.000 OA
ATOM      7  H   UNL     1       5.299   2.106  18.910  0.00  0.00    +0.000 HD
ENDBRANCH   5   6
ENDBRANCH   2   5
ENDBRANCH   1   2
BRANCH   1   8
ATOM      8  C   UNL     1       3.321   4.880  17.759  0.00  0.00    +0.000 C 
BRANCH   8  11
ATOM      9  C   UNL     1       6.720   6.096  17.604  0.00  0.00    +0.000 A 
ATOM     10  N   UNL     1       5.539   5.897  18.153  0.00  0.00    +0.000 NA
ATOM     11  C   UNL     1       4.738   5.130  17.318  0.00  0.00    +0.000 A 
ATOM     12  C   UNL     1       5.319   4.801  16.107  0.00  0.00    +0.000 A 
ATOM     13  S   UNL     1       6.923   5.407  16.046  0.00  0.00    +0.000 S 
BRANCH   9  14
ATOM     14  C   UNL     1       7.803   6.900  18.252  0.00  0.00    +0.000 C 
BRANCH  14  15
ATOM     15  C   UNL     1       7.911   8.305  17.651  0.00  0.00    +0.000 C 
BRANCH  15  17
ATOM     16  C   UNL     1       8.892  10.610  17.977  0.00  0.00    +0.000 C 
ATOM     17  C   UNL     1       8.642   9.250  18.607  0.00  0.00    +0.000 C 
ENDBRANCH  15  17
ENDBRANCH  14  15
ENDBRANCH   9  14
ENDBRANCH   8  11
ENDBRANCH   1   8
BRANCH   1  18
ATOM     18  C   UNL     1       2.098   5.626  19.774  0.00  0.00    +0.000 C 
BRANCH  18  19
ATOM     19  C   UNL     1       2.369   7.142  19.788  0.00  0.00    +0.000 C 
BRANCH  19  20
ATOM     20  O   UNL     1       1.487   7.770  20.731  0.00  0.00    +0.000 OA
ATOM     21  H   UNL     1       1.499   7.218  21.535  0.00  0.00    +0.000 HD
ENDBRANCH  19  20
ENDBRANCH  18  19
ENDBRANCH   1  18
TORSDOF 11
ENDMDL
