MODEL 1
REMARK VINA RESULT:      -8.3      0.000      0.000
REMARK  Name = 
REMARK  5 active torsions:
REMARK  status: ('A' for Active; 'I' for Inactive)
REMARK    1  A    between atoms: C_1  and  C_2
REMARK    2  A    between atoms: C_8  and  C_9
REMARK    3  A    between atoms: C_9  and  N_10
REMARK    4  A    between atoms: C_17  and  C_18
REMARK    5  A    between atoms: C_18  and  C_19
REMARK                            x       y       z     vdW  Elec       q    Type
REMARK                         _______ _______ _______ _____ _____    ______ ____
ROOT
ATOM      1  N   UNL     1       4.383   4.135  17.137  0.00  0.00    +0.000 NA
ATOM      2  C   UNL     1       4.978   3.516  15.942  0.00  0.00    +0.000 C 
ATOM      3  C   UNL     1       6.361   3.910  15.445  0.00  0.00    +0.000 C 
ATOM      4  C   UNL     1       6.361   5.342  14.948  0.00  0.00    +0.000 C 
ATOM      5  N   UNL     1       6.577   6.254  16.036  0.00  0.00    +0.000 N 
ATOM      6  C   UNL     1       5.954   6.137  17.252  0.00  0.00    +0.000 C 
ATOM      7  O   UNL     1       6.615   6.482  18.233  0.00  0.00    +0.000 OA
ATOM      8  C   UNL     1       4.484   5.630  17.314  0.00  0.00    +0.000 C 
ATOM      9  H   UNL     1       7.521   6.597  16.156  0.00  0.00    +0.000 HD
ENDROOT
BRANCH   1  10
ATOM     10  C   UNL     1       3.007   3.566  17.295  0.00  0.00    +0.000 C 
BRANCH  10  18
ATOM     11  C   UNL     1       4.637   2.078  19.556  0.00  0.00    +0.000 C 
ATOM     12  C   UNL     1       3.250   2.636  19.731  0.00  0.00    +0.000 A 
ATOM     13  C   UNL     1       2.657   2.410  20.990  0.00  0.00    +0.000 A 
ATOM     14  C   UNL     1       1.381   2.882  21.268  0.00  0.00    +0.000 A 
ATOM     15  F   UNL     1       0.842   2.657  22.472  0.00  0.00    +0.000 F 
ATOM     16  C   UNL     1       0.664   3.579  20.314  0.00  0.00    +0.000 A 
ATOM     17  C   UNL     1       1.228   3.800  19.056  0.00  0.00    +0.000 A 
ATOM     18  C   UNL     1       2.507   3.309  18.721  0.00  0.00    +0.000 A 
ENDBRANCH  10  18
ENDBRANCH   1  10
BRANCH   8  19
ATOM     19  C   UNL     1       3.970   6.091  18.733  0.00  0.00    +0.000 C 
BRANCH  19  20
ATOM     20  C   UNL     1       2.909   7.186  18.801  0.00  0.00    +0.000 A 
ATOM     21  C   UNL     1       2.145   7.396  19.956  0.00  0.00    +0.000 A 
ATOM     22  C   UNL     1       1.281   8.494  20.053  0.00  0.00    +0.000 A 
ATOM     23  C   UNL     1       1.160   9.392  18.995  0.00  0.00    +0.000 A 
ATOM     24  C   UNL     1       1.895   9.187  17.832  0.00  0.00    +0.000 A 
ATOM     25  C   UNL     1       2.763   8.094  17.735  0.00  0.00    +0.000 A 
ENDBRANCH  19  20
ENDBRANCH   8  19
TORSDOF 4
ENDMDL
MODEL 2
REMARK VINA RESULT:      -7.9      2.705      5.918
REMARK  Name = 
REMARK  5 active torsions:
REMARK  status: ('A' for Active; 'I' for Inactive)
REMARK    1  A    between atoms: C_1  and  C_2
REMARK    2  A    between atoms: C_8  and  C_9
REMARK    3  A    between atoms: C_9  and  N_10
REMARK    4  A    between atoms: C_17  and  C_18
REMARK    5  A    between atoms: C_18  and  C_19
REMARK                            x       y       z     vdW  Elec       q    Type
REMARK                         _______ _______ _______ _____ _____    ______ ____
ROOT
ATOM      1  N   UNL     1       3.139   4.447  19.778  0.00  0.00    +0.000 NA
ATOM      2  C   UNL     1       1.739   4.492  20.226  0.00  0.00    +0.000 C 
ATOM      3  C   UNL     1       0.843   3.263  20.170  0.00  0.00    +0.000 C 
ATOM      4  C   UNL     1       0.578   2.863  18.733  0.00  0.00    +0.000 C 
ATOM      5  N   UNL     1       1.634   2.021  18.241  0.00  0.00    +0.000 N 
ATOM      6  C   UNL     1       2.963   2.272  18.463  0.00  0.00    +0.000 C 
ATOM      7  O   UNL     1       3.684   1.282  18.602  0.00  0.00    +0.000 OA
ATOM      8  C   UNL     1       3.472   3.743  18.486  0.00  0.00    +0.000 C 
ATOM      9  H   UNL     1       1.457   1.024  18.252  0.00  0.00    +0.000 HD
ENDROOT
BRANCH   1  10
ATOM     10  C   UNL     1       3.695   5.831  19.910  0.00  0.00    +0.000 C 
BRANCH  10  18
ATOM     11  C   UNL     1       3.766   7.064  17.002  0.00  0.00    +0.000 C 
ATOM     12  C   UNL     1       2.864   7.542  18.109  0.00  0.00    +0.000 A 
ATOM     13  C   UNL     1       2.051   8.651  17.797  0.00  0.00    +0.000 A 
ATOM     14  C   UNL     1       1.177   9.176  18.739  0.00  0.00    +0.000 A 
ATOM     15  F   UNL     1       0.413  10.227  18.417  0.00  0.00    +0.000 F 
ATOM     16  C   UNL     1       1.089   8.625  20.003  0.00  0.00    +0.000 A 
ATOM     17  C   UNL     1       1.897   7.537  20.337  0.00  0.00    +0.000 A 
ATOM     18  C   UNL     1       2.823   6.993  19.421  0.00  0.00    +0.000 A 
ENDBRANCH  10  18
ENDBRANCH   1  10
BRANCH   8  19
ATOM     19  C   UNL     1       5.029   3.622  18.263  0.00  0.00    +0.000 C 
BRANCH  19  20
ATOM     20  C   UNL     1       5.618   4.134  16.952  0.00  0.00    +0.000 A 
ATOM     21  C   UNL     1       6.906   4.681  16.890  0.00  0.00    +0.000 A 
ATOM     22  C   UNL     1       7.485   5.010  15.659  0.00  0.00    +0.000 A 
ATOM     23  C   UNL     1       6.784   4.807  14.471  0.00  0.00    +0.000 A 
ATOM     24  C   UNL     1       5.496   4.285  14.515  0.00  0.00    +0.000 A 
ATOM     25  C   UNL     1       4.916   3.950  15.744  0.00  0.00    +0.000 A 
ENDBRANCH  19  20
ENDBRANCH   8  19
TORSDOF 4
ENDMDL
MODEL 3
REMARK VINA RESULT:      -7.9      2.999      5.454
REMARK  Name = 
REMARK  5 active torsions:
REMARK  status: ('A' for Active; 'I' for Inactive)
REMARK    1  A    between atoms: C_1  and  C_2
REMARK    2  A    between atoms: C_8  and  C_9
REMARK    3  A    between atoms: C_9  and  N_10
REMARK    4  A    between atoms: C_17  and  C_18
REMARK    5  A    between atoms: C_18  and  C_19
REMARK                            x       y       z     vdW  Elec       q    Type
REMARK                         _______ _______ _______ _____ _____    ______ ____
ROOT
ATOM      1  N   UNL     1       4.157   4.088  19.288  0.00  0.00    +0.000 NA
ATOM      2  C   UNL     1       4.461   2.976  20.202  0.00  0.00    +0.000 C 
ATOM      3  C   UNL     1       3.375   2.032  20.699  0.00  0.00    +0.000 C 
ATOM      4  C   UNL     1       2.401   2.768  21.598  0.00  0.00    +0.000 C 
ATOM      5  N   UNL     1       1.379   3.408  20.817  0.00  0.00    +0.000 N 
ATOM      6  C   UNL     1       1.638   4.106  19.666  0.00  0.00    +0.000 C 
ATOM      7  O   UNL     1       0.774   4.042  18.789  0.00  0.00    +0.000 OA
ATOM      8  C   UNL     1       2.945   4.945  19.555  0.00  0.00    +0.000 C 
ATOM      9  H   UNL     1       0.497   2.918  20.741  0.00  0.00    +0.000 HD
ENDROOT
BRANCH   1  10
ATOM     10  C   UNL     1       5.431   4.840  19.061  0.00  0.00    +0.000 C 
BRANCH  10  18
ATOM     11  C   UNL     1       7.698   6.792  18.044  0.00  0.00    +0.000 C 
ATOM     12  C   UNL     1       7.001   5.773  17.183  0.00  0.00    +0.000 A 
ATOM     13  C   UNL     1       7.381   5.760  15.825  0.00  0.00    +0.000 A 
ATOM     14  C   UNL     1       6.807   4.860  14.937  0.00  0.00    +0.000 A 
ATOM     15  F   UNL     1       7.187   4.865  13.654  0.00  0.00    +0.000 F 
ATOM     16  C   UNL     1       5.849   3.961  15.365  0.00  0.00    +0.000 A 
ATOM     17  C   UNL     1       5.447   3.968  16.703  0.00  0.00    +0.000 A 
ATOM     18  C   UNL     1       5.980   4.888  17.631  0.00  0.00    +0.000 A 
ENDBRANCH  10  18
ENDBRANCH   1  10
BRANCH   8  19
ATOM     19  C   UNL     1       2.664   5.954  18.375  0.00  0.00    +0.000 C 
BRANCH  19  20
ATOM     20  C   UNL     1       2.213   7.370  18.722  0.00  0.00    +0.000 A 
ATOM     21  C   UNL     1       2.077   8.358  17.738  0.00  0.00    +0.000 A 
ATOM     22  C   UNL     1       1.525   9.606  18.049  0.00  0.00    +0.000 A 
ATOM     23  C   UNL     1       1.108   9.890  19.348  0.00  0.00    +0.000 A 
ATOM     24  C   UNL     1       1.254   8.928  20.342  0.00  0.00    +0.000 A 
ATOM     25  C   UNL     1       1.802   7.678  20.033  0.00  0.00    +0.000 A 
ENDBRANCH  19  20
ENDBRANCH   8  19
TORSDOF 4
ENDMDL
MODEL 4
REMARK VINA RESULT:      -7.8      2.536      4.962
REMARK  Name = 
REMARK  5 active torsions:
REMARK  status: ('A' for Active; 'I' for Inactive)
REMARK    1  A    between atoms: C_1  and  C_2
REMARK    2  A    between atoms: C_8  and  C_9
REMARK    3  A    between atoms: C_9  and  N_10
REMARK    4  A    between atoms: C_17  and  C_18
REMARK    5  A    between atoms: C_18  and  C_19
REMARK                            x       y       z     vdW  Elec       q    Type
REMARK                         _______ _______ _______ _____ _____    ______ ____
ROOT
ATOM      1  N   UNL     1       5.175   4.564  17.998  0.00  0.00    +0.000 NA
ATOM      2  C   UNL     1       5.794   4.635  19.331  0.00  0.00    +0.000 C 
ATOM      3  C   UNL     1       6.758   5.751  19.705  0.00  0.00    +0.000 C 
ATOM      4  C   UNL     1       8.036   5.644  18.898  0.00  0.00    +0.000 C 
ATOM      5  N   UNL     1       7.889   6.301  17.628  0.00  0.00    +0.000 N 
ATOM      6  C   UNL     1       6.776   6.172  16.839  0.00  0.00    +0.000 C 
ATOM      7  O   UNL     1       6.455   7.170  16.191  0.00  0.00    +0.000 OA
ATOM      8  C   UNL     1       6.032   4.806  16.780  0.00  0.00    +0.000 C 
ATOM      9  H   UNL     1       8.262   7.239  17.561  0.00  0.00    +0.000 HD
ENDROOT
BRANCH   1  10
ATOM     10  C   UNL     1       4.347   3.318  17.956  0.00  0.00    +0.000 C 
BRANCH  10  18
ATOM     11  C   UNL     1       1.325   4.221  17.765  0.00  0.00    +0.000 C 
ATOM     12  C   UNL     1       1.938   3.542  18.960  0.00  0.00    +0.000 A 
ATOM     13  C   UNL     1       1.081   3.364  20.066  0.00  0.00    +0.000 A 
ATOM     14  C   UNL     1       1.536   2.746  21.223  0.00  0.00    +0.000 A 
ATOM     15  F   UNL     1       0.702   2.586  22.258  0.00  0.00    +0.000 F 
ATOM     16  C   UNL     1       2.840   2.296  21.317  0.00  0.00    +0.000 A 
ATOM     17  C   UNL     1       3.708   2.477  20.238  0.00  0.00    +0.000 A 
ATOM     18  C   UNL     1       3.297   3.129  19.057  0.00  0.00    +0.000 A 
ENDBRANCH  10  18
ENDBRANCH   1  10
BRANCH   8  19
ATOM     19  C   UNL     1       5.171   4.886  15.460  0.00  0.00    +0.000 C 
BRANCH  19  20
ATOM     20  C   UNL     1       5.784   4.373  14.160  0.00  0.00    +0.000 A 
ATOM     21  C   UNL     1       5.079   3.517  13.304  0.00  0.00    +0.000 A 
ATOM     22  C   UNL     1       5.596   3.174  12.050  0.00  0.00    +0.000 A 
ATOM     23  C   UNL     1       6.829   3.673  11.634  0.00  0.00    +0.000 A 
ATOM     24  C   UNL     1       7.553   4.507  12.479  0.00  0.00    +0.000 A 
ATOM     25  C   UNL     1       7.035   4.856  13.732  0.00  0.00    +0.000 A 
ENDBRANCH  19  20
ENDBRANCH   8  19
TORSDOF 4
ENDMDL
MODEL 5
REMARK VINA RESULT:      -7.7      3.061      5.994
REMARK  Name = 
REMARK  5 active torsions:
REMARK  status: ('A' for Active; 'I' for Inactive)
REMARK    1  A    between atoms: C_1  and  C_2
REMARK    2  A    between atoms: C_8  and  C_9
REMARK    3  A    between atoms: C_9  and  N_10
REMARK    4  A    between atoms: C_17  and  C_18
REMARK    5  A    between atoms: C_18  and  C_19
REMARK                            x       y       z     vdW  Elec       q    Type
REMARK                         _______ _______ _______ _____ _____    ______ ____
ROOT
ATOM      1  N   UNL     1       2.555   7.588  18.701  0.00  0.00    +0.000 NA
ATOM      2  C   UNL     1       2.308   8.638  17.701  0.00  0.00    +0.000 C 
ATOM      3  C   UNL     1       1.796  10.015  18.100  0.00  0.00    +0.000 C 
ATOM      4  C   UNL     1       0.385   9.922  18.643  0.00  0.00    +0.000 C 
ATOM      5  N   UNL     1       0.404   9.607  20.045  0.00  0.00    +0.000 N 
ATOM      6  C   UNL     1       1.224   8.656  20.593  0.00  0.00    +0.000 C 
ATOM      7  O   UNL     1       1.642   8.891  21.728  0.00  0.00    +0.000 OA
ATOM      8  C   UNL     1       1.536   7.359  19.790  0.00  0.00    +0.000 C 
ATOM      9  H   UNL     1       0.293  10.386  20.683  0.00  0.00    +0.000 HD
ENDROOT
BRANCH   1  10
ATOM     10  C   UNL     1       2.983   6.359  17.961  0.00  0.00    +0.000 C 
BRANCH  10  18
ATOM     11  C   UNL     1       5.027   6.739  15.581  0.00  0.00    +0.000 C 
ATOM     12  C   UNL     1       5.381   6.162  16.926  0.00  0.00    +0.000 A 
ATOM     13  C   UNL     1       6.714   5.726  17.071  0.00  0.00    +0.000 A 
ATOM     14  C   UNL     1       7.156   5.180  18.268  0.00  0.00    +0.000 A 
ATOM     15  F   UNL     1       8.427   4.777  18.381  0.00  0.00    +0.000 F 
ATOM     16  C   UNL     1       6.296   5.047  19.342  0.00  0.00    +0.000 A 
ATOM     17  C   UNL     1       4.967   5.458  19.214  0.00  0.00    +0.000 A 
ATOM     18  C   UNL     1       4.469   5.987  18.005  0.00  0.00    +0.000 A 
ENDBRANCH  10  18
ENDBRANCH   1  10
BRANCH   8  19
ATOM     19  C   UNL     1       2.054   6.340  20.877  0.00  0.00    +0.000 C 
BRANCH  19  20
ATOM     20  C   UNL     1       1.747   4.857  20.688  0.00  0.00    +0.000 A 
ATOM     21  C   UNL     1       1.041   4.391  19.573  0.00  0.00    +0.000 A 
ATOM     22  C   UNL     1       0.895   3.017  19.340  0.00  0.00    +0.000 A 
ATOM     23  C   UNL     1       1.445   2.090  20.223  0.00  0.00    +0.000 A 
ATOM     24  C   UNL     1       2.132   2.535  21.348  0.00  0.00    +0.000 A 
ATOM     25  C   UNL     1       2.283   3.907  21.579  0.00  0.00    +0.000 A 
ENDBRANCH  19  20
ENDBRANCH   8  19
TORSDOF 4
ENDMDL
MODEL 6
REMARK VINA RESULT:      -7.6      2.861      5.759
REMARK  Name = 
REMARK  5 active torsions:
REMARK  status: ('A' for Active; 'I' for Inactive)
REMARK    1  A    between atoms: C_1  and  C_2
REMARK    2  A    between atoms: C_8  and  C_9
REMARK    3  A    between atoms: C_9  and  N_10
REMARK    4  A    between atoms: C_17  and  C_18
REMARK    5  A    between atoms: C_18  and  C_19
REMARK                            x       y       z     vdW  Elec       q    Type
REMARK                         _______ _______ _______ _____ _____    ______ ____
ROOT
ATOM      1  N   UNL     1       2.812   4.192  20.135  0.00  0.00    +0.000 NA
ATOM      2  C   UNL     1       1.343   4.161  20.208  0.00  0.00    +0.000 C 
ATOM      3  C   UNL     1       0.550   2.925  19.813  0.00  0.00    +0.000 C 
ATOM      4  C   UNL     1       0.681   2.660  18.327  0.00  0.00    +0.000 C 
ATOM      5  N   UNL     1       1.865   1.894  18.052  0.00  0.00    +0.000 N 
ATOM      6  C   UNL     1       3.079   2.151  18.633  0.00  0.00    +0.000 C 
ATOM      7  O   UNL     1       3.786   1.169  18.866  0.00  0.00    +0.000 OA
ATOM      8  C   UNL     1       3.496   3.624  18.916  0.00  0.00    +0.000 C 
ATOM      9  H   UNL     1       1.738   0.897  17.929  0.00  0.00    +0.000 HD
ENDROOT
BRANCH   1  10
ATOM     10  C   UNL     1       3.250   5.568  20.528  0.00  0.00    +0.000 C 
BRANCH  10  18
ATOM     11  C   UNL     1       1.211   7.757  21.546  0.00  0.00    +0.000 C 
ATOM     12  C   UNL     1       1.806   7.723  20.163  0.00  0.00    +0.000 A 
ATOM     13  C   UNL     1       1.353   8.724  19.280  0.00  0.00    +0.000 A 
ATOM     14  C   UNL     1       1.835   8.793  17.980  0.00  0.00    +0.000 A 
ATOM     15  F   UNL     1       1.392   9.755  17.161  0.00  0.00    +0.000 F 
ATOM     16  C   UNL     1       2.765   7.878  17.522  0.00  0.00    +0.000 A 
ATOM     17  C   UNL     1       3.214   6.869  18.377  0.00  0.00    +0.000 A 
ATOM     18  C   UNL     1       2.726   6.742  19.695  0.00  0.00    +0.000 A 
ENDBRANCH  10  18
ENDBRANCH   1  10
BRANCH   8  19
ATOM     19  C   UNL     1       5.062   3.560  19.095  0.00  0.00    +0.000 C 
BRANCH  19  20
ATOM     20  C   UNL     1       5.923   4.566  18.335  0.00  0.00    +0.000 A 
ATOM     21  C   UNL     1       5.820   4.717  16.946  0.00  0.00    +0.000 A 
ATOM     22  C   UNL     1       6.508   5.742  16.285  0.00  0.00    +0.000 A 
ATOM     23  C   UNL     1       7.316   6.625  16.999  0.00  0.00    +0.000 A 
ATOM     24  C   UNL     1       7.446   6.477  18.376  0.00  0.00    +0.000 A 
ATOM     25  C   UNL     1       6.755   5.457  19.040  0.00  0.00    +0.000 A 
ENDBRANCH  19  20
ENDBRANCH   8  19
TORSDOF 4
ENDMDL
MODEL 7
REMARK VINA RESULT:      -7.5      2.640      5.324
REMARK  Name = 
REMARK  5 active torsions:
REMARK  status: ('A' for Active; 'I' for Inactive)
REMARK    1  A    between atoms: C_1  and  C_2
REMARK    2  A    between atoms: C_8  and  C_9
REMARK    3  A    between atoms: C_9  and  N_10
REMARK    4  A    between atoms: C_17  and  C_18
REMARK    5  A    between atoms: C_18  and  C_19
REMARK                            x       y       z     vdW  Elec       q    Type
REMARK                         _______ _______ _______ _____ _____    ______ ____
ROOT
ATOM      1  N   UNL     1       2.812   4.713  18.892  0.00  0.00    +0.000 NA
ATOM      2  C   UNL     1       1.568   4.122  18.374  0.00  0.00    +0.000 C 
ATOM      3  C   UNL     1       1.240   2.650  18.571  0.00  0.00    +0.000 C 
ATOM      4  C   UNL     1       2.210   1.780  17.797  0.00  0.00    +0.000 C 
ATOM      5  N   UNL     1       3.399   1.540  18.567  0.00  0.00    +0.000 N 
ATOM      6  C   UNL     1       4.047   2.517  19.276  0.00  0.00    +0.000 C 
ATOM      7  O   UNL     1       4.575   2.160  20.331  0.00  0.00    +0.000 OA
ATOM      8  C   UNL     1       4.109   3.965  18.707  0.00  0.00    +0.000 C 
ATOM      9  H   UNL     1       3.446   0.657  19.060  0.00  0.00    +0.000 HD
ENDROOT
BRANCH   1  10
ATOM     10  C   UNL     1       2.837   6.147  18.465  0.00  0.00    +0.000 C 
BRANCH  10  18
ATOM     11  C   UNL     1       2.095   9.098  17.612  0.00  0.00    +0.000 C 
ATOM     12  C   UNL     1       1.766   8.488  18.949  0.00  0.00    +0.000 A 
ATOM     13  C   UNL     1       1.130   9.345  19.870  0.00  0.00    +0.000 A 
ATOM     14  C   UNL     1       0.777   8.891  21.133  0.00  0.00    +0.000 A 
ATOM     15  F   UNL     1       0.171   9.724  21.989  0.00  0.00    +0.000 F 
ATOM     16  C   UNL     1       1.044   7.591  21.516  0.00  0.00    +0.000 A 
ATOM     17  C   UNL     1       1.688   6.730  20.624  0.00  0.00    +0.000 A 
ATOM     18  C   UNL     1       2.094   7.160  19.343  0.00  0.00    +0.000 A 
ENDBRANCH  10  18
ENDBRANCH   1  10
BRANCH   8  19
ATOM     19  C   UNL     1       5.298   4.644  19.490  0.00  0.00    +0.000 C 
BRANCH  19  20
ATOM     20  C   UNL     1       6.207   5.611  18.737  0.00  0.00    +0.000 A 
ATOM     21  C   UNL     1       5.774   6.275  17.582  0.00  0.00    +0.000 A 
ATOM     22  C   UNL     1       6.565   7.266  16.988  0.00  0.00    +0.000 A 
ATOM     23  C   UNL     1       7.803   7.603  17.533  0.00  0.00    +0.000 A 
ATOM     24  C   UNL     1       8.258   6.938  18.667  0.00  0.00    +0.000 A 
ATOM     25  C   UNL     1       7.467   5.951  19.266  0.00  0.00    +0.000 A 
ENDBRANCH  19  20
ENDBRANCH   8  19
TORSDOF 4
ENDMDL
MODEL 8
REMARK VINA RESULT:      -7.5      0.620      1.484
REMARK  Name = 
REMARK  5 active torsions:
REMARK  status: ('A' for Active; 'I' for Inactive)
REMARK    1  A    between atoms: C_1  and  C_2
REMARK    2  A    between atoms: C_8  and  C_9
REMARK    3  A    between atoms: C_9  and  N_10
REMARK    4  A    between atoms: C_17  and  C_18
REMARK    5  A    between atoms: C_18  and  C_19
REMARK                            x       y       z     vdW  Elec       q    Type
REMARK                         _______ _______ _______ _____ _____    ______ ____
ROOT
ATOM      1  N   UNL     1       5.044   3.978  17.098  0.00  0.00    +0.000 NA
ATOM      2  C   UNL     1       5.828   3.524  15.940  0.00  0.00    +0.000 C 
ATOM      3  C   UNL     1       7.149   4.178  15.564  0.00  0.00    +0.000 C 
ATOM      4  C   UNL     1       6.926   5.605  15.106  0.00  0.00    +0.000 C 
ATOM      5  N   UNL     1       6.893   6.498  16.231  0.00  0.00    +0.000 N 
ATOM      6  C   UNL     1       6.214   6.223  17.390  0.00  0.00    +0.000 C 
ATOM      7  O   UNL     1       6.727   6.641  18.429  0.00  0.00    +0.000 OA
ATOM      8  C   UNL     1       4.859   5.459  17.322  0.00  0.00    +0.000 C 
ATOM      9  H   UNL     1       7.748   6.999  16.435  0.00  0.00    +0.000 HD
ENDROOT
BRANCH   1  10
ATOM     10  C   UNL     1       3.786   3.168  17.132  0.00  0.00    +0.000 C 
BRANCH  10  18
ATOM     11  C   UNL     1       0.847   4.208  17.649  0.00  0.00    +0.000 C 
ATOM     12  C   UNL     1       1.714   3.550  18.689  0.00  0.00    +0.000 A 
ATOM     13  C   UNL     1       1.156   3.460  19.980  0.00  0.00    +0.000 A 
ATOM     14  C   UNL     1       1.862   2.870  21.019  0.00  0.00    +0.000 A 
ATOM     15  F   UNL     1       1.309   2.794  22.235  0.00  0.00    +0.000 F 
ATOM     16  C   UNL     1       3.131   2.361  20.810  0.00  0.00    +0.000 A 
ATOM     17  C   UNL     1       3.708   2.455  19.541  0.00  0.00    +0.000 A 
ATOM     18  C   UNL     1       3.038   3.076  18.467  0.00  0.00    +0.000 A 
ENDBRANCH  10  18
ENDBRANCH   1  10
BRANCH   8  19
ATOM     19  C   UNL     1       4.167   5.765  18.707  0.00  0.00    +0.000 C 
BRANCH  19  20
ATOM     20  C   UNL     1       3.119   6.873  18.767  0.00  0.00    +0.000 A 
ATOM     21  C   UNL     1       2.326   7.071  19.904  0.00  0.00    +0.000 A 
ATOM     22  C   UNL     1       1.474   8.178  19.999  0.00  0.00    +0.000 A 
ATOM     23  C   UNL     1       1.396   9.100  18.956  0.00  0.00    +0.000 A 
ATOM     24  C   UNL     1       2.161   8.908  17.810  0.00  0.00    +0.000 A 
ATOM     25  C   UNL     1       3.017   7.804  17.716  0.00  0.00    +0.000 A 
ENDBRANCH  19  20
ENDBRANCH   8  19
TORSDOF 4
ENDMDL
MODEL 9
REMARK VINA RESULT:      -7.5      2.511      6.017
REMARK  Name = 
REMARK  5 active torsions:
REMARK  status: ('A' for Active; 'I' for Inactive)
REMARK    1  A    between atoms: C_1  and  C_2
REMARK    2  A    between atoms: C_8  and  C_9
REMARK    3  A    between atoms: C_9  and  N_10
REMARK    4  A    between atoms: C_17  and  C_18
REMARK    5  A    between atoms: C_18  and  C_19
REMARK                            x       y       z     vdW  Elec       q    Type
REMARK                         _______ _______ _______ _____ _____    ______ ____
ROOT
ATOM      1  N   UNL     1       2.788   5.299  19.490  0.00  0.00    +0.000 NA
ATOM      2  C   UNL     1       1.434   4.926  19.929  0.00  0.00    +0.000 C 
ATOM      3  C   UNL     1       1.145   3.575  20.566  0.00  0.00    +0.000 C 
ATOM      4  C   UNL     1       1.342   2.459  19.561  0.00  0.00    +0.000 C 
ATOM      5  N   UNL     1       2.721   2.057  19.516  0.00  0.00    +0.000 N 
ATOM      6  C   UNL     1       3.764   2.945  19.501  0.00  0.00    +0.000 C 
ATOM      7  O   UNL     1       4.786   2.589  20.091  0.00  0.00    +0.000 OA
ATOM      8  C   UNL     1       3.615   4.290  18.732  0.00  0.00    +0.000 C 
ATOM      9  H   UNL     1       2.967   1.233  20.050  0.00  0.00    +0.000 HD
ENDROOT
BRANCH   1  10
ATOM     10  C   UNL     1       2.695   6.652  18.856  0.00  0.00    +0.000 C 
BRANCH  10  18
ATOM     11  C   UNL     1       1.540   9.315  17.609  0.00  0.00    +0.000 C 
ATOM     12  C   UNL     1       1.454   8.949  19.067  0.00  0.00    +0.000 A 
ATOM     13  C   UNL     1       0.856   9.913  19.904  0.00  0.00    +0.000 A 
ATOM     14  C   UNL     1       0.720   9.683  21.266  0.00  0.00    +0.000 A 
ATOM     15  F   UNL     1       0.145  10.613  22.039  0.00  0.00    +0.000 F 
ATOM     16  C   UNL     1       1.172   8.505  21.831  0.00  0.00    +0.000 A 
ATOM     17  C   UNL     1       1.781   7.544  21.022  0.00  0.00    +0.000 A 
ATOM     18  C   UNL     1       1.970   7.752  19.639  0.00  0.00    +0.000 A 
ENDBRANCH  10  18
ENDBRANCH   1  10
BRANCH   8  19
ATOM     19  C   UNL     1       5.097   4.785  18.517  0.00  0.00    +0.000 C 
BRANCH  19  20
ATOM     20  C   UNL     1       5.660   4.801  17.098  0.00  0.00    +0.000 A 
ATOM     21  C   UNL     1       7.020   5.025  16.851  0.00  0.00    +0.000 A 
ATOM     22  C   UNL     1       7.544   4.891  15.559  0.00  0.00    +0.000 A 
ATOM     23  C   UNL     1       6.717   4.541  14.494  0.00  0.00    +0.000 A 
ATOM     24  C   UNL     1       5.360   4.335  14.717  0.00  0.00    +0.000 A 
ATOM     25  C   UNL     1       4.834   4.463  16.008  0.00  0.00    +0.000 A 
ENDBRANCH  19  20
ENDBRANCH   8  19
TORSDOF 4
ENDMDL
