MODEL 1
REMARK VINA RESULT:      -6.3      0.000      0.000
REMARK  Name = 
REMARK  7 active torsions:
REMARK  status: ('A' for Active; 'I' for Inactive)
REMARK    1  A    between atoms: C_1  and  C_2
REMARK    2  A    between atoms: C_4  and  O_5
REMARK    3  A    between atoms: C_18  and  C_19
REMARK    4  A    between atoms: C_23  and  O_24
REMARK    5  A    between atoms: C_23  and  C_25
REMARK    6  A    between atoms: C_25  and  C_27
REMARK    7  A    between atoms: C_27  and  O_28
REMARK                            x       y       z     vdW  Elec       q    Type
REMARK                         _______ _______ _______ _____ _____    ______ ____
ROOT
ATOM      1  C   UNL     1      -5.399  15.094  20.121  0.00  0.00    +0.000 C 
ATOM      2  C   UNL     1      -5.082  13.868  21.042  0.00  0.00    +0.000 C 
ATOM      3  C   UNL     1      -4.184  14.382  22.191  0.00  0.00    +0.000 C 
ATOM      4  C   UNL     1      -2.668  14.293  21.904  0.00  0.00    +0.000 C 
ATOM      5  C   UNL     1      -2.318  12.881  21.374  0.00  0.00    +0.000 C 
ATOM      6  F   UNL     1      -3.072  12.042  22.211  0.00  0.00    +0.000 F 
ATOM      7  C   UNL     1      -2.982  12.709  19.962  0.00  0.00    +0.000 C 
ATOM      8  C   UNL     1      -2.494  11.422  19.300  0.00  0.00    +0.000 C 
ATOM      9  C   UNL     1      -0.983  11.465  19.111  0.00  0.00    +0.000 C 
ATOM     10  F   UNL     1      -0.628  10.338  18.426  0.00  0.00    +0.000 F 
ATOM     11  C   UNL     1      -0.223  11.566  20.406  0.00  0.00    +0.000 C 
ATOM     12  C   UNL     1       0.761  10.670  20.650  0.00  0.00    +0.000 C 
ATOM     13  C   UNL     1       0.199   9.588  21.537  0.00  0.00    +0.000 C 
ATOM     14  O   UNL     1       0.448   8.404  21.366  0.00  0.00    +0.000 OA
ATOM     15  C   UNL     1      -0.551  10.082  22.720  0.00  0.00    +0.000 C 
ATOM     16  C   UNL     1      -0.900  11.378  22.787  0.00  0.00    +0.000 C 
ATOM     17  C   UNL     1      -0.818  12.368  21.582  0.00  0.00    +0.000 C 
ATOM     18  C   UNL     1       0.211  13.465  21.946  0.00  0.00    +0.000 C 
ATOM     19  C   UNL     1      -4.492  12.664  20.237  0.00  0.00    +0.000 C 
ATOM     20  C   UNL     1      -5.632  12.267  19.290  0.00  0.00    +0.000 C 
ATOM     21  C   UNL     1      -6.920  12.635  20.118  0.00  0.00    +0.000 C 
ATOM     22  C   UNL     1      -6.392  13.126  21.488  0.00  0.00    +0.000 C 
ENDROOT
BRANCH   4  23
ATOM     23  O   UNL     1      -2.221  15.320  21.020  0.00  0.00    +0.000 OA
ATOM     24  H   UNL     1      -1.976  16.118  21.511  0.00  0.00    +0.000 HD
ENDBRANCH   4  23
BRANCH  22  25
ATOM     25  O   UNL     1      -6.097  11.935  22.257  0.00  0.00    +0.000 OA
ATOM     26  H   UNL     1      -6.661  11.195  21.963  0.00  0.00    +0.000 HD
ENDBRANCH  22  25
BRANCH  22  27
ATOM     27  C   UNL     1      -7.377  13.886  22.387  0.00  0.00    +0.000 C 
ATOM     28  O   UNL     1      -7.914  14.952  22.063  0.00  0.00    +0.000 OA
BRANCH  27  29
ATOM     29  C   UNL     1      -7.614  13.307  23.788  0.00  0.00    +0.000 C 
BRANCH  29  30
ATOM     30  O   UNL     1      -6.456  13.358  24.611  0.00  0.00    +0.000 OA
ATOM     31  H   UNL     1      -5.750  13.747  24.056  0.00  0.00    +0.000 HD
ENDBRANCH  29  30
ENDBRANCH  27  29
ENDBRANCH  22  27
TORSDOF 5
ENDMDL
MODEL 2
REMARK VINA RESULT:      -6.2      2.268      6.557
REMARK  Name = 
REMARK  7 active torsions:
REMARK  status: ('A' for Active; 'I' for Inactive)
REMARK    1  A    between atoms: C_1  and  C_2
REMARK    2  A    between atoms: C_4  and  O_5
REMARK    3  A    between atoms: C_18  and  C_19
REMARK    4  A    between atoms: C_23  and  O_24
REMARK    5  A    between atoms: C_23  and  C_25
REMARK    6  A    between atoms: C_25  and  C_27
REMARK    7  A    between atoms: C_27  and  O_28
REMARK                            x       y       z     vdW  Elec       q    Type
REMARK                         _______ _______ _______ _____ _____    ______ ____
ROOT
ATOM      1  C   UNL     1       0.413  14.272  21.760  0.00  0.00    +0.000 C 
ATOM      2  C   UNL     1      -0.793  13.536  21.084  0.00  0.00    +0.000 C 
ATOM      3  C   UNL     1      -1.687  14.621  20.442  0.00  0.00    +0.000 C 
ATOM      4  C   UNL     1      -2.802  15.158  21.367  0.00  0.00    +0.000 C 
ATOM      5  C   UNL     1      -3.563  13.973  22.011  0.00  0.00    +0.000 C 
ATOM      6  F   UNL     1      -3.710  13.081  20.937  0.00  0.00    +0.000 F 
ATOM      7  C   UNL     1      -2.582  13.235  22.989  0.00  0.00    +0.000 C 
ATOM      8  C   UNL     1      -3.338  12.192  23.811  0.00  0.00    +0.000 C 
ATOM      9  C   UNL     1      -4.422  12.862  24.644  0.00  0.00    +0.000 C 
ATOM     10  F   UNL     1      -4.987  11.895  25.427  0.00  0.00    +0.000 F 
ATOM     11  C   UNL     1      -5.468  13.558  23.815  0.00  0.00    +0.000 C 
ATOM     12  C   UNL     1      -6.770  13.265  24.038  0.00  0.00    +0.000 C 
ATOM     13  C   UNL     1      -7.207  12.256  23.004  0.00  0.00    +0.000 C 
ATOM     14  O   UNL     1      -7.915  11.300  23.279  0.00  0.00    +0.000 OA
ATOM     15  C   UNL     1      -6.837  12.600  21.607  0.00  0.00    +0.000 C 
ATOM     16  C   UNL     1      -5.954  13.587  21.380  0.00  0.00    +0.000 C 
ATOM     17  C   UNL     1      -5.066  14.236  22.489  0.00  0.00    +0.000 C 
ATOM     18  C   UNL     1      -5.472  15.725  22.603  0.00  0.00    +0.000 C 
ATOM     19  C   UNL     1      -1.532  12.581  22.079  0.00  0.00    +0.000 C 
ATOM     20  C   UNL     1      -0.470  11.531  22.432  0.00  0.00    +0.000 C 
ATOM     21  C   UNL     1       0.394  11.452  21.118  0.00  0.00    +0.000 C 
ATOM     22  C   UNL     1      -0.307  12.400  20.115  0.00  0.00    +0.000 C 
ENDROOT
BRANCH   4  23
ATOM     23  O   UNL     1      -2.305  16.068  22.347  0.00  0.00    +0.000 OA
ATOM     24  H   UNL     1      -3.014  16.633  22.689  0.00  0.00    +0.000 HD
ENDBRANCH   4  23
BRANCH  22  25
ATOM     25  O   UNL     1      -1.420  11.653  19.566  0.00  0.00    +0.000 OA
ATOM     26  H   UNL     1      -1.254  10.695  19.642  0.00  0.00    +0.000 HD
ENDBRANCH  22  25
BRANCH  22  27
ATOM     27  C   UNL     1       0.486  12.811  18.867  0.00  0.00    +0.000 C 
ATOM     28  O   UNL     1      -0.021  13.387  17.896  0.00  0.00    +0.000 OA
BRANCH  27  29
ATOM     29  C   UNL     1       1.961  12.393  18.823  0.00  0.00    +0.000 C 
BRANCH  29  30
ATOM     30  O   UNL     1       2.420  12.122  17.504  0.00  0.00    +0.000 OA
ATOM     31  H   UNL     1       2.654  12.991  17.119  0.00  0.00    +0.000 HD
ENDBRANCH  29  30
ENDBRANCH  27  29
ENDBRANCH  22  27
TORSDOF 5
ENDMDL
MODEL 3
REMARK VINA RESULT:      -6.2      1.988      6.688
REMARK  Name = 
REMARK  7 active torsions:
REMARK  status: ('A' for Active; 'I' for Inactive)
REMARK    1  A    between atoms: C_1  and  C_2
REMARK    2  A    between atoms: C_4  and  O_5
REMARK    3  A    between atoms: C_18  and  C_19
REMARK    4  A    between atoms: C_23  and  O_24
REMARK    5  A    between atoms: C_23  and  C_25
REMARK    6  A    between atoms: C_25  and  C_27
REMARK    7  A    between atoms: C_27  and  O_28
REMARK                            x       y       z     vdW  Elec       q    Type
REMARK                         _______ _______ _______ _____ _____    ______ ____
ROOT
ATOM      1  C   UNL     1       1.183  12.893  21.234  0.00  0.00    +0.000 C 
ATOM      2  C   UNL     1      -0.112  12.208  20.684  0.00  0.00    +0.000 C 
ATOM      3  C   UNL     1      -0.808  13.228  19.753  0.00  0.00    +0.000 C 
ATOM      4  C   UNL     1      -1.839  14.135  20.460  0.00  0.00    +0.000 C 
ATOM      5  C   UNL     1      -2.793  13.272  21.321  0.00  0.00    +0.000 C 
ATOM      6  F   UNL     1      -3.061  12.179  20.482  0.00  0.00    +0.000 F 
ATOM      7  C   UNL     1      -1.962  12.653  22.501  0.00  0.00    +0.000 C 
ATOM      8  C   UNL     1      -2.891  11.967  23.501  0.00  0.00    +0.000 C 
ATOM      9  C   UNL     1      -3.869  12.976  24.089  0.00  0.00    +0.000 C 
ATOM     10  F   UNL     1      -4.596  12.325  25.046  0.00  0.00    +0.000 F 
ATOM     11  C   UNL     1      -4.773  13.600  23.061  0.00  0.00    +0.000 C 
ATOM     12  C   UNL     1      -6.110  13.571  23.272  0.00  0.00    +0.000 C 
ATOM     13  C   UNL     1      -6.683  12.421  22.484  0.00  0.00    +0.000 C 
ATOM     14  O   UNL     1      -7.541  11.678  22.936  0.00  0.00    +0.000 OA
ATOM     15  C   UNL     1      -6.237  12.355  21.068  0.00  0.00    +0.000 C 
ATOM     16  C   UNL     1      -5.203  13.112  20.665  0.00  0.00    +0.000 C 
ATOM     17  C   UNL     1      -4.242  13.867  21.638  0.00  0.00    +0.000 C 
ATOM     18  C   UNL     1      -4.405  15.384  21.373  0.00  0.00    +0.000 C 
ATOM     19  C   UNL     1      -1.014  11.646  21.832  0.00  0.00    +0.000 C 
ATOM     20  C   UNL     1      -0.142  10.565  22.483  0.00  0.00    +0.000 C 
ATOM     21  C   UNL     1       0.723  10.039  21.277  0.00  0.00    +0.000 C 
ATOM     22  C   UNL     1       0.202  10.811  20.040  0.00  0.00    +0.000 C 
ENDROOT
BRANCH   4  23
ATOM     23  O   UNL     1      -1.220  15.169  21.224  0.00  0.00    +0.000 OA
ATOM     24  H   UNL     1      -1.723  15.995  21.163  0.00  0.00    +0.000 HD
ENDBRANCH   4  23
BRANCH  22  25
ATOM     25  O   UNL     1      -1.006  10.130  19.621  0.00  0.00    +0.000 OA
ATOM     26  H   UNL     1      -0.947   9.887  18.678  0.00  0.00    +0.000 HD
ENDBRANCH  22  25
BRANCH  22  27
ATOM     27  C   UNL     1       1.074  10.782  18.777  0.00  0.00    +0.000 C 
ATOM     28  O   UNL     1       1.806  11.718  18.432  0.00  0.00    +0.000 OA
BRANCH  27  29
ATOM     29  C   UNL     1       0.937   9.546  17.878  0.00  0.00    +0.000 C 
BRANCH  29  30
ATOM     30  O   UNL     1       2.192   9.033  17.449  0.00  0.00    +0.000 OA
ATOM     31  H   UNL     1       2.154   9.016  16.471  0.00  0.00    +0.000 HD
ENDBRANCH  29  30
ENDBRANCH  27  29
ENDBRANCH  22  27
TORSDOF 5
ENDMDL
MODEL 4
REMARK VINA RESULT:      -6.1      1.279      1.481
REMARK  Name = 
REMARK  7 active torsions:
REMARK  status: ('A' for Active; 'I' for Inactive)
REMARK    1  A    between atoms: C_1  and  C_2
REMARK    2  A    between atoms: C_4  and  O_5
REMARK    3  A    between atoms: C_18  and  C_19
REMARK    4  A    between atoms: C_23  and  O_24
REMARK    5  A    between atoms: C_23  and  C_25
REMARK    6  A    between atoms: C_25  and  C_27
REMARK    7  A    between atoms: C_27  and  O_28
REMARK                            x       y       z     vdW  Elec       q    Type
REMARK                         _______ _______ _______ _____ _____    ______ ____
ROOT
ATOM      1  C   UNL     1      -5.216  15.065  20.373  0.00  0.00    +0.000 C 
ATOM      2  C   UNL     1      -4.452  13.993  21.220  0.00  0.00    +0.000 C 
ATOM      3  C   UNL     1      -3.198  14.684  21.804  0.00  0.00    +0.000 C 
ATOM      4  C   UNL     1      -1.939  14.576  20.916  0.00  0.00    +0.000 C 
ATOM      5  C   UNL     1      -1.735  13.107  20.472  0.00  0.00    +0.000 C 
ATOM      6  F   UNL     1      -2.006  12.390  21.648  0.00  0.00    +0.000 F 
ATOM      7  C   UNL     1      -2.913  12.719  19.508  0.00  0.00    +0.000 C 
ATOM      8  C   UNL     1      -2.650  11.356  18.872  0.00  0.00    +0.000 C 
ATOM      9  C   UNL     1      -1.364  11.393  18.057  0.00  0.00    +0.000 C 
ATOM     10  F   UNL     1      -1.242  10.183  17.435  0.00  0.00    +0.000 F 
ATOM     11  C   UNL     1      -0.142  11.696  18.883  0.00  0.00    +0.000 C 
ATOM     12  C   UNL     1       0.919  10.860  18.798  0.00  0.00    +0.000 C 
ATOM     13  C   UNL     1       0.862   9.912  19.970  0.00  0.00    +0.000 C 
ATOM     14  O   UNL     1       1.106   8.720  19.862  0.00  0.00    +0.000 OA
ATOM     15  C   UNL     1       0.639  10.564  21.286  0.00  0.00    +0.000 C 
ATOM     16  C   UNL     1       0.252  11.850  21.329  0.00  0.00    +0.000 C 
ATOM     17  C   UNL     1      -0.252  12.653  20.088  0.00  0.00    +0.000 C 
ATOM     18  C   UNL     1       0.749  13.807  19.839  0.00  0.00    +0.000 C 
ATOM     19  C   UNL     1      -4.162  12.692  20.401  0.00  0.00    +0.000 C 
ATOM     20  C   UNL     1      -5.560  12.143  20.086  0.00  0.00    +0.000 C 
ATOM     21  C   UNL     1      -6.408  12.609  21.328  0.00  0.00    +0.000 C 
ATOM     22  C   UNL     1      -5.396  13.305  22.269  0.00  0.00    +0.000 C 
ENDROOT
BRANCH   4  23
ATOM     23  O   UNL     1      -1.980  15.468  19.803  0.00  0.00    +0.000 OA
ATOM     24  H   UNL     1      -1.472  16.273  19.984  0.00  0.00    +0.000 HD
ENDBRANCH   4  23
BRANCH  22  25
ATOM     25  O   UNL     1      -4.717  12.245  22.986  0.00  0.00    +0.000 OA
ATOM     26  H   UNL     1      -3.823  12.110  22.621  0.00  0.00    +0.000 HD
ENDBRANCH  22  25
BRANCH  22  27
ATOM     27  C   UNL     1      -5.970  14.175  23.397  0.00  0.00    +0.000 C 
ATOM     28  O   UNL     1      -5.269  14.826  24.181  0.00  0.00    +0.000 OA
BRANCH  27  29
ATOM     29  C   UNL     1      -7.492  14.139  23.582  0.00  0.00    +0.000 C 
BRANCH  29  30
ATOM     30  O   UNL     1      -7.886  13.559  24.819  0.00  0.00    +0.000 OA
ATOM     31  H   UNL     1      -8.794  13.882  24.990  0.00  0.00    +0.000 HD
ENDBRANCH  29  30
ENDBRANCH  27  29
ENDBRANCH  22  27
TORSDOF 5
ENDMDL
MODEL 5
REMARK VINA RESULT:      -6.1      4.173      6.510
REMARK  Name = 
REMARK  7 active torsions:
REMARK  status: ('A' for Active; 'I' for Inactive)
REMARK    1  A    between atoms: C_1  and  C_2
REMARK    2  A    between atoms: C_4  and  O_5
REMARK    3  A    between atoms: C_18  and  C_19
REMARK    4  A    between atoms: C_23  and  O_24
REMARK    5  A    between atoms: C_23  and  C_25
REMARK    6  A    between atoms: C_25  and  C_27
REMARK    7  A    between atoms: C_27  and  O_28
REMARK                            x       y       z     vdW  Elec       q    Type
REMARK                         _______ _______ _______ _____ _____    ______ ____
ROOT
ATOM      1  C   UNL     1      -1.206  10.589  19.041  0.00  0.00    +0.000 C 
ATOM      2  C   UNL     1      -0.121  11.095  20.051  0.00  0.00    +0.000 C 
ATOM      3  C   UNL     1      -0.789  12.171  20.936  0.00  0.00    +0.000 C 
ATOM      4  C   UNL     1      -0.658  13.613  20.396  0.00  0.00    +0.000 C 
ATOM      5  C   UNL     1       0.815  13.896  20.012  0.00  0.00    +0.000 C 
ATOM      6  F   UNL     1       1.527  13.323  21.079  0.00  0.00    +0.000 F 
ATOM      7  C   UNL     1       1.182  12.995  18.780  0.00  0.00    +0.000 C 
ATOM      8  C   UNL     1       2.551  13.386  18.226  0.00  0.00    +0.000 C 
ATOM      9  C   UNL     1       2.537  14.838  17.764  0.00  0.00    +0.000 C 
ATOM     10  F   UNL     1       3.750  15.091  17.188  0.00  0.00    +0.000 F 
ATOM     11  C   UNL     1       2.256  15.815  18.873  0.00  0.00    +0.000 C 
ATOM     12  C   UNL     1       3.111  16.848  19.058  0.00  0.00    +0.000 C 
ATOM     13  C   UNL     1       4.057  16.479  20.173  0.00  0.00    +0.000 C 
ATOM     14  O   UNL     1       5.253  16.721  20.125  0.00  0.00    +0.000 OA
ATOM     15  C   UNL     1       3.400  15.941  21.392  0.00  0.00    +0.000 C 
ATOM     16  C   UNL     1       2.107  15.578  21.341  0.00  0.00    +0.000 C 
ATOM     17  C   UNL     1       1.296  15.420  20.015  0.00  0.00    +0.000 C 
ATOM     18  C   UNL     1       0.160  16.472  20.033  0.00  0.00    +0.000 C 
ATOM     19  C   UNL     1       1.186  11.559  19.327  0.00  0.00    +0.000 C 
ATOM     20  C   UNL     1       1.710  10.278  18.665  0.00  0.00    +0.000 C 
ATOM     21  C   UNL     1       1.227   9.151  19.653  0.00  0.00    +0.000 C 
ATOM     22  C   UNL     1       0.549   9.904  20.823  0.00  0.00    +0.000 C 
ENDROOT
BRANCH   4  23
ATOM     23  O   UNL     1      -1.550  13.870  19.313  0.00  0.00    +0.000 OA
ATOM     24  H   UNL     1      -2.350  14.321  19.621  0.00  0.00    +0.000 HD
ENDBRANCH   4  23
BRANCH  22  25
ATOM     25  O   UNL     1       1.622  10.360  21.684  0.00  0.00    +0.000 OA
ATOM     26  H   UNL     1       2.486  10.131  21.295  0.00  0.00    +0.000 HD
ENDBRANCH  22  25
BRANCH  22  27
ATOM     27  C   UNL     1      -0.331   9.078  21.772  0.00  0.00    +0.000 C 
ATOM     28  O   UNL     1      -0.854   8.002  21.455  0.00  0.00    +0.000 OA
BRANCH  27  29
ATOM     29  C   UNL     1      -0.625   9.694  23.146  0.00  0.00    +0.000 C 
BRANCH  29  30
ATOM     30  O   UNL     1       0.484   9.623  24.032  0.00  0.00    +0.000 OA
ATOM     31  H   UNL     1       0.121   9.777  24.928  0.00  0.00    +0.000 HD
ENDBRANCH  29  30
ENDBRANCH  27  29
ENDBRANCH  22  27
TORSDOF 5
ENDMDL
MODEL 6
REMARK VINA RESULT:      -6.0      9.528     13.630
REMARK  Name = 
REMARK  7 active torsions:
REMARK  status: ('A' for Active; 'I' for Inactive)
REMARK    1  A    between atoms: C_1  and  C_2
REMARK    2  A    between atoms: C_4  and  O_5
REMARK    3  A    between atoms: C_18  and  C_19
REMARK    4  A    between atoms: C_23  and  O_24
REMARK    5  A    between atoms: C_23  and  C_25
REMARK    6  A    between atoms: C_25  and  C_27
REMARK    7  A    between atoms: C_27  and  O_28
REMARK                            x       y       z     vdW  Elec       q    Type
REMARK                         _______ _______ _______ _____ _____    ______ ____
ROOT
ATOM      1  C   UNL     1      12.151  13.245  19.976  0.00  0.00    +0.000 C 
ATOM      2  C   UNL     1      10.753  13.672  19.415  0.00  0.00    +0.000 C 
ATOM      3  C   UNL     1      10.574  15.174  19.736  0.00  0.00    +0.000 C 
ATOM      4  C   UNL     1       9.884  15.458  21.089  0.00  0.00    +0.000 C 
ATOM      5  C   UNL     1       8.602  14.600  21.214  0.00  0.00    +0.000 C 
ATOM      6  F   UNL     1       8.034  14.707  19.935  0.00  0.00    +0.000 F 
ATOM      7  C   UNL     1       9.031  13.093  21.317  0.00  0.00    +0.000 C 
ATOM      8  C   UNL     1       7.823  12.220  21.656  0.00  0.00    +0.000 C 
ATOM      9  C   UNL     1       7.232  12.637  22.997  0.00  0.00    +0.000 C 
ATOM     10  F   UNL     1       6.228  11.756  23.288  0.00  0.00    +0.000 F 
ATOM     11  C   UNL     1       6.724  14.053  23.011  0.00  0.00    +0.000 C 
ATOM     12  C   UNL     1       5.456  14.281  23.427  0.00  0.00    +0.000 C 
ATOM     13  C   UNL     1       4.579  14.409  22.206  0.00  0.00    +0.000 C 
ATOM     14  O   UNL     1       3.469  13.904  22.140  0.00  0.00    +0.000 OA
ATOM     15  C   UNL     1       5.103  15.322  21.158  0.00  0.00    +0.000 C 
ATOM     16  C   UNL     1       6.377  15.745  21.227  0.00  0.00    +0.000 C 
ATOM     17  C   UNL     1       7.450  15.134  22.184  0.00  0.00    +0.000 C 
ATOM     18  C   UNL     1       7.881  16.244  23.173  0.00  0.00    +0.000 C 
ATOM     19  C   UNL     1       9.603  12.748  19.933  0.00  0.00    +0.000 C 
ATOM     20  C   UNL     1       9.950  11.373  19.350  0.00  0.00    +0.000 C 
ATOM     21  C   UNL     1      10.673  11.738  17.999  0.00  0.00    +0.000 C 
ATOM     22  C   UNL     1      10.593  13.281  17.903  0.00  0.00    +0.000 C 
ENDROOT
BRANCH   4  23
ATOM     23  O   UNL     1      10.763  15.269  22.197  0.00  0.00    +0.000 OA
ATOM     24  H   UNL     1      11.521  14.719  21.950  0.00  0.00    +0.000 HD
ENDBRANCH   4  23
BRANCH  22  25
ATOM     25  O   UNL     1       9.266  13.585  17.409  0.00  0.00    +0.000 OA
ATOM     26  H   UNL     1       8.776  14.117  18.063  0.00  0.00    +0.000 HD
ENDBRANCH  22  25
BRANCH  22  27
ATOM     27  C   UNL     1      11.511  13.968  16.882  0.00  0.00    +0.000 C 
ATOM     28  O   UNL     1      12.314  13.357  16.167  0.00  0.00    +0.000 OA
BRANCH  27  29
ATOM     29  C   UNL     1      11.461  15.501  16.838  0.00  0.00    +0.000 C 
BRANCH  29  30
ATOM     30  O   UNL     1      10.515  15.997  15.899  0.00  0.00    +0.000 OA
ATOM     31  H   UNL     1      10.992  16.056  15.046  0.00  0.00    +0.000 HD
ENDBRANCH  29  30
ENDBRANCH  27  29
ENDBRANCH  22  27
TORSDOF 5
ENDMDL
MODEL 7
REMARK VINA RESULT:      -5.9      4.102      7.158
REMARK  Name = 
REMARK  7 active torsions:
REMARK  status: ('A' for Active; 'I' for Inactive)
REMARK    1  A    between atoms: C_1  and  C_2
REMARK    2  A    between atoms: C_4  and  O_5
REMARK    3  A    between atoms: C_18  and  C_19
REMARK    4  A    between atoms: C_23  and  O_24
REMARK    5  A    between atoms: C_23  and  C_25
REMARK    6  A    between atoms: C_25  and  C_27
REMARK    7  A    between atoms: C_27  and  O_28
REMARK                            x       y       z     vdW  Elec       q    Type
REMARK                         _______ _______ _______ _____ _____    ______ ____
ROOT
ATOM      1  C   UNL     1       0.566  16.411  18.518  0.00  0.00    +0.000 C 
ATOM      2  C   UNL     1       1.469  15.314  19.175  0.00  0.00    +0.000 C 
ATOM      3  C   UNL     1       1.460  14.090  18.230  0.00  0.00    +0.000 C 
ATOM      4  C   UNL     1       0.349  13.060  18.533  0.00  0.00    +0.000 C 
ATOM      5  C   UNL     1       0.343  12.726  20.045  0.00  0.00    +0.000 C 
ATOM      6  F   UNL     1       1.711  12.608  20.339  0.00  0.00    +0.000 F 
ATOM      7  C   UNL     1      -0.108  14.010  20.828  0.00  0.00    +0.000 C 
ATOM      8  C   UNL     1      -0.337  13.678  22.301  0.00  0.00    +0.000 C 
ATOM      9  C   UNL     1      -1.433  12.629  22.441  0.00  0.00    +0.000 C 
ATOM     10  F   UNL     1      -1.660  12.456  23.777  0.00  0.00    +0.000 F 
ATOM     11  C   UNL     1      -1.094  11.320  21.781  0.00  0.00    +0.000 C 
ATOM     12  C   UNL     1      -1.193  10.184  22.509  0.00  0.00    +0.000 C 
ATOM     13  C   UNL     1       0.185   9.824  23.005  0.00  0.00    +0.000 C 
ATOM     14  O   UNL     1       0.390   9.422  24.140  0.00  0.00    +0.000 OA
ATOM     15  C   UNL     1       1.245   9.850  21.965  0.00  0.00    +0.000 C 
ATOM     16  C   UNL     1       0.990  10.421  20.775  0.00  0.00    +0.000 C 
ATOM     17  C   UNL     1      -0.259  11.312  20.484  0.00  0.00    +0.000 C 
ATOM     18  C   UNL     1      -1.107  10.591  19.407  0.00  0.00    +0.000 C 
ATOM     19  C   UNL     1       1.046  15.008  20.649  0.00  0.00    +0.000 C 
ATOM     20  C   UNL     1       1.296  16.333  21.382  0.00  0.00    +0.000 C 
ATOM     21  C   UNL     1       2.510  16.947  20.590  0.00  0.00    +0.000 C 
ATOM     22  C   UNL     1       2.889  15.876  19.538  0.00  0.00    +0.000 C 
ENDROOT
BRANCH   4  23
ATOM     23  O   UNL     1      -0.933  13.492  18.078  0.00  0.00    +0.000 OA
ATOM     24  H   UNL     1      -1.400  13.982  18.770  0.00  0.00    +0.000 HD
ENDBRANCH   4  23
BRANCH  22  25
ATOM     25  O   UNL     1       3.692  14.893  20.235  0.00  0.00    +0.000 OA
ATOM     26  H   UNL     1       4.349  14.502  19.629  0.00  0.00    +0.000 HD
ENDBRANCH  22  25
BRANCH  22  27
ATOM     27  C   UNL     1       3.803  16.318  18.386  0.00  0.00    +0.000 C 
ATOM     28  O   UNL     1       3.499  17.199  17.573  0.00  0.00    +0.000 OA
BRANCH  27  29
ATOM     29  C   UNL     1       5.115  15.541  18.215  0.00  0.00    +0.000 C 
BRANCH  29  30
ATOM     30  O   UNL     1       4.926  14.255  17.640  0.00  0.00    +0.000 OA
ATOM     31  H   UNL     1       4.421  14.402  16.815  0.00  0.00    +0.000 HD
ENDBRANCH  29  30
ENDBRANCH  27  29
ENDBRANCH  22  27
TORSDOF 5
ENDMDL
MODEL 8
REMARK VINA RESULT:      -5.9      2.063      6.437
REMARK  Name = 
REMARK  7 active torsions:
REMARK  status: ('A' for Active; 'I' for Inactive)
REMARK    1  A    between atoms: C_1  and  C_2
REMARK    2  A    between atoms: C_4  and  O_5
REMARK    3  A    between atoms: C_18  and  C_19
REMARK    4  A    between atoms: C_23  and  O_24
REMARK    5  A    between atoms: C_23  and  C_25
REMARK    6  A    between atoms: C_25  and  C_27
REMARK    7  A    between atoms: C_27  and  O_28
REMARK                            x       y       z     vdW  Elec       q    Type
REMARK                         _______ _______ _______ _____ _____    ______ ____
ROOT
ATOM      1  C   UNL     1       0.584  13.012  21.206  0.00  0.00    +0.000 C 
ATOM      2  C   UNL     1      -0.766  12.346  20.775  0.00  0.00    +0.000 C 
ATOM      3  C   UNL     1      -1.552  13.398  19.958  0.00  0.00    +0.000 C 
ATOM      4  C   UNL     1      -2.498  14.282  20.801  0.00  0.00    +0.000 C 
ATOM      5  C   UNL     1      -3.359  13.392  21.730  0.00  0.00    +0.000 C 
ATOM      6  F   UNL     1      -3.720  12.328  20.888  0.00  0.00    +0.000 F 
ATOM      7  C   UNL     1      -2.409  12.733  22.793  0.00  0.00    +0.000 C 
ATOM      8  C   UNL     1      -3.230  12.016  23.864  0.00  0.00    +0.000 C 
ATOM      9  C   UNL     1      -4.135  13.005  24.586  0.00  0.00    +0.000 C 
ATOM     10  F   UNL     1      -4.759  12.324  25.592  0.00  0.00    +0.000 F 
ATOM     11  C   UNL     1      -5.140  13.664  23.681  0.00  0.00    +0.000 C 
ATOM     12  C   UNL     1      -6.447  13.630  24.032  0.00  0.00    +0.000 C 
ATOM     13  C   UNL     1      -7.107  12.507  23.272  0.00  0.00    +0.000 C 
ATOM     14  O   UNL     1      -7.915  11.751  23.789  0.00  0.00    +0.000 OA
ATOM     15  C   UNL     1      -6.815  12.488  21.816  0.00  0.00    +0.000 C 
ATOM     16  C   UNL     1      -5.826  13.257  21.330  0.00  0.00    +0.000 C 
ATOM     17  C   UNL     1      -4.763  13.978  22.219  0.00  0.00    +0.000 C 
ATOM     18  C   UNL     1      -4.946  15.503  22.023  0.00  0.00    +0.000 C 
ATOM     19  C   UNL     1      -1.543  11.748  21.994  0.00  0.00    +0.000 C 
ATOM     20  C   UNL     1      -0.612  10.644  22.512  0.00  0.00    +0.000 C 
ATOM     21  C   UNL     1       0.117  10.158  21.204  0.00  0.00    +0.000 C 
ATOM     22  C   UNL     1      -0.529  10.971  20.056  0.00  0.00    +0.000 C 
ENDROOT
BRANCH   4  23
ATOM     23  O   UNL     1      -1.797  15.290  21.528  0.00  0.00    +0.000 OA
ATOM     24  H   UNL     1      -0.965  14.944  21.887  0.00  0.00    +0.000 HD
ENDBRANCH   4  23
BRANCH  22  25
ATOM     25  O   UNL     1      -1.779  10.307  19.746  0.00  0.00    +0.000 OA
ATOM     26  H   UNL     1      -1.783  10.013  18.816  0.00  0.00    +0.000 HD
ENDBRANCH  22  25
BRANCH  22  27
ATOM     27  C   UNL     1       0.203  10.984  18.706  0.00  0.00    +0.000 C 
ATOM     28  O   UNL     1       1.402  11.262  18.583  0.00  0.00    +0.000 OA
BRANCH  27  29
ATOM     29  C   UNL     1      -0.651  10.716  17.460  0.00  0.00    +0.000 C 
BRANCH  29  30
ATOM     30  O   UNL     1      -1.510  11.802  17.135  0.00  0.00    +0.000 OA
ATOM     31  H   UNL     1      -2.247  11.415  16.620  0.00  0.00    +0.000 HD
ENDBRANCH  29  30
ENDBRANCH  27  29
ENDBRANCH  22  27
TORSDOF 5
ENDMDL
MODEL 9
REMARK VINA RESULT:      -5.8      1.440      1.783
REMARK  Name = 
REMARK  7 active torsions:
REMARK  status: ('A' for Active; 'I' for Inactive)
REMARK    1  A    between atoms: C_1  and  C_2
REMARK    2  A    between atoms: C_4  and  O_5
REMARK    3  A    between atoms: C_18  and  C_19
REMARK    4  A    between atoms: C_23  and  O_24
REMARK    5  A    between atoms: C_23  and  C_25
REMARK    6  A    between atoms: C_25  and  C_27
REMARK    7  A    between atoms: C_27  and  O_28
REMARK                            x       y       z     vdW  Elec       q    Type
REMARK                         _______ _______ _______ _____ _____    ______ ____
ROOT
ATOM      1  C   UNL     1      -4.991  15.087  20.444  0.00  0.00    +0.000 C 
ATOM      2  C   UNL     1      -4.188  14.042  21.290  0.00  0.00    +0.000 C 
ATOM      3  C   UNL     1      -2.884  14.733  21.749  0.00  0.00    +0.000 C 
ATOM      4  C   UNL     1      -1.693  14.553  20.781  0.00  0.00    +0.000 C 
ATOM      5  C   UNL     1      -1.549  13.059  20.401  0.00  0.00    +0.000 C 
ATOM      6  F   UNL     1      -1.748  12.408  21.628  0.00  0.00    +0.000 F 
ATOM      7  C   UNL     1      -2.799  12.650  19.543  0.00  0.00    +0.000 C 
ATOM      8  C   UNL     1      -2.607  11.251  18.961  0.00  0.00    +0.000 C 
ATOM      9  C   UNL     1      -1.382  11.219  18.057  0.00  0.00    +0.000 C 
ATOM     10  F   UNL     1      -1.328   9.977  17.491  0.00  0.00    +0.000 F 
ATOM     11  C   UNL     1      -0.099  11.535  18.778  0.00  0.00    +0.000 C 
ATOM     12  C   UNL     1       0.937  10.673  18.663  0.00  0.00    +0.000 C 
ATOM     13  C   UNL     1       0.946   9.786  19.883  0.00  0.00    +0.000 C 
ATOM     14  O   UNL     1       1.159   8.585  19.819  0.00  0.00    +0.000 OA
ATOM     15  C   UNL     1       0.830  10.508  21.176  0.00  0.00    +0.000 C 
ATOM     16  C   UNL     1       0.471  11.803  21.180  0.00  0.00    +0.000 C 
ATOM     17  C   UNL     1      -0.105  12.553  19.937  0.00  0.00    +0.000 C 
ATOM     18  C   UNL     1       0.897  13.672  19.560  0.00  0.00    +0.000 C 
ATOM     19  C   UNL     1      -3.982  12.696  20.521  0.00  0.00    +0.000 C 
ATOM     20  C   UNL     1      -5.408  12.163  20.333  0.00  0.00    +0.000 C 
ATOM     21  C   UNL     1      -6.157  12.710  21.605  0.00  0.00    +0.000 C 
ATOM     22  C   UNL     1      -5.068  13.429  22.437  0.00  0.00    +0.000 C 
ENDROOT
BRANCH   4  23
ATOM     23  O   UNL     1      -1.796  15.389  19.630  0.00  0.00    +0.000 OA
ATOM     24  H   UNL     1      -2.606  15.197  19.133  0.00  0.00    +0.000 HD
ENDBRANCH   4  23
BRANCH  22  25
ATOM     25  O   UNL     1      -4.360  12.391  23.157  0.00  0.00    +0.000 OA
ATOM     26  H   UNL     1      -3.397  12.505  23.054  0.00  0.00    +0.000 HD
ENDBRANCH  22  25
BRANCH  22  27
ATOM     27  C   UNL     1      -5.544  14.366  23.555  0.00  0.00    +0.000 C 
ATOM     28  O   UNL     1      -6.737  14.566  23.816  0.00  0.00    +0.000 OA
BRANCH  27  29
ATOM     29  C   UNL     1      -4.457  15.143  24.309  0.00  0.00    +0.000 C 
BRANCH  29  30
ATOM     30  O   UNL     1      -3.743  14.336  25.236  0.00  0.00    +0.000 OA
ATOM     31  H   UNL     1      -3.926  13.409  24.981  0.00  0.00    +0.000 HD
ENDBRANCH  29  30
ENDBRANCH  27  29
ENDBRANCH  22  27
TORSDOF 5
ENDMDL
