MODEL 1
REMARK VINA RESULT:      -6.9      0.000      0.000
REMARK  Name = 
REMARK  7 active torsions:
REMARK  status: ('A' for Active; 'I' for Inactive)
REMARK    1  A    between atoms: C_1  and  C_2
REMARK    2  A    between atoms: C_2  and  O_3
REMARK    3  A    between atoms: O_3  and  C_4
REMARK    4  A    between atoms: C_7  and  N_8
REMARK    5  A    between atoms: C_9  and  C_11
REMARK    6  A    between atoms: C_16  and  S_17
REMARK    7  A    between atoms: S_17  and  C_18
REMARK                            x       y       z     vdW  Elec       q    Type
REMARK                         _______ _______ _______ _____ _____    ______ ____
ROOT
ATOM      1  N   UNL     1       3.968   7.140  17.459  0.00  0.00    +0.000 N 
ATOM      2  C   UNL     1       4.227   5.793  17.276  0.00  0.00    +0.000 C 
ATOM      3  O   UNL     1       3.614   4.867  17.804  0.00  0.00    +0.000 OA
ATOM      4  H   UNL     1       4.603   7.797  17.019  0.00  0.00    +0.000 HD
ENDROOT
BRANCH   1   8
ATOM      5  C   UNL     1       0.930   8.948  19.774  0.00  0.00    +0.000 A 
ATOM      6  C   UNL     1       1.624   7.856  20.284  0.00  0.00    +0.000 A 
ATOM      7  C   UNL     1       2.633   7.243  19.538  0.00  0.00    +0.000 A 
ATOM      8  C   UNL     1       2.955   7.704  18.263  0.00  0.00    +0.000 A 
ATOM      9  C   UNL     1       2.229   8.782  17.737  0.00  0.00    +0.000 A 
ATOM     10  C   UNL     1       1.217   9.399  18.487  0.00  0.00    +0.000 A 
BRANCH   5  11
ATOM     11  O   UNL     1      -0.012   9.470  20.612  0.00  0.00    +0.000 OA
BRANCH  11  13
ATOM     12  C   UNL     1      -0.298   9.691  22.957  0.00  0.00    +0.000 C 
ATOM     13  C   UNL     1      -0.293   8.719  21.793  0.00  0.00    +0.000 C 
ENDBRANCH  11  13
ENDBRANCH   5  11
ENDBRANCH   1   8
BRANCH   2  14
ATOM     14  C   UNL     1       5.299   5.421  16.312  0.00  0.00    +0.000 A 
ATOM     15  C   UNL     1       4.918   4.517  15.302  0.00  0.00    +0.000 A 
ATOM     16  C   UNL     1       5.830   4.100  14.343  0.00  0.00    +0.000 A 
ATOM     17  C   UNL     1       7.113   4.599  14.422  0.00  0.00    +0.000 A 
ATOM     18  N   UNL     1       7.523   5.458  15.379  0.00  0.00    +0.000 NA
ATOM     19  C   UNL     1       6.627   5.860  16.322  0.00  0.00    +0.000 A 
BRANCH  19  20
ATOM     20  S   UNL     1       7.286   6.972  17.566  0.00  0.00    +0.000 S 
ATOM     21  C   UNL     1       7.681   5.815  18.906  0.00  0.00    +0.000 C 
ENDBRANCH  19  20
ENDBRANCH   2  14
TORSDOF 5
ENDMDL
MODEL 2
REMARK VINA RESULT:      -6.7      0.329      1.120
REMARK  Name = 
REMARK  7 active torsions:
REMARK  status: ('A' for Active; 'I' for Inactive)
REMARK    1  A    between atoms: C_1  and  C_2
REMARK    2  A    between atoms: C_2  and  O_3
REMARK    3  A    between atoms: O_3  and  C_4
REMARK    4  A    between atoms: C_7  and  N_8
REMARK    5  A    between atoms: C_9  and  C_11
REMARK    6  A    between atoms: C_16  and  S_17
REMARK    7  A    between atoms: S_17  and  C_18
REMARK                            x       y       z     vdW  Elec       q    Type
REMARK                         _______ _______ _______ _____ _____    ______ ____
ROOT
ATOM      1  N   UNL     1       3.805   7.243  17.475  0.00  0.00    +0.000 N 
ATOM      2  C   UNL     1       4.369   5.989  17.625  0.00  0.00    +0.000 C 
ATOM      3  O   UNL     1       4.104   5.186  18.518  0.00  0.00    +0.000 OA
ATOM      4  H   UNL     1       4.174   7.831  16.735  0.00  0.00    +0.000 HD
ENDROOT
BRANCH   1   8
ATOM      5  C   UNL     1       0.855   8.879  20.021  0.00  0.00    +0.000 A 
ATOM      6  C   UNL     1       1.126   9.492  18.802  0.00  0.00    +0.000 A 
ATOM      7  C   UNL     1       2.096   8.969  17.943  0.00  0.00    +0.000 A 
ATOM      8  C   UNL     1       2.820   7.831  18.297  0.00  0.00    +0.000 A 
ATOM      9  C   UNL     1       2.569   7.237  19.542  0.00  0.00    +0.000 A 
ATOM     10  C   UNL     1       1.594   7.761  20.403  0.00  0.00    +0.000 A 
BRANCH   5  11
ATOM     11  O   UNL     1      -0.131   9.474  20.753  0.00  0.00    +0.000 OA
BRANCH  11  13
ATOM     12  C   UNL     1      -0.457   9.945  23.056  0.00  0.00    +0.000 C 
ATOM     13  C   UNL     1      -0.454   8.856  21.999  0.00  0.00    +0.000 C 
ENDBRANCH  11  13
ENDBRANCH   5  11
ENDBRANCH   1   8
BRANCH   2  14
ATOM     14  C   UNL     1       5.336   5.538  16.586  0.00  0.00    +0.000 A 
ATOM     15  C   UNL     1       4.828   4.628  15.640  0.00  0.00    +0.000 A 
ATOM     16  C   UNL     1       5.634   4.142  14.621  0.00  0.00    +0.000 A 
ATOM     17  C   UNL     1       6.941   4.577  14.577  0.00  0.00    +0.000 A 
ATOM     18  N   UNL     1       7.473   5.439  15.471  0.00  0.00    +0.000 NA
ATOM     19  C   UNL     1       6.679   5.910  16.472  0.00  0.00    +0.000 A 
BRANCH  19  20
ATOM     20  S   UNL     1       7.494   7.020  17.623  0.00  0.00    +0.000 S 
ATOM     21  C   UNL     1       7.804   5.914  19.026  0.00  0.00    +0.000 C 
ENDBRANCH  19  20
ENDBRANCH   2  14
TORSDOF 5
ENDMDL
MODEL 3
REMARK VINA RESULT:      -6.4      2.908      4.168
REMARK  Name = 
REMARK  7 active torsions:
REMARK  status: ('A' for Active; 'I' for Inactive)
REMARK    1  A    between atoms: C_1  and  C_2
REMARK    2  A    between atoms: C_2  and  O_3
REMARK    3  A    between atoms: O_3  and  C_4
REMARK    4  A    between atoms: C_7  and  N_8
REMARK    5  A    between atoms: C_9  and  C_11
REMARK    6  A    between atoms: C_16  and  S_17
REMARK    7  A    between atoms: S_17  and  C_18
REMARK                            x       y       z     vdW  Elec       q    Type
REMARK                         _______ _______ _______ _____ _____    ______ ____
ROOT
ATOM      1  N   UNL     1       2.452   6.769  19.909  0.00  0.00    +0.000 N 
ATOM      2  C   UNL     1       2.475   5.650  19.096  0.00  0.00    +0.000 C 
ATOM      3  O   UNL     1       2.019   5.583  17.956  0.00  0.00    +0.000 OA
ATOM      4  H   UNL     1       2.798   6.660  20.857  0.00  0.00    +0.000 HD
ENDROOT
BRANCH   1   8
ATOM      5  C   UNL     1       0.777  10.556  19.066  0.00  0.00    +0.000 A 
ATOM      6  C   UNL     1       1.564   9.925  18.109  0.00  0.00    +0.000 A 
ATOM      7  C   UNL     1       2.127   8.672  18.364  0.00  0.00    +0.000 A 
ATOM      8  C   UNL     1       1.922   8.037  19.587  0.00  0.00    +0.000 A 
ATOM      9  C   UNL     1       1.159   8.692  20.563  0.00  0.00    +0.000 A 
ATOM     10  C   UNL     1       0.592   9.949  20.307  0.00  0.00    +0.000 A 
BRANCH   5  11
ATOM     11  O   UNL     1       0.266  11.762  18.683  0.00  0.00    +0.000 OA
BRANCH  11  13
ATOM     12  C   UNL     1      -1.888  11.459  17.734  0.00  0.00    +0.000 C 
ATOM     13  C   UNL     1      -1.123  11.971  18.940  0.00  0.00    +0.000 C 
ENDBRANCH  11  13
ENDBRANCH   5  11
ENDBRANCH   1   8
BRANCH   2  14
ATOM     14  C   UNL     1       3.163   4.435  19.613  0.00  0.00    +0.000 A 
ATOM     15  C   UNL     1       2.458   3.711  20.593  0.00  0.00    +0.000 A 
ATOM     16  C   UNL     1       2.996   2.558  21.145  0.00  0.00    +0.000 A 
ATOM     17  C   UNL     1       4.239   2.156  20.703  0.00  0.00    +0.000 A 
ATOM     18  N   UNL     1       4.954   2.827  19.774  0.00  0.00    +0.000 NA
ATOM     19  C   UNL     1       4.425   3.961  19.239  0.00  0.00    +0.000 A 
BRANCH  19  20
ATOM     20  S   UNL     1       5.472   4.792  18.042  0.00  0.00    +0.000 S 
ATOM     21  C   UNL     1       4.891   4.057  16.489  0.00  0.00    +0.000 C 
ENDBRANCH  19  20
ENDBRANCH   2  14
TORSDOF 5
ENDMDL
MODEL 4
REMARK VINA RESULT:      -6.3      2.865      4.004
REMARK  Name = 
REMARK  7 active torsions:
REMARK  status: ('A' for Active; 'I' for Inactive)
REMARK    1  A    between atoms: C_1  and  C_2
REMARK    2  A    between atoms: C_2  and  O_3
REMARK    3  A    between atoms: O_3  and  C_4
REMARK    4  A    between atoms: C_7  and  N_8
REMARK    5  A    between atoms: C_9  and  C_11
REMARK    6  A    between atoms: C_16  and  S_17
REMARK    7  A    between atoms: S_17  and  C_18
REMARK                            x       y       z     vdW  Elec       q    Type
REMARK                         _______ _______ _______ _____ _____    ______ ____
ROOT
ATOM      1  N   UNL     1       2.497   6.779  19.809  0.00  0.00    +0.000 N 
ATOM      2  C   UNL     1       2.406   5.629  19.047  0.00  0.00    +0.000 C 
ATOM      3  O   UNL     1       1.795   5.518  17.986  0.00  0.00    +0.000 OA
ATOM      4  H   UNL     1       2.972   6.706  20.703  0.00  0.00    +0.000 HD
ENDROOT
BRANCH   1   8
ATOM      5  C   UNL     1       0.881  10.553  18.805  0.00  0.00    +0.000 A 
ATOM      6  C   UNL     1       0.615  10.003  20.054  0.00  0.00    +0.000 A 
ATOM      7  C   UNL     1       1.139   8.757  20.409  0.00  0.00    +0.000 A 
ATOM      8  C   UNL     1       1.927   8.037  19.514  0.00  0.00    +0.000 A 
ATOM      9  C   UNL     1       2.163   8.578  18.243  0.00  0.00    +0.000 A 
ATOM     10  C   UNL     1       1.638   9.828  17.886  0.00  0.00    +0.000 A 
BRANCH   5  11
ATOM     11  O   UNL     1       0.331  11.784  18.594  0.00  0.00    +0.000 OA
BRANCH  11  13
ATOM     12  C   UNL     1      -1.851  11.465  17.717  0.00  0.00    +0.000 C 
ATOM     13  C   UNL     1      -1.051  11.924  18.922  0.00  0.00    +0.000 C 
ENDBRANCH  11  13
ENDBRANCH   5  11
ENDBRANCH   1   8
BRANCH   2  14
ATOM     14  C   UNL     1       3.160   4.431  19.511  0.00  0.00    +0.000 A 
ATOM     15  C   UNL     1       2.484   3.611  20.434  0.00  0.00    +0.000 A 
ATOM     16  C   UNL     1       3.083   2.464  20.934  0.00  0.00    +0.000 A 
ATOM     17  C   UNL     1       4.357   2.167  20.499  0.00  0.00    +0.000 A 
ATOM     18  N   UNL     1       5.046   2.932  19.625  0.00  0.00    +0.000 NA
ATOM     19  C   UNL     1       4.456   4.060  19.141  0.00  0.00    +0.000 A 
BRANCH  19  20
ATOM     20  S   UNL     1       5.472   5.020  18.016  0.00  0.00    +0.000 S 
ATOM     21  C   UNL     1       4.881   4.427  16.407  0.00  0.00    +0.000 C 
ENDBRANCH  19  20
ENDBRANCH   2  14
TORSDOF 5
ENDMDL
MODEL 5
REMARK VINA RESULT:      -6.3      2.981      4.259
REMARK  Name = 
REMARK  7 active torsions:
REMARK  status: ('A' for Active; 'I' for Inactive)
REMARK    1  A    between atoms: C_1  and  C_2
REMARK    2  A    between atoms: C_2  and  O_3
REMARK    3  A    between atoms: O_3  and  C_4
REMARK    4  A    between atoms: C_7  and  N_8
REMARK    5  A    between atoms: C_9  and  C_11
REMARK    6  A    between atoms: C_16  and  S_17
REMARK    7  A    between atoms: S_17  and  C_18
REMARK                            x       y       z     vdW  Elec       q    Type
REMARK                         _______ _______ _______ _____ _____    ______ ____
ROOT
ATOM      1  N   UNL     1       2.491   6.693  19.883  0.00  0.00    +0.000 N 
ATOM      2  C   UNL     1       2.480   5.551  19.103  0.00  0.00    +0.000 C 
ATOM      3  O   UNL     1       2.002   5.458  17.974  0.00  0.00    +0.000 OA
ATOM      4  H   UNL     1       2.852   6.606  20.827  0.00  0.00    +0.000 HD
ENDROOT
BRANCH   1   8
ATOM      5  C   UNL     1       0.871  10.485  18.958  0.00  0.00    +0.000 A 
ATOM      6  C   UNL     1       1.605   9.799  17.996  0.00  0.00    +0.000 A 
ATOM      7  C   UNL     1       2.149   8.544  18.278  0.00  0.00    +0.000 A 
ATOM      8  C   UNL     1       1.979   7.961  19.533  0.00  0.00    +0.000 A 
ATOM      9  C   UNL     1       1.270   8.671  20.511  0.00  0.00    +0.000 A 
ATOM     10  C   UNL     1       0.722   9.931  20.228  0.00  0.00    +0.000 A 
BRANCH   5  11
ATOM     11  O   UNL     1       0.374  11.688  18.548  0.00  0.00    +0.000 OA
BRANCH  11  13
ATOM     12  C   UNL     1       1.964  13.447  18.623  0.00  0.00    +0.000 C 
ATOM     13  C   UNL     1       0.763  12.828  19.313  0.00  0.00    +0.000 C 
ENDBRANCH  11  13
ENDBRANCH   5  11
ENDBRANCH   1   8
BRANCH   2  14
ATOM     14  C   UNL     1       3.155   4.339  19.644  0.00  0.00    +0.000 A 
ATOM     15  C   UNL     1       2.439   3.638  20.633  0.00  0.00    +0.000 A 
ATOM     16  C   UNL     1       2.965   2.489  21.208  0.00  0.00    +0.000 A 
ATOM     17  C   UNL     1       4.206   2.071  20.779  0.00  0.00    +0.000 A 
ATOM     18  N   UNL     1       4.932   2.720  19.842  0.00  0.00    +0.000 NA
ATOM     19  C   UNL     1       4.415   3.849  19.285  0.00  0.00    +0.000 A 
BRANCH  19  20
ATOM     20  S   UNL     1       5.475   4.650  18.080  0.00  0.00    +0.000 S 
ATOM     21  C   UNL     1       4.876   3.916  16.533  0.00  0.00    +0.000 C 
ENDBRANCH  19  20
ENDBRANCH   2  14
TORSDOF 5
ENDMDL
MODEL 6
REMARK VINA RESULT:      -6.2      2.108      2.439
REMARK  Name = 
REMARK  7 active torsions:
REMARK  status: ('A' for Active; 'I' for Inactive)
REMARK    1  A    between atoms: C_1  and  C_2
REMARK    2  A    between atoms: C_2  and  O_3
REMARK    3  A    between atoms: O_3  and  C_4
REMARK    4  A    between atoms: C_7  and  N_8
REMARK    5  A    between atoms: C_9  and  C_11
REMARK    6  A    between atoms: C_16  and  S_17
REMARK    7  A    between atoms: S_17  and  C_18
REMARK                            x       y       z     vdW  Elec       q    Type
REMARK                         _______ _______ _______ _____ _____    ______ ____
ROOT
ATOM      1  N   UNL     1       3.060   7.191  18.447  0.00  0.00    +0.000 N 
ATOM      2  C   UNL     1       2.852   5.942  17.892  0.00  0.00    +0.000 C 
ATOM      3  O   UNL     1       1.779   5.342  17.856  0.00  0.00    +0.000 OA
ATOM      4  H   UNL     1       4.015   7.533  18.475  0.00  0.00    +0.000 HD
ENDROOT
BRANCH   1   8
ATOM      5  C   UNL     1       0.171   9.757  20.160  0.00  0.00    +0.000 A 
ATOM      6  C   UNL     1       0.725   8.738  20.927  0.00  0.00    +0.000 A 
ATOM      7  C   UNL     1       1.682   7.878  20.383  0.00  0.00    +0.000 A 
ATOM      8  C   UNL     1       2.091   8.016  19.058  0.00  0.00    +0.000 A 
ATOM      9  C   UNL     1       1.504   9.022  18.277  0.00  0.00    +0.000 A 
ATOM     10  C   UNL     1       0.544   9.886  18.823  0.00  0.00    +0.000 A 
BRANCH   5  11
ATOM     11  O   UNL     1      -0.732  10.541  20.816  0.00  0.00    +0.000 OA
BRANCH  11  13
ATOM     12  C   UNL     1      -1.298  11.040  23.066  0.00  0.00    +0.000 C 
ATOM     13  C   UNL     1      -0.255  11.218  21.979  0.00  0.00    +0.000 C 
ENDBRANCH  11  13
ENDBRANCH   5  11
ENDBRANCH   1   8
BRANCH   2  14
ATOM     14  C   UNL     1       4.008   5.282  17.223  0.00  0.00    +0.000 A 
ATOM     15  C   UNL     1       4.850   6.137  16.487  0.00  0.00    +0.000 A 
ATOM     16  C   UNL     1       5.963   5.638  15.825  0.00  0.00    +0.000 A 
ATOM     17  C   UNL     1       6.204   4.283  15.913  0.00  0.00    +0.000 A 
ATOM     18  N   UNL     1       5.416   3.426  16.597  0.00  0.00    +0.000 NA
ATOM     19  C   UNL     1       4.322   3.920  17.241  0.00  0.00    +0.000 A 
BRANCH  19  20
ATOM     20  S   UNL     1       3.327   2.691  18.088  0.00  0.00    +0.000 S 
ATOM     21  C   UNL     1       4.274   2.458  19.617  0.00  0.00    +0.000 C 
ENDBRANCH  19  20
ENDBRANCH   2  14
TORSDOF 5
ENDMDL
MODEL 7
REMARK VINA RESULT:      -6.2      1.951      2.577
REMARK  Name = 
REMARK  7 active torsions:
REMARK  status: ('A' for Active; 'I' for Inactive)
REMARK    1  A    between atoms: C_1  and  C_2
REMARK    2  A    between atoms: C_2  and  O_3
REMARK    3  A    between atoms: O_3  and  C_4
REMARK    4  A    between atoms: C_7  and  N_8
REMARK    5  A    between atoms: C_9  and  C_11
REMARK    6  A    between atoms: C_16  and  S_17
REMARK    7  A    between atoms: S_17  and  C_18
REMARK                            x       y       z     vdW  Elec       q    Type
REMARK                         _______ _______ _______ _____ _____    ______ ____
ROOT
ATOM      1  N   UNL     1       3.211   7.392  18.364  0.00  0.00    +0.000 N 
ATOM      2  C   UNL     1       3.073   6.099  17.891  0.00  0.00    +0.000 C 
ATOM      3  O   UNL     1       2.034   5.442  17.894  0.00  0.00    +0.000 OA
ATOM      4  H   UNL     1       4.146   7.785  18.370  0.00  0.00    +0.000 HD
ENDROOT
BRANCH   1   8
ATOM      5  C   UNL     1       0.163   9.723  20.135  0.00  0.00    +0.000 A 
ATOM      6  C   UNL     1       0.545   9.975  18.821  0.00  0.00    +0.000 A 
ATOM      7  C   UNL     1       1.549   9.217  18.214  0.00  0.00    +0.000 A 
ATOM      8  C   UNL     1       2.196   8.203  18.917  0.00  0.00    +0.000 A 
ATOM      9  C   UNL     1       1.834   7.975  20.252  0.00  0.00    +0.000 A 
ATOM     10  C   UNL     1       0.826   8.735  20.861  0.00  0.00    +0.000 A 
BRANCH   5  11
ATOM     11  O   UNL     1      -0.845  10.516  20.600  0.00  0.00    +0.000 OA
BRANCH  11  13
ATOM     12  C   UNL     1      -1.174  11.122  22.870  0.00  0.00    +0.000 C 
ATOM     13  C   UNL     1      -0.482  11.495  21.573  0.00  0.00    +0.000 C 
ENDBRANCH  11  13
ENDBRANCH   5  11
ENDBRANCH   1   8
BRANCH   2  14
ATOM     14  C   UNL     1       4.266   5.460  17.270  0.00  0.00    +0.000 A 
ATOM     15  C   UNL     1       4.773   6.108  16.127  0.00  0.00    +0.000 A 
ATOM     16  C   UNL     1       5.886   5.608  15.465  0.00  0.00    +0.000 A 
ATOM     17  C   UNL     1       6.464   4.460  15.964  0.00  0.00    +0.000 A 
ATOM     18  N   UNL     1       6.003   3.801  17.049  0.00  0.00    +0.000 NA
ATOM     19  C   UNL     1       4.908   4.292  17.692  0.00  0.00    +0.000 A 
BRANCH  19  20
ATOM     20  S   UNL     1       4.360   3.321  19.098  0.00  0.00    +0.000 S 
ATOM     21  C   UNL     1       3.476   1.968  18.274  0.00  0.00    +0.000 C 
ENDBRANCH  19  20
ENDBRANCH   2  14
TORSDOF 5
ENDMDL
MODEL 8
REMARK VINA RESULT:      -6.2      3.006      4.053
REMARK  Name = 
REMARK  7 active torsions:
REMARK  status: ('A' for Active; 'I' for Inactive)
REMARK    1  A    between atoms: C_1  and  C_2
REMARK    2  A    between atoms: C_2  and  O_3
REMARK    3  A    between atoms: O_3  and  C_4
REMARK    4  A    between atoms: C_7  and  N_8
REMARK    5  A    between atoms: C_9  and  C_11
REMARK    6  A    between atoms: C_16  and  S_17
REMARK    7  A    between atoms: S_17  and  C_18
REMARK                            x       y       z     vdW  Elec       q    Type
REMARK                         _______ _______ _______ _____ _____    ______ ____
ROOT
ATOM      1  N   UNL     1       2.498   6.696  19.865  0.00  0.00    +0.000 N 
ATOM      2  C   UNL     1       2.450   5.545  19.101  0.00  0.00    +0.000 C 
ATOM      3  O   UNL     1       1.926   5.440  17.994  0.00  0.00    +0.000 OA
ATOM      4  H   UNL     1       2.897   6.619  20.795  0.00  0.00    +0.000 HD
ENDROOT
BRANCH   1   8
ATOM      5  C   UNL     1       0.847  10.478  18.953  0.00  0.00    +0.000 A 
ATOM      6  C   UNL     1       1.633   9.826  18.009  0.00  0.00    +0.000 A 
ATOM      7  C   UNL     1       2.189   8.575  18.287  0.00  0.00    +0.000 A 
ATOM      8  C   UNL     1       1.977   7.962  19.521  0.00  0.00    +0.000 A 
ATOM      9  C   UNL     1       1.215   8.638  20.483  0.00  0.00    +0.000 A 
ATOM     10  C   UNL     1       0.656   9.894  20.204  0.00  0.00    +0.000 A 
BRANCH   5  11
ATOM     11  O   UNL     1       0.345  11.680  18.547  0.00  0.00    +0.000 OA
BRANCH  11  13
ATOM     12  C   UNL     1      -0.882  13.466  19.515  0.00  0.00    +0.000 C 
ATOM     13  C   UNL     1      -0.948  12.025  19.044  0.00  0.00    +0.000 C 
ENDBRANCH  11  13
ENDBRANCH   5  11
ENDBRANCH   1   8
BRANCH   2  14
ATOM     14  C   UNL     1       3.142   4.336  19.630  0.00  0.00    +0.000 A 
ATOM     15  C   UNL     1       2.444   3.625  20.624  0.00  0.00    +0.000 A 
ATOM     16  C   UNL     1       2.986   2.479  21.188  0.00  0.00    +0.000 A 
ATOM     17  C   UNL     1       4.226   2.073  20.743  0.00  0.00    +0.000 A 
ATOM     18  N   UNL     1       4.935   2.731  19.800  0.00  0.00    +0.000 NA
ATOM     19  C   UNL     1       4.401   3.858  19.254  0.00  0.00    +0.000 A 
BRANCH  19  20
ATOM     20  S   UNL     1       5.440   4.673  18.039  0.00  0.00    +0.000 S 
ATOM     21  C   UNL     1       6.671   5.475  19.102  0.00  0.00    +0.000 C 
ENDBRANCH  19  20
ENDBRANCH   2  14
TORSDOF 5
ENDMDL
MODEL 9
REMARK VINA RESULT:      -6.2      3.049      4.077
REMARK  Name = 
REMARK  7 active torsions:
REMARK  status: ('A' for Active; 'I' for Inactive)
REMARK    1  A    between atoms: C_1  and  C_2
REMARK    2  A    between atoms: C_2  and  O_3
REMARK    3  A    between atoms: O_3  and  C_4
REMARK    4  A    between atoms: C_7  and  N_8
REMARK    5  A    between atoms: C_9  and  C_11
REMARK    6  A    between atoms: C_16  and  S_17
REMARK    7  A    between atoms: S_17  and  C_18
REMARK                            x       y       z     vdW  Elec       q    Type
REMARK                         _______ _______ _______ _____ _____    ______ ____
ROOT
ATOM      1  N   UNL     1       2.449   6.684  19.945  0.00  0.00    +0.000 N 
ATOM      2  C   UNL     1       2.418   5.543  19.164  0.00  0.00    +0.000 C 
ATOM      3  O   UNL     1       1.927   5.456  18.040  0.00  0.00    +0.000 OA
ATOM      4  H   UNL     1       2.819   6.592  20.885  0.00  0.00    +0.000 HD
ENDROOT
BRANCH   1   8
ATOM      5  C   UNL     1       1.036  10.499  18.801  0.00  0.00    +0.000 A 
ATOM      6  C   UNL     1       0.692   9.985  20.047  0.00  0.00    +0.000 A 
ATOM      7  C   UNL     1       1.148   8.726  20.447  0.00  0.00    +0.000 A 
ATOM      8  C   UNL     1       1.945   7.957  19.601  0.00  0.00    +0.000 A 
ATOM      9  C   UNL     1       2.260   8.463  18.333  0.00  0.00    +0.000 A 
ATOM     10  C   UNL     1       1.803   9.727  17.931  0.00  0.00    +0.000 A 
BRANCH   5  11
ATOM     11  O   UNL     1       0.547  11.746  18.543  0.00  0.00    +0.000 OA
BRANCH  11  13
ATOM     12  C   UNL     1      -0.361  13.844  19.181  0.00  0.00    +0.000 C 
ATOM     13  C   UNL     1       0.333  12.589  19.676  0.00  0.00    +0.000 C 
ENDBRANCH  11  13
ENDBRANCH   5  11
ENDBRANCH   1   8
BRANCH   2  14
ATOM     14  C   UNL     1       3.087   4.323  19.697  0.00  0.00    +0.000 A 
ATOM     15  C   UNL     1       2.393   3.649  20.719  0.00  0.00    +0.000 A 
ATOM     16  C   UNL     1       2.915   2.497  21.290  0.00  0.00    +0.000 A 
ATOM     17  C   UNL     1       4.132   2.048  20.823  0.00  0.00    +0.000 A 
ATOM     18  N   UNL     1       4.837   2.670  19.853  0.00  0.00    +0.000 NA
ATOM     19  C   UNL     1       4.323   3.803  19.300  0.00  0.00    +0.000 A 
BRANCH  19  20
ATOM     20  S   UNL     1       5.356   4.567  18.048  0.00  0.00    +0.000 S 
ATOM     21  C   UNL     1       6.542   5.481  19.072  0.00  0.00    +0.000 C 
ENDBRANCH  19  20
ENDBRANCH   2  14
TORSDOF 5
ENDMDL
