MODEL 1
REMARK VINA RESULT:      -7.0      0.000      0.000
REMARK  Name = 
REMARK  5 active torsions:
REMARK  status: ('A' for Active; 'I' for Inactive)
REMARK    1  A    between atoms: C_1  and  C_2
REMARK    2  A    between atoms: C_2  and  C_3
REMARK    3  A    between atoms: C_2  and  O_4
REMARK    4  A    between atoms: O_4  and  C_5
REMARK    5  A    between atoms: N_12  and  C_13
REMARK                            x       y       z     vdW  Elec       q    Type
REMARK                         _______ _______ _______ _____ _____    ______ ____
ROOT
ATOM      1  C   UNL     1       4.030   3.351  17.623  0.00  0.00    +0.000 C 
ATOM      2  C   UNL     1       2.974   2.286  17.200  0.00  0.00    +0.000 C 
ATOM      3  C   UNL     1       1.968   1.936  18.308  0.00  0.00    +0.000 C 
ATOM      4  C   UNL     1       1.164   3.178  18.721  0.00  0.00    +0.000 C 
ATOM      5  C   UNL     1       2.091   4.310  18.990  0.00  0.00    +0.000 A 
ATOM      6  N   UNL     1       1.682   5.413  19.703  0.00  0.00    +0.000 NA
ATOM      7  C   UNL     1       2.687   6.241  19.863  0.00  0.00    +0.000 A 
ATOM      8  N   UNL     1       2.612   7.489  20.379  0.00  0.00    +0.000 N 
ATOM      9  S   UNL     1       4.207   5.604  19.373  0.00  0.00    +0.000 S 
ATOM     10  C   UNL     1       3.393   4.354  18.534  0.00  0.00    +0.000 A 
ATOM     11  H   UNL     1       3.482   7.975  20.558  0.00  0.00    +0.000 HD
ENDROOT
BRANCH   8  12
ATOM     12  C   UNL     1       1.521   8.357  20.179  0.00  0.00    +0.000 A 
ATOM     13  C   UNL     1       1.401   9.012  18.947  0.00  0.00    +0.000 A 
ATOM     14  C   UNL     1       0.402   9.966  18.744  0.00  0.00    +0.000 A 
ATOM     15  C   UNL     1      -0.499  10.264  19.763  0.00  0.00    +0.000 A 
ATOM     16 CL   UNL     1      -1.697  11.473  19.526  0.00  0.00    +0.000 Cl
ATOM     17  C   UNL     1      -0.418   9.601  20.982  0.00  0.00    +0.000 A 
ATOM     18  C   UNL     1       0.588   8.659  21.186  0.00  0.00    +0.000 A 
ENDBRANCH   8  12
BRANCH   1  19
ATOM     19  O   UNL     1       4.454   3.970  16.395  0.00  0.00    +0.000 OA
BRANCH  19  21
ATOM     20  C   UNL     1       5.967   4.093  14.447  0.00  0.00    +0.000 C 
ATOM     21  C   UNL     1       5.777   3.718  15.912  0.00  0.00    +0.000 C 
ATOM     22  C   UNL     1       6.745   4.503  16.794  0.00  0.00    +0.000 C 
ENDBRANCH  19  21
ENDBRANCH   1  19
TORSDOF 3
ENDMDL
MODEL 2
REMARK VINA RESULT:      -6.7      0.308      1.094
REMARK  Name = 
REMARK  5 active torsions:
REMARK  status: ('A' for Active; 'I' for Inactive)
REMARK    1  A    between atoms: C_1  and  C_2
REMARK    2  A    between atoms: C_2  and  C_3
REMARK    3  A    between atoms: C_2  and  O_4
REMARK    4  A    between atoms: O_4  and  C_5
REMARK    5  A    between atoms: N_12  and  C_13
REMARK                            x       y       z     vdW  Elec       q    Type
REMARK                         _______ _______ _______ _____ _____    ______ ____
ROOT
ATOM      1  C   UNL     1       4.066   3.432  17.559  0.00  0.00    +0.000 C 
ATOM      2  C   UNL     1       2.996   2.398  17.094  0.00  0.00    +0.000 C 
ATOM      3  C   UNL     1       1.917   2.106  18.149  0.00  0.00    +0.000 C 
ATOM      4  C   UNL     1       1.138   3.383  18.496  0.00  0.00    +0.000 C 
ATOM      5  C   UNL     1       2.090   4.486  18.798  0.00  0.00    +0.000 A 
ATOM      6  N   UNL     1       1.683   5.616  19.468  0.00  0.00    +0.000 NA
ATOM      7  C   UNL     1       2.708   6.410  19.671  0.00  0.00    +0.000 A 
ATOM      8  N   UNL     1       2.650   7.669  20.162  0.00  0.00    +0.000 N 
ATOM      9  S   UNL     1       4.228   5.709  19.279  0.00  0.00    +0.000 S 
ATOM     10  C   UNL     1       3.417   4.474  18.416  0.00  0.00    +0.000 A 
ATOM     11  H   UNL     1       3.527   8.127  20.382  0.00  0.00    +0.000 HD
ENDROOT
BRANCH   8  12
ATOM     12  C   UNL     1       1.605   8.573  19.885  0.00  0.00    +0.000 A 
ATOM     13  C   UNL     1       0.697   8.882  20.905  0.00  0.00    +0.000 A 
ATOM     14  C   UNL     1      -0.417   9.683  20.645  0.00  0.00    +0.000 A 
ATOM     15  C   UNL     1      -0.626  10.197  19.369  0.00  0.00    +0.000 A 
ATOM     16 CL   UNL     1      -2.024  11.143  19.042  0.00  0.00    +0.000 Cl
ATOM     17  C   UNL     1       0.281   9.930  18.351  0.00  0.00    +0.000 A 
ATOM     18  C   UNL     1       1.384   9.119  18.610  0.00  0.00    +0.000 A 
ENDBRANCH   8  12
BRANCH   1  19
ATOM     19  O   UNL     1       4.581   4.012  16.347  0.00  0.00    +0.000 OA
BRANCH  19  21
ATOM     20  C   UNL     1       6.148   3.906  14.441  0.00  0.00    +0.000 C 
ATOM     21  C   UNL     1       5.909   3.682  15.929  0.00  0.00    +0.000 C 
ATOM     22  C   UNL     1       6.874   4.525  16.759  0.00  0.00    +0.000 C 
ENDBRANCH  19  21
ENDBRANCH   1  19
TORSDOF 3
ENDMDL
MODEL 3
REMARK VINA RESULT:      -6.5      4.083      7.503
REMARK  Name = 
REMARK  5 active torsions:
REMARK  status: ('A' for Active; 'I' for Inactive)
REMARK    1  A    between atoms: C_1  and  C_2
REMARK    2  A    between atoms: C_2  and  C_3
REMARK    3  A    between atoms: C_2  and  O_4
REMARK    4  A    between atoms: O_4  and  C_5
REMARK    5  A    between atoms: N_12  and  C_13
REMARK                            x       y       z     vdW  Elec       q    Type
REMARK                         _______ _______ _______ _____ _____    ______ ____
ROOT
ATOM      1  C   UNL     1       3.418   5.187  20.203  0.00  0.00    +0.000 C 
ATOM      2  C   UNL     1       2.094   5.967  19.946  0.00  0.00    +0.000 C 
ATOM      3  C   UNL     1       2.299   7.333  19.273  0.00  0.00    +0.000 C 
ATOM      4  C   UNL     1       2.957   7.165  17.895  0.00  0.00    +0.000 C 
ATOM      5  C   UNL     1       4.153   6.288  18.012  0.00  0.00    +0.000 A 
ATOM      6  N   UNL     1       5.113   6.255  17.028  0.00  0.00    +0.000 NA
ATOM      7  C   UNL     1       6.095   5.461  17.386  0.00  0.00    +0.000 A 
ATOM      8  N   UNL     1       7.126   5.075  16.602  0.00  0.00    +0.000 N 
ATOM      9  S   UNL     1       6.006   4.925  19.017  0.00  0.00    +0.000 S 
ATOM     10  C   UNL     1       4.375   5.440  19.079  0.00  0.00    +0.000 A 
ATOM     11  H   UNL     1       7.879   4.557  17.041  0.00  0.00    +0.000 HD
ENDROOT
BRANCH   8  12
ATOM     12  C   UNL     1       7.014   4.828  15.220  0.00  0.00    +0.000 A 
ATOM     13  C   UNL     1       6.122   3.841  14.784  0.00  0.00    +0.000 A 
ATOM     14  C   UNL     1       6.061   3.485  13.435  0.00  0.00    +0.000 A 
ATOM     15  C   UNL     1       6.877   4.123  12.505  0.00  0.00    +0.000 A 
ATOM     16 CL   UNL     1       6.833   3.649  10.854  0.00  0.00    +0.000 Cl
ATOM     17  C   UNL     1       7.745   5.129  12.912  0.00  0.00    +0.000 A 
ATOM     18  C   UNL     1       7.813   5.473  14.261  0.00  0.00    +0.000 A 
ENDBRANCH   8  12
BRANCH   1  19
ATOM     19  O   UNL     1       3.035   3.801  20.249  0.00  0.00    +0.000 OA
BRANCH  19  21
ATOM     20  C   UNL     1       1.225   2.595  19.080  0.00  0.00    +0.000 C 
ATOM     21  C   UNL     1       1.645   3.464  20.259  0.00  0.00    +0.000 C 
ATOM     22  C   UNL     1       1.354   2.752  21.578  0.00  0.00    +0.000 C 
ENDBRANCH  19  21
ENDBRANCH   1  19
TORSDOF 3
ENDMDL
MODEL 4
REMARK VINA RESULT:      -6.4      3.906      7.107
REMARK  Name = 
REMARK  5 active torsions:
REMARK  status: ('A' for Active; 'I' for Inactive)
REMARK    1  A    between atoms: C_1  and  C_2
REMARK    2  A    between atoms: C_2  and  C_3
REMARK    3  A    between atoms: C_2  and  O_4
REMARK    4  A    between atoms: O_4  and  C_5
REMARK    5  A    between atoms: N_12  and  C_13
REMARK                            x       y       z     vdW  Elec       q    Type
REMARK                         _______ _______ _______ _____ _____    ______ ____
ROOT
ATOM      1  C   UNL     1       2.721   4.585  20.599  0.00  0.00    +0.000 C 
ATOM      2  C   UNL     1       1.560   5.602  20.390  0.00  0.00    +0.000 C 
ATOM      3  C   UNL     1       2.032   7.010  19.993  0.00  0.00    +0.000 C 
ATOM      4  C   UNL     1       2.796   6.970  18.661  0.00  0.00    +0.000 C 
ATOM      5  C   UNL     1       3.832   5.903  18.707  0.00  0.00    +0.000 A 
ATOM      6  N   UNL     1       4.873   5.879  17.809  0.00  0.00    +0.000 NA
ATOM      7  C   UNL     1       5.685   4.887  18.089  0.00  0.00    +0.000 A 
ATOM      8  N   UNL     1       6.723   4.474  17.329  0.00  0.00    +0.000 N 
ATOM      9  S   UNL     1       5.350   4.107  19.585  0.00  0.00    +0.000 S 
ATOM     10  C   UNL     1       3.815   4.863  19.616  0.00  0.00    +0.000 A 
ATOM     11  H   UNL     1       7.342   3.774  17.721  0.00  0.00    +0.000 HD
ENDROOT
BRANCH   8  12
ATOM     12  C   UNL     1       6.719   4.484  15.920  0.00  0.00    +0.000 A 
ATOM     13  C   UNL     1       5.851   3.618  15.244  0.00  0.00    +0.000 A 
ATOM     14  C   UNL     1       5.893   3.513  13.852  0.00  0.00    +0.000 A 
ATOM     15  C   UNL     1       6.790   4.285  13.120  0.00  0.00    +0.000 A 
ATOM     16 CL   UNL     1       6.872   4.118  11.411  0.00  0.00    +0.000 Cl
ATOM     17  C   UNL     1       7.637   5.176  13.768  0.00  0.00    +0.000 A 
ATOM     18  C   UNL     1       7.602   5.268  15.158  0.00  0.00    +0.000 A 
ENDBRANCH   8  12
BRANCH   1  19
ATOM     19  O   UNL     1       2.136   3.291  20.364  0.00  0.00    +0.000 OA
BRANCH  19  21
ATOM     20  C   UNL     1       2.863   1.698  18.624  0.00  0.00    +0.000 C 
ATOM     21  C   UNL     1       1.947   2.850  19.017  0.00  0.00    +0.000 C 
ATOM     22  C   UNL     1       0.483   2.443  18.867  0.00  0.00    +0.000 C 
ENDBRANCH  19  21
ENDBRANCH   1  19
TORSDOF 3
ENDMDL
MODEL 5
REMARK VINA RESULT:      -6.4      2.051      3.613
REMARK  Name = 
REMARK  5 active torsions:
REMARK  status: ('A' for Active; 'I' for Inactive)
REMARK    1  A    between atoms: C_1  and  C_2
REMARK    2  A    between atoms: C_2  and  C_3
REMARK    3  A    between atoms: C_2  and  O_4
REMARK    4  A    between atoms: O_4  and  C_5
REMARK    5  A    between atoms: N_12  and  C_13
REMARK                            x       y       z     vdW  Elec       q    Type
REMARK                         _______ _______ _______ _____ _____    ______ ____
ROOT
ATOM      1  C   UNL     1       7.003   4.276  17.044  0.00  0.00    +0.000 C 
ATOM      2  C   UNL     1       7.324   4.781  15.605  0.00  0.00    +0.000 C 
ATOM      3  C   UNL     1       6.102   4.819  14.673  0.00  0.00    +0.000 C 
ATOM      4  C   UNL     1       5.033   5.777  15.221  0.00  0.00    +0.000 C 
ATOM      5  C   UNL     1       4.774   5.474  16.655  0.00  0.00    +0.000 A 
ATOM      6  N   UNL     1       3.640   5.927  17.286  0.00  0.00    +0.000 NA
ATOM      7  C   UNL     1       3.605   5.482  18.520  0.00  0.00    +0.000 A 
ATOM      8  N   UNL     1       2.718   5.851  19.471  0.00  0.00    +0.000 N 
ATOM      9  S   UNL     1       4.810   4.308  18.877  0.00  0.00    +0.000 S 
ATOM     10  C   UNL     1       5.644   4.755  17.451  0.00  0.00    +0.000 A 
ATOM     11  H   UNL     1       2.730   5.340  20.346  0.00  0.00    +0.000 HD
ENDROOT
BRANCH   8  12
ATOM     12  C   UNL     1       2.197   7.154  19.596  0.00  0.00    +0.000 A 
ATOM     13  C   UNL     1       1.633   7.538  20.818  0.00  0.00    +0.000 A 
ATOM     14  C   UNL     1       1.004   8.778  20.952  0.00  0.00    +0.000 A 
ATOM     15  C   UNL     1       0.946   9.653  19.872  0.00  0.00    +0.000 A 
ATOM     16 CL   UNL     1       0.129  11.157  20.027  0.00  0.00    +0.000 Cl
ATOM     17  C   UNL     1       1.529   9.305  18.659  0.00  0.00    +0.000 A 
ATOM     18  C   UNL     1       2.144   8.062  18.525  0.00  0.00    +0.000 A 
ENDBRANCH   8  12
BRANCH   1  19
ATOM     19  O   UNL     1       8.022   4.850  17.881  0.00  0.00    +0.000 OA
BRANCH  19  21
ATOM     20  C   UNL     1       8.296   5.600  20.218  0.00  0.00    +0.000 C 
ATOM     21  C   UNL     1       7.649   5.827  18.857  0.00  0.00    +0.000 C 
ATOM     22  C   UNL     1       8.034   7.198  18.305  0.00  0.00    +0.000 C 
ENDBRANCH  19  21
ENDBRANCH   1  19
TORSDOF 3
ENDMDL
MODEL 6
REMARK VINA RESULT:      -6.2      3.846      7.234
REMARK  Name = 
REMARK  5 active torsions:
REMARK  status: ('A' for Active; 'I' for Inactive)
REMARK    1  A    between atoms: C_1  and  C_2
REMARK    2  A    between atoms: C_2  and  C_3
REMARK    3  A    between atoms: C_2  and  O_4
REMARK    4  A    between atoms: O_4  and  C_5
REMARK    5  A    between atoms: N_12  and  C_13
REMARK                            x       y       z     vdW  Elec       q    Type
REMARK                         _______ _______ _______ _____ _____    ______ ____
ROOT
ATOM      1  C   UNL     1       1.996   5.112  20.155  0.00  0.00    +0.000 C 
ATOM      2  C   UNL     1       1.199   6.439  19.971  0.00  0.00    +0.000 C 
ATOM      3  C   UNL     1       2.090   7.680  19.809  0.00  0.00    +0.000 C 
ATOM      4  C   UNL     1       2.977   7.551  18.561  0.00  0.00    +0.000 C 
ATOM      5  C   UNL     1       3.662   6.230  18.565  0.00  0.00    +0.000 A 
ATOM      6  N   UNL     1       4.761   5.994  17.774  0.00  0.00    +0.000 NA
ATOM      7  C   UNL     1       5.223   4.786  17.998  0.00  0.00    +0.000 A 
ATOM      8  N   UNL     1       6.196   4.166  17.292  0.00  0.00    +0.000 N 
ATOM      9  S   UNL     1       4.497   3.994  19.340  0.00  0.00    +0.000 S 
ATOM     10  C   UNL     1       3.241   5.156  19.325  0.00  0.00    +0.000 A 
ATOM     11  H   UNL     1       6.540   3.282  17.647  0.00  0.00    +0.000 HD
ENDROOT
BRANCH   8  12
ATOM     12  C   UNL     1       6.375   4.316  15.903  0.00  0.00    +0.000 A 
ATOM     13  C   UNL     1       5.540   3.600  15.037  0.00  0.00    +0.000 A 
ATOM     14  C   UNL     1       5.754   3.630  13.657  0.00  0.00    +0.000 A 
ATOM     15  C   UNL     1       6.794   4.389  13.127  0.00  0.00    +0.000 A 
ATOM     16 CL   UNL     1       7.084   4.384  11.433  0.00  0.00    +0.000 Cl
ATOM     17  C   UNL     1       7.613   5.133  13.967  0.00  0.00    +0.000 A 
ATOM     18  C   UNL     1       7.405   5.090  15.344  0.00  0.00    +0.000 A 
ENDBRANCH   8  12
BRANCH   1  19
ATOM     19  O   UNL     1       1.110   4.074  19.698  0.00  0.00    +0.000 OA
BRANCH  19  21
ATOM     20  C   UNL     1       1.791   1.706  19.550  0.00  0.00    +0.000 C 
ATOM     21  C   UNL     1       1.124   2.808  20.363  0.00  0.00    +0.000 C 
ATOM     22  C   UNL     1       1.842   2.997  21.697  0.00  0.00    +0.000 C 
ENDBRANCH  19  21
ENDBRANCH   1  19
TORSDOF 3
ENDMDL
MODEL 7
REMARK VINA RESULT:      -6.1      5.125      9.190
REMARK  Name = 
REMARK  5 active torsions:
REMARK  status: ('A' for Active; 'I' for Inactive)
REMARK    1  A    between atoms: C_1  and  C_2
REMARK    2  A    between atoms: C_2  and  C_3
REMARK    3  A    between atoms: C_2  and  O_4
REMARK    4  A    between atoms: O_4  and  C_5
REMARK    5  A    between atoms: N_12  and  C_13
REMARK                            x       y       z     vdW  Elec       q    Type
REMARK                         _______ _______ _______ _____ _____    ______ ____
ROOT
ATOM      1  C   UNL     1      -4.080  11.862  18.278  0.00  0.00    +0.000 C 
ATOM      2  C   UNL     1      -4.903  11.188  17.139  0.00  0.00    +0.000 C 
ATOM      3  C   UNL     1      -4.105  10.963  15.846  0.00  0.00    +0.000 C 
ATOM      4  C   UNL     1      -2.911  10.031  16.102  0.00  0.00    +0.000 C 
ATOM      5  C   UNL     1      -2.147  10.506  17.287  0.00  0.00    +0.000 A 
ATOM      6  N   UNL     1      -0.862  10.081  17.525  0.00  0.00    +0.000 NA
ATOM      7  C   UNL     1      -0.379  10.684  18.587  0.00  0.00    +0.000 A 
ATOM      8  N   UNL     1       0.793  10.397  19.197  0.00  0.00    +0.000 N 
ATOM      9  S   UNL     1      -1.370  11.957  19.182  0.00  0.00    +0.000 S 
ATOM     10  C   UNL     1      -2.666  11.370  18.232  0.00  0.00    +0.000 A 
ATOM     11  H   UNL     1       1.101  11.019  19.935  0.00  0.00    +0.000 HD
ENDROOT
BRANCH   8  12
ATOM     12  C   UNL     1       1.322   9.096  19.309  0.00  0.00    +0.000 A 
ATOM     13  C   UNL     1       1.168   8.410  20.520  0.00  0.00    +0.000 A 
ATOM     14  C   UNL     1       1.774   7.167  20.714  0.00  0.00    +0.000 A 
ATOM     15  C   UNL     1       2.524   6.588  19.695  0.00  0.00    +0.000 A 
ATOM     16 CL   UNL     1       3.307   5.080  19.955  0.00  0.00    +0.000 Cl
ATOM     17  C   UNL     1       2.662   7.236  18.474  0.00  0.00    +0.000 A 
ATOM     18  C   UNL     1       2.068   8.483  18.289  0.00  0.00    +0.000 A 
ENDBRANCH   8  12
BRANCH   1  19
ATOM     19  O   UNL     1      -4.725  11.458  19.499  0.00  0.00    +0.000 OA
BRANCH  19  21
ATOM     20  C   UNL     1      -7.023  11.540  20.396  0.00  0.00    +0.000 C 
ATOM     21  C   UNL     1      -5.744  12.294  20.055  0.00  0.00    +0.000 C 
ATOM     22  C   UNL     1      -5.165  12.957  21.302  0.00  0.00    +0.000 C 
ENDBRANCH  19  21
ENDBRANCH   1  19
TORSDOF 3
ENDMDL
MODEL 8
REMARK VINA RESULT:      -6.1      0.904      1.122
REMARK  Name = 
REMARK  5 active torsions:
REMARK  status: ('A' for Active; 'I' for Inactive)
REMARK    1  A    between atoms: C_1  and  C_2
REMARK    2  A    between atoms: C_2  and  C_3
REMARK    3  A    between atoms: C_2  and  O_4
REMARK    4  A    between atoms: O_4  and  C_5
REMARK    5  A    between atoms: N_12  and  C_13
REMARK                            x       y       z     vdW  Elec       q    Type
REMARK                         _______ _______ _______ _____ _____    ______ ____
ROOT
ATOM      1  C   UNL     1       4.532   3.334  18.029  0.00  0.00    +0.000 C 
ATOM      2  C   UNL     1       3.654   2.376  17.169  0.00  0.00    +0.000 C 
ATOM      3  C   UNL     1       2.295   2.043  17.804  0.00  0.00    +0.000 C 
ATOM      4  C   UNL     1       1.458   3.318  17.993  0.00  0.00    +0.000 C 
ATOM      5  C   UNL     1       2.277   4.361  18.669  0.00  0.00    +0.000 A 
ATOM      6  N   UNL     1       1.691   5.450  19.268  0.00  0.00    +0.000 NA
ATOM      7  C   UNL     1       2.607   6.190  19.848  0.00  0.00    +0.000 A 
ATOM      8  N   UNL     1       2.409   7.409  20.397  0.00  0.00    +0.000 N 
ATOM      9  S   UNL     1       4.166   5.467  19.895  0.00  0.00    +0.000 S 
ATOM     10  C   UNL     1       3.656   4.330  18.722  0.00  0.00    +0.000 A 
ATOM     11  H   UNL     1       3.177   7.818  20.918  0.00  0.00    +0.000 HD
ENDROOT
BRANCH   8  12
ATOM     12  C   UNL     1       1.514   8.368  19.883  0.00  0.00    +0.000 A 
ATOM     13  C   UNL     1       1.671   8.791  18.558  0.00  0.00    +0.000 A 
ATOM     14  C   UNL     1       0.880   9.819  18.042  0.00  0.00    +0.000 A 
ATOM     15  C   UNL     1      -0.088  10.424  18.838  0.00  0.00    +0.000 A 
ATOM     16 CL   UNL     1      -1.027  11.722  18.215  0.00  0.00    +0.000 Cl
ATOM     17  C   UNL     1      -0.283   9.996  20.146  0.00  0.00    +0.000 A 
ATOM     18  C   UNL     1       0.517   8.979  20.662  0.00  0.00    +0.000 A 
ENDBRANCH   8  12
BRANCH   1  19
ATOM     19  O   UNL     1       5.409   3.984  17.092  0.00  0.00    +0.000 OA
BRANCH  19  21
ATOM     20  C   UNL     1       5.074   6.269  16.219  0.00  0.00    +0.000 C 
ATOM     21  C   UNL     1       4.841   4.774  16.043  0.00  0.00    +0.000 C 
ATOM     22  C   UNL     1       5.443   4.291  14.726  0.00  0.00    +0.000 C 
ENDBRANCH  19  21
ENDBRANCH   1  19
TORSDOF 3
ENDMDL
MODEL 9
REMARK VINA RESULT:      -6.1      2.147      3.742
REMARK  Name = 
REMARK  5 active torsions:
REMARK  status: ('A' for Active; 'I' for Inactive)
REMARK    1  A    between atoms: C_1  and  C_2
REMARK    2  A    between atoms: C_2  and  C_3
REMARK    3  A    between atoms: C_2  and  O_4
REMARK    4  A    between atoms: O_4  and  C_5
REMARK    5  A    between atoms: N_12  and  C_13
REMARK                            x       y       z     vdW  Elec       q    Type
REMARK                         _______ _______ _______ _____ _____    ______ ____
ROOT
ATOM      1  C   UNL     1       5.009   4.163  18.216  0.00  0.00    +0.000 C 
ATOM      2  C   UNL     1       6.507   4.520  17.978  0.00  0.00    +0.000 C 
ATOM      3  C   UNL     1       6.731   5.542  16.852  0.00  0.00    +0.000 C 
ATOM      4  C   UNL     1       6.033   6.871  17.180  0.00  0.00    +0.000 C 
ATOM      5  C   UNL     1       4.624   6.613  17.582  0.00  0.00    +0.000 A 
ATOM      6  N   UNL     1       3.688   7.620  17.586  0.00  0.00    +0.000 NA
ATOM      7  C   UNL     1       2.512   7.138  17.913  0.00  0.00    +0.000 A 
ATOM      8  N   UNL     1       1.399   7.864  18.164  0.00  0.00    +0.000 N 
ATOM      9  S   UNL     1       2.452   5.421  17.986  0.00  0.00    +0.000 S 
ATOM     10  C   UNL     1       4.164   5.379  17.997  0.00  0.00    +0.000 A 
ATOM     11  H   UNL     1       0.529   7.360  18.287  0.00  0.00    +0.000 HD
ENDROOT
BRANCH   8  12
ATOM     12  C   UNL     1       1.408   9.122  18.799  0.00  0.00    +0.000 A 
ATOM     13  C   UNL     1       1.014   9.200  20.140  0.00  0.00    +0.000 A 
ATOM     14  C   UNL     1       0.899  10.438  20.776  0.00  0.00    +0.000 A 
ATOM     15  C   UNL     1       1.194  11.609  20.084  0.00  0.00    +0.000 A 
ATOM     16 CL   UNL     1       1.005  13.134  20.855  0.00  0.00    +0.000 Cl
ATOM     17  C   UNL     1       1.619  11.552  18.762  0.00  0.00    +0.000 A 
ATOM     18  C   UNL     1       1.719  10.316  18.127  0.00  0.00    +0.000 A 
ENDBRANCH   8  12
BRANCH   1  19
ATOM     19  O   UNL     1       4.938   3.727  19.585  0.00  0.00    +0.000 OA
BRANCH  19  21
ATOM     20  C   UNL     1       2.970   2.828  20.775  0.00  0.00    +0.000 C 
ATOM     21  C   UNL     1       4.187   2.551  19.901  0.00  0.00    +0.000 C 
ATOM     22  C   UNL     1       3.763   1.909  18.582  0.00  0.00    +0.000 C 
ENDBRANCH  19  21
ENDBRANCH   1  19
TORSDOF 3
ENDMDL
