MODEL 1
REMARK VINA RESULT:      -8.3      0.000      0.000
REMARK  Name = 
REMARK  3 active torsions:
REMARK  status: ('A' for Active; 'I' for Inactive)
REMARK    1  A    between atoms: C_4  and  C_5
REMARK    2  A    between atoms: C_12  and  C_13
REMARK    3  A    between atoms: C_13  and  C_15
REMARK                            x       y       z     vdW  Elec       q    Type
REMARK                         _______ _______ _______ _____ _____    ______ ____
ROOT
ATOM      1  N   UNL     1       7.324   5.804  15.943  0.00  0.00    +0.000 N 
ATOM      2  C   UNL     1       6.094   5.609  16.440  0.00  0.00    +0.000 A 
ATOM      3  N   UNL     1       5.434   6.518  17.101  0.00  0.00    +0.000 NA
ATOM      4  C   UNL     1       4.207   6.018  17.544  0.00  0.00    +0.000 A 
ATOM      5  C   UNL     1       3.983   4.682  17.222  0.00  0.00    +0.000 A 
ATOM      6  S   UNL     1       5.273   4.132  16.211  0.00  0.00    +0.000 S 
ATOM      7  H   UNL     1       7.633   6.766  15.874  0.00  0.00    +0.000 HD
ATOM      8  H   UNL     1       7.657   5.197  15.204  0.00  0.00    +0.000 HD
ENDROOT
BRANCH   4   9
ATOM      9  C   UNL     1       3.294   6.924  18.246  0.00  0.00    +0.000 A 
ATOM     10  C   UNL     1       2.786   8.037  17.554  0.00  0.00    +0.000 A 
ATOM     11  C   UNL     1       1.842   8.888  18.142  0.00  0.00    +0.000 A 
ATOM     12  C   UNL     1       1.399   8.632  19.435  0.00  0.00    +0.000 A 
ATOM     13 BR   UNL     1       0.064   9.724  20.207  0.00  0.00    +0.000 Br
ATOM     14  C   UNL     1       1.930   7.570  20.160  0.00  0.00    +0.000 A 
ATOM     15  C   UNL     1       2.891   6.735  19.575  0.00  0.00    +0.000 A 
ENDBRANCH   4   9
BRANCH   5  16
ATOM     16  C   UNL     1       2.851   3.809  17.499  0.00  0.00    +0.000 C 
ATOM     17  O   UNL     1       2.152   3.341  16.605  0.00  0.00    +0.000 OA
BRANCH  16  18
ATOM     18  C   UNL     1       2.437   3.520  18.914  0.00  0.00    +0.000 A 
ATOM     19  C   UNL     1       1.086   3.674  19.290  0.00  0.00    +0.000 A 
ATOM     20  C   UNL     1       0.666   3.405  20.595  0.00  0.00    +0.000 A 
ATOM     21  C   UNL     1       1.575   2.929  21.531  0.00  0.00    +0.000 A 
ATOM     22  C   UNL     1       2.907   2.736  21.168  0.00  0.00    +0.000 A 
ATOM     23  C   UNL     1       3.346   3.040  19.871  0.00  0.00    +0.000 A 
ATOM     24 CL   UNL     1       5.039   2.836  19.580  0.00  0.00    +0.000 Cl
ENDBRANCH  16  18
ENDBRANCH   5  16
TORSDOF 3
ENDMDL
MODEL 2
REMARK VINA RESULT:      -8.3      2.938      4.731
REMARK  Name = 
REMARK  3 active torsions:
REMARK  status: ('A' for Active; 'I' for Inactive)
REMARK    1  A    between atoms: C_4  and  C_5
REMARK    2  A    between atoms: C_12  and  C_13
REMARK    3  A    between atoms: C_13  and  C_15
REMARK                            x       y       z     vdW  Elec       q    Type
REMARK                         _______ _______ _______ _____ _____    ______ ____
ROOT
ATOM      1  N   UNL     1       1.891   2.432  22.057  0.00  0.00    +0.000 N 
ATOM      2  C   UNL     1       2.373   3.241  21.102  0.00  0.00    +0.000 A 
ATOM      3  N   UNL     1       1.914   4.439  20.876  0.00  0.00    +0.000 NA
ATOM      4  C   UNL     1       2.567   5.025  19.790  0.00  0.00    +0.000 A 
ATOM      5  C   UNL     1       3.514   4.206  19.181  0.00  0.00    +0.000 A 
ATOM      6  S   UNL     1       3.673   2.758  20.110  0.00  0.00    +0.000 S 
ATOM      7  H   UNL     1       1.323   2.871  22.772  0.00  0.00    +0.000 HD
ATOM      8  H   UNL     1       2.460   1.660  22.381  0.00  0.00    +0.000 HD
ENDROOT
BRANCH   4   9
ATOM      9  C   UNL     1       2.232   6.407  19.434  0.00  0.00    +0.000 A 
ATOM     10  C   UNL     1       1.714   7.252  20.429  0.00  0.00    +0.000 A 
ATOM     11  C   UNL     1       1.459   8.605  20.173  0.00  0.00    +0.000 A 
ATOM     12  C   UNL     1       1.718   9.124  18.909  0.00  0.00    +0.000 A 
ATOM     13 BR   UNL     1       1.457  10.966  18.575  0.00  0.00    +0.000 Br
ATOM     14  C   UNL     1       2.178   8.294  17.892  0.00  0.00    +0.000 A 
ATOM     15  C   UNL     1       2.410   6.936  18.148  0.00  0.00    +0.000 A 
ENDBRANCH   4   9
BRANCH   5  16
ATOM     16  C   UNL     1       4.389   4.441  18.040  0.00  0.00    +0.000 C 
ATOM     17  O   UNL     1       4.208   3.897  16.955  0.00  0.00    +0.000 OA
BRANCH  16  18
ATOM     18  C   UNL     1       5.615   5.298  18.181  0.00  0.00    +0.000 A 
ATOM     19  C   UNL     1       6.476   5.107  19.282  0.00  0.00    +0.000 A 
ATOM     20  C   UNL     1       7.629   5.881  19.438  0.00  0.00    +0.000 A 
ATOM     21  C   UNL     1       7.968   6.820  18.472  0.00  0.00    +0.000 A 
ATOM     22  C   UNL     1       7.149   6.996  17.359  0.00  0.00    +0.000 A 
ATOM     23  C   UNL     1       5.969   6.252  17.213  0.00  0.00    +0.000 A 
ATOM     24 CL   UNL     1       5.003   6.631  15.829  0.00  0.00    +0.000 Cl
ENDBRANCH  16  18
ENDBRANCH   5  16
TORSDOF 3
ENDMDL
MODEL 3
REMARK VINA RESULT:      -8.3      2.919      4.645
REMARK  Name = 
REMARK  3 active torsions:
REMARK  status: ('A' for Active; 'I' for Inactive)
REMARK    1  A    between atoms: C_4  and  C_5
REMARK    2  A    between atoms: C_12  and  C_13
REMARK    3  A    between atoms: C_13  and  C_15
REMARK                            x       y       z     vdW  Elec       q    Type
REMARK                         _______ _______ _______ _____ _____    ______ ____
ROOT
ATOM      1  N   UNL     1       1.860   2.424  22.012  0.00  0.00    +0.000 N 
ATOM      2  C   UNL     1       2.327   3.277  21.089  0.00  0.00    +0.000 A 
ATOM      3  N   UNL     1       1.905   4.503  20.964  0.00  0.00    +0.000 NA
ATOM      4  C   UNL     1       2.529   5.137  19.887  0.00  0.00    +0.000 A 
ATOM      5  C   UNL     1       3.414   4.327  19.180  0.00  0.00    +0.000 A 
ATOM      6  S   UNL     1       3.561   2.815  20.005  0.00  0.00    +0.000 S 
ATOM      7  H   UNL     1       1.343   2.834  22.780  0.00  0.00    +0.000 HD
ATOM      8  H   UNL     1       2.413   1.612  22.256  0.00  0.00    +0.000 HD
ENDROOT
BRANCH   4   9
ATOM      9  C   UNL     1       2.231   6.551  19.639  0.00  0.00    +0.000 A 
ATOM     10  C   UNL     1       2.415   7.060  18.342  0.00  0.00    +0.000 A 
ATOM     11  C   UNL     1       2.063   8.377  18.023  0.00  0.00    +0.000 A 
ATOM     12  C   UNL     1       1.524   9.201  19.006  0.00  0.00    +0.000 A 
ATOM     13 BR   UNL     1       0.968  10.952  18.566  0.00  0.00    +0.000 Br
ATOM     14  C   UNL     1       1.386   8.736  20.310  0.00  0.00    +0.000 A 
ATOM     15  C   UNL     1       1.761   7.424  20.629  0.00  0.00    +0.000 A 
ENDBRANCH   4   9
BRANCH   5  16
ATOM     16  C   UNL     1       4.243   4.606  18.016  0.00  0.00    +0.000 C 
ATOM     17  O   UNL     1       3.983   4.154  16.905  0.00  0.00    +0.000 OA
BRANCH  16  18
ATOM     18  C   UNL     1       5.516   5.394  18.155  0.00  0.00    +0.000 A 
ATOM     19  C   UNL     1       6.381   5.134  19.238  0.00  0.00    +0.000 A 
ATOM     20  C   UNL     1       7.576   5.842  19.392  0.00  0.00    +0.000 A 
ATOM     21  C   UNL     1       7.952   6.781  18.440  0.00  0.00    +0.000 A 
ATOM     22  C   UNL     1       7.127   7.024  17.343  0.00  0.00    +0.000 A 
ATOM     23  C   UNL     1       5.907   6.347  17.201  0.00  0.00    +0.000 A 
ATOM     24 CL   UNL     1       4.942   6.806  15.840  0.00  0.00    +0.000 Cl
ENDBRANCH  16  18
ENDBRANCH   5  16
TORSDOF 3
ENDMDL
MODEL 4
REMARK VINA RESULT:      -8.2      0.351      1.085
REMARK  Name = 
REMARK  3 active torsions:
REMARK  status: ('A' for Active; 'I' for Inactive)
REMARK    1  A    between atoms: C_4  and  C_5
REMARK    2  A    between atoms: C_12  and  C_13
REMARK    3  A    between atoms: C_13  and  C_15
REMARK                            x       y       z     vdW  Elec       q    Type
REMARK                         _______ _______ _______ _____ _____    ______ ____
ROOT
ATOM      1  N   UNL     1       7.326   6.091  16.459  0.00  0.00    +0.000 N 
ATOM      2  C   UNL     1       6.066   5.850  16.847  0.00  0.00    +0.000 A 
ATOM      3  N   UNL     1       5.298   6.748  17.396  0.00  0.00    +0.000 NA
ATOM      4  C   UNL     1       4.062   6.199  17.746  0.00  0.00    +0.000 A 
ATOM      5  C   UNL     1       3.941   4.840  17.473  0.00  0.00    +0.000 A 
ATOM      6  S   UNL     1       5.350   4.318  16.619  0.00  0.00    +0.000 S 
ATOM      7  H   UNL     1       7.589   7.065  16.370  0.00  0.00    +0.000 HD
ATOM      8  H   UNL     1       7.761   5.471  15.787  0.00  0.00    +0.000 HD
ENDROOT
BRANCH   4   9
ATOM      9  C   UNL     1       3.039   7.084  18.311  0.00  0.00    +0.000 A 
ATOM     10  C   UNL     1       2.653   6.898  19.650  0.00  0.00    +0.000 A 
ATOM     11  C   UNL     1       1.747   7.767  20.271  0.00  0.00    +0.000 A 
ATOM     12  C   UNL     1       1.214   8.832  19.552  0.00  0.00    +0.000 A 
ATOM     13 BR   UNL     1       0.056  10.058  20.404  0.00  0.00    +0.000 Br
ATOM     14  C   UNL     1       1.539   9.002  18.210  0.00  0.00    +0.000 A 
ATOM     15  C   UNL     1       2.428   8.117  17.587  0.00  0.00    +0.000 A 
ENDBRANCH   4   9
BRANCH   5  16
ATOM     16  C   UNL     1       2.835   3.917  17.687  0.00  0.00    +0.000 C 
ATOM     17  O   UNL     1       2.174   3.462  16.759  0.00  0.00    +0.000 OA
BRANCH  16  18
ATOM     18  C   UNL     1       2.400   3.555  19.079  0.00  0.00    +0.000 A 
ATOM     19  C   UNL     1       1.111   3.919  19.523  0.00  0.00    +0.000 A 
ATOM     20  C   UNL     1       0.672   3.590  20.808  0.00  0.00    +0.000 A 
ATOM     21  C   UNL     1       1.489   2.849  21.651  0.00  0.00    +0.000 A 
ATOM     22  C   UNL     1       2.752   2.448  21.216  0.00  0.00    +0.000 A 
ATOM     23  C   UNL     1       3.217   2.807  19.942  0.00  0.00    +0.000 A 
ATOM     24 CL   UNL     1       4.832   2.318  19.563  0.00  0.00    +0.000 Cl
ENDBRANCH  16  18
ENDBRANCH   5  16
TORSDOF 3
ENDMDL
MODEL 5
REMARK VINA RESULT:      -7.5      2.830      4.676
REMARK  Name = 
REMARK  3 active torsions:
REMARK  status: ('A' for Active; 'I' for Inactive)
REMARK    1  A    between atoms: C_4  and  C_5
REMARK    2  A    between atoms: C_12  and  C_13
REMARK    3  A    between atoms: C_13  and  C_15
REMARK                            x       y       z     vdW  Elec       q    Type
REMARK                         _______ _______ _______ _____ _____    ______ ____
ROOT
ATOM      1  N   UNL     1       1.144   1.403  19.305  0.00  0.00    +0.000 N 
ATOM      2  C   UNL     1       1.979   2.451  19.231  0.00  0.00    +0.000 A 
ATOM      3  N   UNL     1       1.577   3.690  19.220  0.00  0.00    +0.000 NA
ATOM      4  C   UNL     1       2.659   4.562  19.081  0.00  0.00    +0.000 A 
ATOM      5  C   UNL     1       3.892   3.929  18.950  0.00  0.00    +0.000 A 
ATOM      6  S   UNL     1       3.669   2.230  19.175  0.00  0.00    +0.000 S 
ATOM      7  H   UNL     1       0.199   1.604  19.608  0.00  0.00    +0.000 HD
ATOM      8  H   UNL     1       1.506   0.507  19.606  0.00  0.00    +0.000 HD
ENDROOT
BRANCH   4   9
ATOM      9  C   UNL     1       2.405   6.005  19.122  0.00  0.00    +0.000 A 
ATOM     10  C   UNL     1       2.576   6.753  17.945  0.00  0.00    +0.000 A 
ATOM     11  C   UNL     1       2.263   8.117  17.900  0.00  0.00    +0.000 A 
ATOM     12  C   UNL     1       1.776   8.748  19.040  0.00  0.00    +0.000 A 
ATOM     13 BR   UNL     1       1.271  10.567  18.968  0.00  0.00    +0.000 Br
ATOM     14  C   UNL     1       1.652   8.041  20.232  0.00  0.00    +0.000 A 
ATOM     15  C   UNL     1       1.988   6.681  20.277  0.00  0.00    +0.000 A 
ENDBRANCH   4   9
BRANCH   5  16
ATOM     16  C   UNL     1       5.233   4.473  18.785  0.00  0.00    +0.000 C 
ATOM     17  O   UNL     1       5.886   4.901  19.732  0.00  0.00    +0.000 OA
BRANCH  16  18
ATOM     18  C   UNL     1       5.837   4.615  17.416  0.00  0.00    +0.000 A 
ATOM     19  C   UNL     1       5.277   3.909  16.331  0.00  0.00    +0.000 A 
ATOM     20  C   UNL     1       5.808   4.027  15.044  0.00  0.00    +0.000 A 
ATOM     21  C   UNL     1       6.872   4.889  14.810  0.00  0.00    +0.000 A 
ATOM     22  C   UNL     1       7.414   5.623  15.863  0.00  0.00    +0.000 A 
ATOM     23  C   UNL     1       6.913   5.482  17.166  0.00  0.00    +0.000 A 
ATOM     24 CL   UNL     1       7.732   6.386  18.392  0.00  0.00    +0.000 Cl
ENDBRANCH  16  18
ENDBRANCH   5  16
TORSDOF 3
ENDMDL
MODEL 6
REMARK VINA RESULT:      -7.4      1.194      1.619
REMARK  Name = 
REMARK  3 active torsions:
REMARK  status: ('A' for Active; 'I' for Inactive)
REMARK    1  A    between atoms: C_4  and  C_5
REMARK    2  A    between atoms: C_12  and  C_13
REMARK    3  A    between atoms: C_13  and  C_15
REMARK                            x       y       z     vdW  Elec       q    Type
REMARK                         _______ _______ _______ _____ _____    ______ ____
ROOT
ATOM      1  N   UNL     1       7.066   5.920  15.580  0.00  0.00    +0.000 N 
ATOM      2  C   UNL     1       5.907   5.712  16.222  0.00  0.00    +0.000 A 
ATOM      3  N   UNL     1       5.261   6.647  16.860  0.00  0.00    +0.000 NA
ATOM      4  C   UNL     1       4.119   6.130  17.476  0.00  0.00    +0.000 A 
ATOM      5  C   UNL     1       3.949   4.759  17.310  0.00  0.00    +0.000 A 
ATOM      6  S   UNL     1       5.163   4.177  16.225  0.00  0.00    +0.000 S 
ATOM      7  H   UNL     1       7.305   6.885  15.387  0.00  0.00    +0.000 HD
ATOM      8  H   UNL     1       7.361   5.259  14.872  0.00  0.00    +0.000 HD
ENDROOT
BRANCH   4   9
ATOM      9  C   UNL     1       3.226   7.054  18.181  0.00  0.00    +0.000 A 
ATOM     10  C   UNL     1       2.762   8.193  17.501  0.00  0.00    +0.000 A 
ATOM     11  C   UNL     1       1.838   9.064  18.090  0.00  0.00    +0.000 A 
ATOM     12  C   UNL     1       1.370   8.802  19.374  0.00  0.00    +0.000 A 
ATOM     13 BR   UNL     1       0.059   9.923  20.146  0.00  0.00    +0.000 Br
ATOM     14  C   UNL     1       1.857   7.711  20.087  0.00  0.00    +0.000 A 
ATOM     15  C   UNL     1       2.799   6.856  19.501  0.00  0.00    +0.000 A 
ENDBRANCH   4   9
BRANCH   5  16
ATOM     16  C   UNL     1       2.908   3.859  17.789  0.00  0.00    +0.000 C 
ATOM     17  O   UNL     1       1.868   3.673  17.165  0.00  0.00    +0.000 OA
BRANCH  16  18
ATOM     18  C   UNL     1       3.034   3.189  19.127  0.00  0.00    +0.000 A 
ATOM     19  C   UNL     1       4.207   2.468  19.437  0.00  0.00    +0.000 A 
ATOM     20  C   UNL     1       4.359   1.840  20.676  0.00  0.00    +0.000 A 
ATOM     21  C   UNL     1       3.370   1.965  21.643  0.00  0.00    +0.000 A 
ATOM     22  C   UNL     1       2.221   2.704  21.367  0.00  0.00    +0.000 A 
ATOM     23  C   UNL     1       2.041   3.306  20.113  0.00  0.00    +0.000 A 
ATOM     24 CL   UNL     1       0.534   4.120  19.876  0.00  0.00    +0.000 Cl
ENDBRANCH  16  18
ENDBRANCH   5  16
TORSDOF 3
ENDMDL
MODEL 7
REMARK VINA RESULT:      -7.4      1.211      1.931
REMARK  Name = 
REMARK  3 active torsions:
REMARK  status: ('A' for Active; 'I' for Inactive)
REMARK    1  A    between atoms: C_4  and  C_5
REMARK    2  A    between atoms: C_12  and  C_13
REMARK    3  A    between atoms: C_13  and  C_15
REMARK                            x       y       z     vdW  Elec       q    Type
REMARK                         _______ _______ _______ _____ _____    ______ ____
ROOT
ATOM      1  N   UNL     1       7.003   5.939  15.594  0.00  0.00    +0.000 N 
ATOM      2  C   UNL     1       5.842   5.719  16.228  0.00  0.00    +0.000 A 
ATOM      3  N   UNL     1       5.160   6.655  16.824  0.00  0.00    +0.000 NA
ATOM      4  C   UNL     1       4.026   6.126  17.444  0.00  0.00    +0.000 A 
ATOM      5  C   UNL     1       3.899   4.745  17.324  0.00  0.00    +0.000 A 
ATOM      6  S   UNL     1       5.145   4.163  16.277  0.00  0.00    +0.000 S 
ATOM      7  H   UNL     1       7.215   6.903  15.369  0.00  0.00    +0.000 HD
ATOM      8  H   UNL     1       7.327   5.263  14.913  0.00  0.00    +0.000 HD
ENDROOT
BRANCH   4   9
ATOM      9  C   UNL     1       3.096   7.047  18.104  0.00  0.00    +0.000 A 
ATOM     10  C   UNL     1       2.714   6.782  19.431  0.00  0.00    +0.000 A 
ATOM     11  C   UNL     1       1.900   7.672  20.143  0.00  0.00    +0.000 A 
ATOM     12  C   UNL     1       1.456   8.838  19.528  0.00  0.00    +0.000 A 
ATOM     13 BR   UNL     1       0.428  10.086  20.506  0.00  0.00    +0.000 Br
ATOM     14  C   UNL     1       1.775   9.093  18.198  0.00  0.00    +0.000 A 
ATOM     15  C   UNL     1       2.571   8.189  17.483  0.00  0.00    +0.000 A 
ENDBRANCH   4   9
BRANCH   5  16
ATOM     16  C   UNL     1       2.880   3.832  17.822  0.00  0.00    +0.000 C 
ATOM     17  O   UNL     1       1.831   3.632  17.218  0.00  0.00    +0.000 OA
BRANCH  16  18
ATOM     18  C   UNL     1       3.039   3.163  19.158  0.00  0.00    +0.000 A 
ATOM     19  C   UNL     1       4.217   2.439  19.438  0.00  0.00    +0.000 A 
ATOM     20  C   UNL     1       4.400   1.813  20.674  0.00  0.00    +0.000 A 
ATOM     21  C   UNL     1       3.437   1.943  21.667  0.00  0.00    +0.000 A 
ATOM     22  C   UNL     1       2.284   2.686  21.420  0.00  0.00    +0.000 A 
ATOM     23  C   UNL     1       2.073   3.286  20.170  0.00  0.00    +0.000 A 
ATOM     24 CL   UNL     1       0.562   4.105  19.971  0.00  0.00    +0.000 Cl
ENDBRANCH  16  18
ENDBRANCH   5  16
TORSDOF 3
ENDMDL
MODEL 8
REMARK VINA RESULT:      -7.1      2.925      4.777
REMARK  Name = 
REMARK  3 active torsions:
REMARK  status: ('A' for Active; 'I' for Inactive)
REMARK    1  A    between atoms: C_4  and  C_5
REMARK    2  A    between atoms: C_12  and  C_13
REMARK    3  A    between atoms: C_13  and  C_15
REMARK                            x       y       z     vdW  Elec       q    Type
REMARK                         _______ _______ _______ _____ _____    ______ ____
ROOT
ATOM      1  N   UNL     1       1.633   2.182  21.159  0.00  0.00    +0.000 N 
ATOM      2  C   UNL     1       2.363   3.163  20.610  0.00  0.00    +0.000 A 
ATOM      3  N   UNL     1       1.870   4.318  20.263  0.00  0.00    +0.000 NA
ATOM      4  C   UNL     1       2.848   5.118  19.668  0.00  0.00    +0.000 A 
ATOM      5  C   UNL     1       4.092   4.505  19.544  0.00  0.00    +0.000 A 
ATOM      6  S   UNL     1       4.037   2.974  20.344  0.00  0.00    +0.000 S 
ATOM      7  H   UNL     1       0.732   2.450  21.535  0.00  0.00    +0.000 HD
ATOM      8  H   UNL     1       2.104   1.446  21.670  0.00  0.00    +0.000 HD
ENDROOT
BRANCH   4   9
ATOM      9  C   UNL     1       2.492   6.486  19.280  0.00  0.00    +0.000 A 
ATOM     10  C   UNL     1       1.864   7.313  20.226  0.00  0.00    +0.000 A 
ATOM     11  C   UNL     1       1.581   8.655  19.943  0.00  0.00    +0.000 A 
ATOM     12  C   UNL     1       1.924   9.181  18.702  0.00  0.00    +0.000 A 
ATOM     13 BR   UNL     1       1.624  11.012  18.340  0.00  0.00    +0.000 Br
ATOM     14  C   UNL     1       2.496   8.367  17.730  0.00  0.00    +0.000 A 
ATOM     15  C   UNL     1       2.756   7.019  18.011  0.00  0.00    +0.000 A 
ENDBRANCH   4   9
BRANCH   5  16
ATOM     16  C   UNL     1       5.346   4.992  18.987  0.00  0.00    +0.000 C 
ATOM     17  O   UNL     1       6.182   5.575  19.671  0.00  0.00    +0.000 OA
BRANCH  16  18
ATOM     18  C   UNL     1       5.625   4.878  17.515  0.00  0.00    +0.000 A 
ATOM     19  C   UNL     1       4.899   3.950  16.739  0.00  0.00    +0.000 A 
ATOM     20  C   UNL     1       5.127   3.825  15.366  0.00  0.00    +0.000 A 
ATOM     21  C   UNL     1       6.044   4.657  14.737  0.00  0.00    +0.000 A 
ATOM     22  C   UNL     1       6.743   5.605  15.482  0.00  0.00    +0.000 A 
ATOM     23  C   UNL     1       6.550   5.712  16.867  0.00  0.00    +0.000 A 
ATOM     24 CL   UNL     1       7.544   6.870  17.682  0.00  0.00    +0.000 Cl
ENDBRANCH  16  18
ENDBRANCH   5  16
TORSDOF 3
ENDMDL
MODEL 9
REMARK VINA RESULT:      -6.9      2.861      4.625
REMARK  Name = 
REMARK  3 active torsions:
REMARK  status: ('A' for Active; 'I' for Inactive)
REMARK    1  A    between atoms: C_4  and  C_5
REMARK    2  A    between atoms: C_12  and  C_13
REMARK    3  A    between atoms: C_13  and  C_15
REMARK                            x       y       z     vdW  Elec       q    Type
REMARK                         _______ _______ _______ _____ _____    ______ ____
ROOT
ATOM      1  N   UNL     1       0.733   2.607  21.246  0.00  0.00    +0.000 N 
ATOM      2  C   UNL     1       1.567   3.534  20.751  0.00  0.00    +0.000 A 
ATOM      3  N   UNL     1       1.213   4.764  20.510  0.00  0.00    +0.000 NA
ATOM      4  C   UNL     1       2.269   5.485  19.948  0.00  0.00    +0.000 A 
ATOM      5  C   UNL     1       3.425   4.738  19.738  0.00  0.00    +0.000 A 
ATOM      6  S   UNL     1       3.199   3.165  20.418  0.00  0.00    +0.000 S 
ATOM      7  H   UNL     1      -0.120   2.952  21.669  0.00  0.00    +0.000 HD
ATOM      8  H   UNL     1       1.121   1.781  21.683  0.00  0.00    +0.000 HD
ENDROOT
BRANCH   4   9
ATOM      9  C   UNL     1       2.077   6.913  19.678  0.00  0.00    +0.000 A 
ATOM     10  C   UNL     1       2.312   7.390  18.377  0.00  0.00    +0.000 A 
ATOM     11  C   UNL     1       2.060   8.725  18.037  0.00  0.00    +0.000 A 
ATOM     12  C   UNL     1       1.570   9.598  19.003  0.00  0.00    +0.000 A 
ATOM     13 BR   UNL     1       1.147  11.379  18.534  0.00  0.00    +0.000 Br
ATOM     14  C   UNL     1       1.383   9.162  20.311  0.00  0.00    +0.000 A 
ATOM     15  C   UNL     1       1.658   7.831  20.651  0.00  0.00    +0.000 A 
ENDBRANCH   4   9
BRANCH   5  16
ATOM     16  C   UNL     1       4.717   5.112  19.182  0.00  0.00    +0.000 C 
ATOM     17  O   UNL     1       5.664   5.440  19.891  0.00  0.00    +0.000 OA
BRANCH  16  18
ATOM     18  C   UNL     1       4.912   5.201  17.694  0.00  0.00    +0.000 A 
ATOM     19  C   UNL     1       5.318   6.422  17.117  0.00  0.00    +0.000 A 
ATOM     20  C   UNL     1       5.517   6.536  15.738  0.00  0.00    +0.000 A 
ATOM     21  C   UNL     1       5.367   5.423  14.922  0.00  0.00    +0.000 A 
ATOM     22  C   UNL     1       5.002   4.198  15.481  0.00  0.00    +0.000 A 
ATOM     23  C   UNL     1       4.762   4.083  16.858  0.00  0.00    +0.000 A 
ATOM     24 CL   UNL     1       4.234   2.529  17.405  0.00  0.00    +0.000 Cl
ENDBRANCH  16  18
ENDBRANCH   5  16
TORSDOF 3
ENDMDL
