MODEL 1
REMARK VINA RESULT:      -7.9      0.000      0.000
REMARK  Name = 
REMARK  9 active torsions:
REMARK  status: ('A' for Active; 'I' for Inactive)
REMARK    1  A    between atoms: C_1  and  C_2
REMARK    2  A    between atoms: N_4  and  C_5
REMARK    3  A    between atoms: C_5  and  C_6
REMARK    4  A    between atoms: C_5  and  C_7
REMARK    5  A    between atoms: C_7  and  C_8
REMARK    6  A    between atoms: C_11  and  C_12
REMARK    7  A    between atoms: C_13  and  C_14
REMARK    8  A    between atoms: C_21  and  C_22
REMARK    9  A    between atoms: C_21  and  C_23
REMARK                            x       y       z     vdW  Elec       q    Type
REMARK                         _______ _______ _______ _____ _____    ______ ____
ROOT
ATOM      1  C   UNL     1       0.530   9.802  20.786  0.00  0.00    +0.000 C 
ATOM      2  C   UNL     1       1.201   9.020  20.165  0.00  0.00    +0.000 C 
ENDROOT
BRANCH   2   3
ATOM      3  C   UNL     1       1.977   8.100  19.385  0.00  0.00    +0.000 A 
ATOM      4  C   UNL     1       2.220   6.802  19.764  0.00  0.00    +0.000 A 
ATOM      5  N   UNL     1       2.930   5.911  19.026  0.00  0.00    +0.000 NA
ATOM      6  C   UNL     1       3.459   6.340  17.864  0.00  0.00    +0.000 A 
ATOM      7  N   UNL     1       4.165   5.466  17.085  0.00  0.00    +0.000 N 
ATOM      8  C   UNL     1       4.332   4.068  17.427  0.00  0.00    +0.000 C 
ATOM      9  C   UNL     1       5.316   3.561  16.367  0.00  0.00    +0.000 C 
ATOM     10  C   UNL     1       6.194   4.789  16.069  0.00  0.00    +0.000 C 
ATOM     11  C   UNL     1       7.279   4.959  17.146  0.00  0.00    +0.000 C 
ATOM     12  C   UNL     1       6.866   4.697  14.697  0.00  0.00    +0.000 C 
ATOM     13  C   UNL     1       5.159   5.940  16.132  0.00  0.00    +0.000 C 
ATOM     14  N   UNL     1       3.297   7.603  17.430  0.00  0.00    +0.000 NA
ATOM     15  C   UNL     1       2.554   8.446  18.187  0.00  0.00    +0.000 A 
ENDBRANCH   2   3
BRANCH   1  19
ATOM     16  C   UNL     1      -2.003  12.612  22.759  0.00  0.00    +0.000 A 
ATOM     17  C   UNL     1      -1.448  12.898  21.506  0.00  0.00    +0.000 A 
ATOM     18  C   UNL     1      -0.600  11.980  20.869  0.00  0.00    +0.000 A 
ATOM     19  C   UNL     1      -0.289  10.763  21.478  0.00  0.00    +0.000 A 
ATOM     20  C   UNL     1      -0.809  10.483  22.743  0.00  0.00    +0.000 A 
ATOM     21  C   UNL     1      -1.658  11.403  23.381  0.00  0.00    +0.000 A 
BRANCH  16  22
ATOM     22  C   UNL     1      -2.933  13.594  23.446  0.00  0.00    +0.000 C 
BRANCH  22  23
ATOM     23  C   UNL     1      -4.418  13.169  23.481  0.00  0.00    +0.000 C 
ATOM     24  C   UNL     1      -4.699  12.304  24.715  0.00  0.00    +0.000 C 
BRANCH  23  28
ATOM     25  C   UNL     1      -6.265  11.817  20.451  0.00  0.00    +0.000 C 
ATOM     26  C   UNL     1      -6.016  12.691  21.650  0.00  0.00    +0.000 C 
ATOM     27  O   UNL     1      -6.818  13.542  22.019  0.00  0.00    +0.000 OA
ATOM     28  N   UNL     1      -4.812  12.447  22.273  0.00  0.00    +0.000 N 
ATOM     29  H   UNL     1      -4.250  11.665  21.966  0.00  0.00    +0.000 HD
ENDBRANCH  23  28
ENDBRANCH  22  23
ENDBRANCH  16  22
ENDBRANCH   1  19
TORSDOF 5
ENDMDL
MODEL 2
REMARK VINA RESULT:      -7.9      8.150     11.360
REMARK  Name = 
REMARK  9 active torsions:
REMARK  status: ('A' for Active; 'I' for Inactive)
REMARK    1  A    between atoms: C_1  and  C_2
REMARK    2  A    between atoms: N_4  and  C_5
REMARK    3  A    between atoms: C_5  and  C_6
REMARK    4  A    between atoms: C_5  and  C_7
REMARK    5  A    between atoms: C_7  and  C_8
REMARK    6  A    between atoms: C_11  and  C_12
REMARK    7  A    between atoms: C_13  and  C_14
REMARK    8  A    between atoms: C_21  and  C_22
REMARK    9  A    between atoms: C_21  and  C_23
REMARK                            x       y       z     vdW  Elec       q    Type
REMARK                         _______ _______ _______ _____ _____    ______ ____
ROOT
ATOM      1  C   UNL     1       7.530   8.240  17.799  0.00  0.00    +0.000 C 
ATOM      2  C   UNL     1       8.139   9.265  17.968  0.00  0.00    +0.000 C 
ENDROOT
BRANCH   2   3
ATOM      3  C   UNL     1       8.836  10.496  18.205  0.00  0.00    +0.000 A 
ATOM      4  C   UNL     1       9.913  10.607  19.051  0.00  0.00    +0.000 A 
ATOM      5  N   UNL     1      10.599  11.759  19.266  0.00  0.00    +0.000 NA
ATOM      6  C   UNL     1      10.174  12.869  18.634  0.00  0.00    +0.000 A 
ATOM      7  N   UNL     1      10.851  14.044  18.811  0.00  0.00    +0.000 N 
ATOM      8  C   UNL     1      12.051  14.143  19.618  0.00  0.00    +0.000 C 
ATOM      9  C   UNL     1      12.330  15.650  19.650  0.00  0.00    +0.000 C 
ATOM     10  C   UNL     1      10.927  16.280  19.585  0.00  0.00    +0.000 C 
ATOM     11  C   UNL     1      10.258  16.268  20.970  0.00  0.00    +0.000 C 
ATOM     12  C   UNL     1      10.967  17.719  19.066  0.00  0.00    +0.000 C 
ATOM     13  C   UNL     1      10.199  15.328  18.604  0.00  0.00    +0.000 C 
ATOM     14  N   UNL     1       9.110  12.859  17.811  0.00  0.00    +0.000 NA
ATOM     15  C   UNL     1       8.477  11.678  17.604  0.00  0.00    +0.000 A 
ENDBRANCH   2   3
BRANCH   1  19
ATOM     16  C   UNL     1       5.372   4.602  17.245  0.00  0.00    +0.000 A 
ATOM     17  C   UNL     1       4.986   5.777  16.587  0.00  0.00    +0.000 A 
ATOM     18  C   UNL     1       5.686   6.975  16.787  0.00  0.00    +0.000 A 
ATOM     19  C   UNL     1       6.781   7.020  17.652  0.00  0.00    +0.000 A 
ATOM     20  C   UNL     1       7.152   5.864  18.340  0.00  0.00    +0.000 A 
ATOM     21  C   UNL     1       6.450   4.663  18.141  0.00  0.00    +0.000 A 
BRANCH  16  22
ATOM     22  C   UNL     1       4.629   3.299  17.021  0.00  0.00    +0.000 C 
BRANCH  22  23
ATOM     23  C   UNL     1       3.269   3.192  17.749  0.00  0.00    +0.000 C 
ATOM     24  C   UNL     1       2.353   4.352  17.343  0.00  0.00    +0.000 C 
BRANCH  23  28
ATOM     25  C   UNL     1       2.791   2.696  21.483  0.00  0.00    +0.000 C 
ATOM     26  C   UNL     1       2.483   2.576  20.015  0.00  0.00    +0.000 C 
ATOM     27  O   UNL     1       1.489   1.990  19.599  0.00  0.00    +0.000 OA
ATOM     28  N   UNL     1       3.423   3.170  19.201  0.00  0.00    +0.000 N 
ATOM     29  H   UNL     1       4.164   3.714  19.623  0.00  0.00    +0.000 HD
ENDBRANCH  23  28
ENDBRANCH  22  23
ENDBRANCH  16  22
ENDBRANCH   1  19
TORSDOF 5
ENDMDL
MODEL 3
REMARK VINA RESULT:      -7.7      4.403     11.921
REMARK  Name = 
REMARK  9 active torsions:
REMARK  status: ('A' for Active; 'I' for Inactive)
REMARK    1  A    between atoms: C_1  and  C_2
REMARK    2  A    between atoms: N_4  and  C_5
REMARK    3  A    between atoms: C_5  and  C_6
REMARK    4  A    between atoms: C_5  and  C_7
REMARK    5  A    between atoms: C_7  and  C_8
REMARK    6  A    between atoms: C_11  and  C_12
REMARK    7  A    between atoms: C_13  and  C_14
REMARK    8  A    between atoms: C_21  and  C_22
REMARK    9  A    between atoms: C_21  and  C_23
REMARK                            x       y       z     vdW  Elec       q    Type
REMARK                         _______ _______ _______ _____ _____    ______ ____
ROOT
ATOM      1  C   UNL     1       2.601   7.572  18.271  0.00  0.00    +0.000 C 
ATOM      2  C   UNL     1       1.935   8.381  18.862  0.00  0.00    +0.000 C 
ENDROOT
BRANCH   2   3
ATOM      3  C   UNL     1       1.144   9.318  19.606  0.00  0.00    +0.000 A 
ATOM      4  C   UNL     1       0.508   9.008  20.784  0.00  0.00    +0.000 A 
ATOM      5  N   UNL     1      -0.222   9.891  21.513  0.00  0.00    +0.000 NA
ATOM      6  C   UNL     1      -0.359  11.140  21.030  0.00  0.00    +0.000 A 
ATOM      7  N   UNL     1      -1.072  12.062  21.745  0.00  0.00    +0.000 N 
ATOM      8  C   UNL     1      -1.653  11.770  23.041  0.00  0.00    +0.000 C 
ATOM      9  C   UNL     1      -2.475  13.028  23.348  0.00  0.00    +0.000 C 
ATOM     10  C   UNL     1      -2.931  13.512  21.961  0.00  0.00    +0.000 C 
ATOM     11  C   UNL     1      -4.149  12.707  21.474  0.00  0.00    +0.000 C 
ATOM     12  C   UNL     1      -3.288  15.000  21.960  0.00  0.00    +0.000 C 
ATOM     13  C   UNL     1      -1.682  13.212  21.095  0.00  0.00    +0.000 C 
ATOM     14  N   UNL     1       0.204  11.523  19.870  0.00  0.00    +0.000 NA
ATOM     15  C   UNL     1       0.949  10.615  19.194  0.00  0.00    +0.000 A 
ENDBRANCH   2   3
BRANCH   1  19
ATOM     16  C   UNL     1       5.107   4.650  16.431  0.00  0.00    +0.000 A 
ATOM     17  C   UNL     1       5.404   6.015  16.339  0.00  0.00    +0.000 A 
ATOM     18  C   UNL     1       4.568   6.974  16.928  0.00  0.00    +0.000 A 
ATOM     19  C   UNL     1       3.417   6.583  17.615  0.00  0.00    +0.000 A 
ATOM     20  C   UNL     1       3.092   5.228  17.682  0.00  0.00    +0.000 A 
ATOM     21  C   UNL     1       3.930   4.266  17.091  0.00  0.00    +0.000 A 
BRANCH  16  22
ATOM     22  C   UNL     1       6.015   3.607  15.809  0.00  0.00    +0.000 C 
BRANCH  22  23
ATOM     23  C   UNL     1       6.431   3.894  14.348  0.00  0.00    +0.000 C 
ATOM     24  C   UNL     1       7.138   5.250  14.249  0.00  0.00    +0.000 C 
BRANCH  23  28
ATOM     25  C   UNL     1       4.110   3.368  11.389  0.00  0.00    +0.000 C 
ATOM     26  C   UNL     1       5.370   3.253  12.204  0.00  0.00    +0.000 C 
ATOM     27  O   UNL     1       6.361   2.657  11.798  0.00  0.00    +0.000 OA
ATOM     28  N   UNL     1       5.290   3.865  13.436  0.00  0.00    +0.000 N 
ATOM     29  H   UNL     1       4.472   4.417  13.658  0.00  0.00    +0.000 HD
ENDBRANCH  23  28
ENDBRANCH  22  23
ENDBRANCH  16  22
ENDBRANCH   1  19
TORSDOF 5
ENDMDL
MODEL 4
REMARK VINA RESULT:      -7.7      4.421     11.965
REMARK  Name = 
REMARK  9 active torsions:
REMARK  status: ('A' for Active; 'I' for Inactive)
REMARK    1  A    between atoms: C_1  and  C_2
REMARK    2  A    between atoms: N_4  and  C_5
REMARK    3  A    between atoms: C_5  and  C_6
REMARK    4  A    between atoms: C_5  and  C_7
REMARK    5  A    between atoms: C_7  and  C_8
REMARK    6  A    between atoms: C_11  and  C_12
REMARK    7  A    between atoms: C_13  and  C_14
REMARK    8  A    between atoms: C_21  and  C_22
REMARK    9  A    between atoms: C_21  and  C_23
REMARK                            x       y       z     vdW  Elec       q    Type
REMARK                         _______ _______ _______ _____ _____    ______ ____
ROOT
ATOM      1  C   UNL     1       2.887   7.349  18.261  0.00  0.00    +0.000 C 
ATOM      2  C   UNL     1       2.142   8.148  18.766  0.00  0.00    +0.000 C 
ENDROOT
BRANCH   2   3
ATOM      3  C   UNL     1       1.232   9.104  19.327  0.00  0.00    +0.000 A 
ATOM      4  C   UNL     1       0.702  10.155  18.618  0.00  0.00    +0.000 A 
ATOM      5  N   UNL     1      -0.181  11.052  19.128  0.00  0.00    +0.000 NA
ATOM      6  C   UNL     1      -0.532  10.921  20.421  0.00  0.00    +0.000 A 
ATOM      7  N   UNL     1      -1.433  11.794  20.964  0.00  0.00    +0.000 N 
ATOM      8  C   UNL     1      -2.076  12.838  20.191  0.00  0.00    +0.000 C 
ATOM      9  C   UNL     1      -2.842  13.639  21.251  0.00  0.00    +0.000 C 
ATOM     10  C   UNL     1      -1.966  13.507  22.509  0.00  0.00    +0.000 C 
ATOM     11  C   UNL     1      -0.789  14.497  22.461  0.00  0.00    +0.000 C 
ATOM     12  C   UNL     1      -2.764  13.747  23.793  0.00  0.00    +0.000 C 
ATOM     13  C   UNL     1      -1.471  12.044  22.397  0.00  0.00    +0.000 C 
ATOM     14  N   UNL     1      -0.039   9.940  21.198  0.00  0.00    +0.000 NA
ATOM     15  C   UNL     1       0.815   9.050  20.636  0.00  0.00    +0.000 A 
ENDBRANCH   2   3
BRANCH   1  19
ATOM     16  C   UNL     1       5.331   4.500  16.232  0.00  0.00    +0.000 A 
ATOM     17  C   UNL     1       4.121   4.120  16.826  0.00  0.00    +0.000 A 
ATOM     18  C   UNL     1       3.330   5.055  17.509  0.00  0.00    +0.000 A 
ATOM     19  C   UNL     1       3.739   6.385  17.614  0.00  0.00    +0.000 A 
ATOM     20  C   UNL     1       4.960   6.768  17.057  0.00  0.00    +0.000 A 
ATOM     21  C   UNL     1       5.753   5.831  16.373  0.00  0.00    +0.000 A 
BRANCH  16  22
ATOM     22  C   UNL     1       6.184   3.498  15.480  0.00  0.00    +0.000 C 
BRANCH  22  23
ATOM     23  C   UNL     1       6.479   3.868  14.008  0.00  0.00    +0.000 C 
ATOM     24  C   UNL     1       7.199   5.219  13.931  0.00  0.00    +0.000 C 
BRANCH  23  28
ATOM     25  C   UNL     1       3.840   3.377  11.322  0.00  0.00    +0.000 C 
ATOM     26  C   UNL     1       5.143   3.166  12.045  0.00  0.00    +0.000 C 
ATOM     27  O   UNL     1       6.002   2.392  11.636  0.00  0.00    +0.000 OA
ATOM     28  N   UNL     1       5.264   3.910  13.198  0.00  0.00    +0.000 N 
ATOM     29  H   UNL     1       4.553   4.595  13.417  0.00  0.00    +0.000 HD
ENDBRANCH  23  28
ENDBRANCH  22  23
ENDBRANCH  16  22
ENDBRANCH   1  19
TORSDOF 5
ENDMDL
MODEL 5
REMARK VINA RESULT:      -7.6      3.413     11.788
REMARK  Name = 
REMARK  9 active torsions:
REMARK  status: ('A' for Active; 'I' for Inactive)
REMARK    1  A    between atoms: C_1  and  C_2
REMARK    2  A    between atoms: N_4  and  C_5
REMARK    3  A    between atoms: C_5  and  C_6
REMARK    4  A    between atoms: C_5  and  C_7
REMARK    5  A    between atoms: C_7  and  C_8
REMARK    6  A    between atoms: C_11  and  C_12
REMARK    7  A    between atoms: C_13  and  C_14
REMARK    8  A    between atoms: C_21  and  C_22
REMARK    9  A    between atoms: C_21  and  C_23
REMARK                            x       y       z     vdW  Elec       q    Type
REMARK                         _______ _______ _______ _____ _____    ______ ____
ROOT
ATOM      1  C   UNL     1       1.194   8.881  19.958  0.00  0.00    +0.000 C 
ATOM      2  C   UNL     1       0.491   9.710  20.472  0.00  0.00    +0.000 C 
ENDROOT
BRANCH   2   3
ATOM      3  C   UNL     1      -0.384  10.670  21.081  0.00  0.00    +0.000 A 
ATOM      4  C   UNL     1      -0.482  10.853  22.440  0.00  0.00    +0.000 A 
ATOM      5  N   UNL     1      -1.285  11.775  23.030  0.00  0.00    +0.000 NA
ATOM      6  C   UNL     1      -2.061  12.533  22.232  0.00  0.00    +0.000 A 
ATOM      7  N   UNL     1      -2.870  13.484  22.789  0.00  0.00    +0.000 N 
ATOM      8  C   UNL     1      -2.896  13.755  24.213  0.00  0.00    +0.000 C 
ATOM      9  C   UNL     1      -4.052  14.752  24.360  0.00  0.00    +0.000 C 
ATOM     10  C   UNL     1      -5.029  14.342  23.244  0.00  0.00    +0.000 C 
ATOM     11  C   UNL     1      -5.877  13.134  23.678  0.00  0.00    +0.000 C 
ATOM     12  C   UNL     1      -5.963  15.488  22.849  0.00  0.00    +0.000 C 
ATOM     13  C   UNL     1      -4.059  13.961  22.099  0.00  0.00    +0.000 C 
ATOM     14  N   UNL     1      -2.052  12.401  20.893  0.00  0.00    +0.000 NA
ATOM     15  C   UNL     1      -1.210  11.489  20.349  0.00  0.00    +0.000 A 
ENDBRANCH   2   3
BRANCH   1  19
ATOM     16  C   UNL     1       3.453   5.753  18.136  0.00  0.00    +0.000 A 
ATOM     17  C   UNL     1       2.888   5.588  19.407  0.00  0.00    +0.000 A 
ATOM     18  C   UNL     1       2.163   6.625  20.011  0.00  0.00    +0.000 A 
ATOM     19  C   UNL     1       1.995   7.847  19.356  0.00  0.00    +0.000 A 
ATOM     20  C   UNL     1       2.584   8.034  18.105  0.00  0.00    +0.000 A 
ATOM     21  C   UNL     1       3.311   6.995  17.499  0.00  0.00    +0.000 A 
BRANCH  16  22
ATOM     22  C   UNL     1       4.226   4.630  17.470  0.00  0.00    +0.000 C 
BRANCH  22  23
ATOM     23  C   UNL     1       5.509   5.072  16.731  0.00  0.00    +0.000 C 
ATOM     24  C   UNL     1       6.036   3.935  15.848  0.00  0.00    +0.000 C 
BRANCH  23  28
ATOM     25  C   UNL     1       8.208   7.003  18.575  0.00  0.00    +0.000 C 
ATOM     26  C   UNL     1       7.116   6.759  17.570  0.00  0.00    +0.000 C 
ATOM     27  O   UNL     1       6.763   7.614  16.764  0.00  0.00    +0.000 OA
ATOM     28  N   UNL     1       6.555   5.504  17.655  0.00  0.00    +0.000 N 
ATOM     29  H   UNL     1       6.965   4.824  18.282  0.00  0.00    +0.000 HD
ENDBRANCH  23  28
ENDBRANCH  22  23
ENDBRANCH  16  22
ENDBRANCH   1  19
TORSDOF 5
ENDMDL
MODEL 6
REMARK VINA RESULT:      -7.6      3.923     11.654
REMARK  Name = 
REMARK  9 active torsions:
REMARK  status: ('A' for Active; 'I' for Inactive)
REMARK    1  A    between atoms: C_1  and  C_2
REMARK    2  A    between atoms: N_4  and  C_5
REMARK    3  A    between atoms: C_5  and  C_6
REMARK    4  A    between atoms: C_5  and  C_7
REMARK    5  A    between atoms: C_7  and  C_8
REMARK    6  A    between atoms: C_11  and  C_12
REMARK    7  A    between atoms: C_13  and  C_14
REMARK    8  A    between atoms: C_21  and  C_22
REMARK    9  A    between atoms: C_21  and  C_23
REMARK                            x       y       z     vdW  Elec       q    Type
REMARK                         _______ _______ _______ _____ _____    ______ ____
ROOT
ATOM      1  C   UNL     1       1.260   8.450  20.702  0.00  0.00    +0.000 C 
ATOM      2  C   UNL     1       0.743   9.422  21.187  0.00  0.00    +0.000 C 
ENDROOT
BRANCH   2   3
ATOM      3  C   UNL     1       0.105  10.589  21.724  0.00  0.00    +0.000 A 
ATOM      4  C   UNL     1      -0.778  10.556  22.776  0.00  0.00    +0.000 A 
ATOM      5  N   UNL     1      -1.369  11.654  23.312  0.00  0.00    +0.000 NA
ATOM      6  C   UNL     1      -1.098  12.848  22.753  0.00  0.00    +0.000 A 
ATOM      7  N   UNL     1      -1.660  13.979  23.277  0.00  0.00    +0.000 N 
ATOM      8  C   UNL     1      -2.507  13.960  24.453  0.00  0.00    +0.000 C 
ATOM      9  C   UNL     1      -3.019  15.403  24.541  0.00  0.00    +0.000 C 
ATOM     10  C   UNL     1      -3.095  15.851  23.071  0.00  0.00    +0.000 C 
ATOM     11  C   UNL     1      -4.378  15.325  22.405  0.00  0.00    +0.000 C 
ATOM     12  C   UNL     1      -3.052  17.375  22.931  0.00  0.00    +0.000 C 
ATOM     13  C   UNL     1      -1.837  15.177  22.469  0.00  0.00    +0.000 C 
ATOM     14  N   UNL     1      -0.269  12.971  21.701  0.00  0.00    +0.000 NA
ATOM     15  C   UNL     1       0.322  11.850  21.221  0.00  0.00    +0.000 A 
ENDBRANCH   2   3
BRANCH   1  19
ATOM     16  C   UNL     1       2.851   4.972  18.810  0.00  0.00    +0.000 A 
ATOM     17  C   UNL     1       2.213   4.888  20.054  0.00  0.00    +0.000 A 
ATOM     18  C   UNL     1       1.708   6.036  20.682  0.00  0.00    +0.000 A 
ATOM     19  C   UNL     1       1.839   7.288  20.079  0.00  0.00    +0.000 A 
ATOM     20  C   UNL     1       2.505   7.389  18.856  0.00  0.00    +0.000 A 
ATOM     21  C   UNL     1       3.011   6.238  18.227  0.00  0.00    +0.000 A 
BRANCH  16  22
ATOM     22  C   UNL     1       3.386   3.733  18.119  0.00  0.00    +0.000 C 
BRANCH  22  23
ATOM     23  C   UNL     1       4.700   3.173  18.710  0.00  0.00    +0.000 C 
ATOM     24  C   UNL     1       4.404   2.269  19.912  0.00  0.00    +0.000 C 
BRANCH  23  28
ATOM     25  C   UNL     1       7.457   5.781  18.843  0.00  0.00    +0.000 C 
ATOM     26  C   UNL     1       6.572   4.724  18.239  0.00  0.00    +0.000 C 
ATOM     27  O   UNL     1       6.695   4.353  17.077  0.00  0.00    +0.000 OA
ATOM     28  N   UNL     1       5.620   4.236  19.107  0.00  0.00    +0.000 N 
ATOM     29  H   UNL     1       5.645   4.525  20.076  0.00  0.00    +0.000 HD
ENDBRANCH  23  28
ENDBRANCH  22  23
ENDBRANCH  16  22
ENDBRANCH   1  19
TORSDOF 5
ENDMDL
MODEL 7
REMARK VINA RESULT:      -7.6      4.460     11.942
REMARK  Name = 
REMARK  9 active torsions:
REMARK  status: ('A' for Active; 'I' for Inactive)
REMARK    1  A    between atoms: C_1  and  C_2
REMARK    2  A    between atoms: N_4  and  C_5
REMARK    3  A    between atoms: C_5  and  C_6
REMARK    4  A    between atoms: C_5  and  C_7
REMARK    5  A    between atoms: C_7  and  C_8
REMARK    6  A    between atoms: C_11  and  C_12
REMARK    7  A    between atoms: C_13  and  C_14
REMARK    8  A    between atoms: C_21  and  C_22
REMARK    9  A    between atoms: C_21  and  C_23
REMARK                            x       y       z     vdW  Elec       q    Type
REMARK                         _______ _______ _______ _____ _____    ______ ____
ROOT
ATOM      1  C   UNL     1       2.566   7.443  18.429  0.00  0.00    +0.000 C 
ATOM      2  C   UNL     1       1.865   8.270  18.950  0.00  0.00    +0.000 C 
ENDROOT
BRANCH   2   3
ATOM      3  C   UNL     1       1.034   9.284  19.533  0.00  0.00    +0.000 A 
ATOM      4  C   UNL     1       0.683  10.443  18.885  0.00  0.00    +0.000 A 
ATOM      5  N   UNL     1      -0.123  11.399  19.413  0.00  0.00    +0.000 NA
ATOM      6  C   UNL     1      -0.579  11.213  20.666  0.00  0.00    +0.000 A 
ATOM      7  N   UNL     1      -1.408  12.145  21.225  0.00  0.00    +0.000 N 
ATOM      8  C   UNL     1      -1.868  13.317  20.506  0.00  0.00    +0.000 C 
ATOM      9  C   UNL     1      -2.609  14.121  21.580  0.00  0.00    +0.000 C 
ATOM     10  C   UNL     1      -1.847  13.786  22.875  0.00  0.00    +0.000 C 
ATOM     11  C   UNL     1      -0.562  14.626  22.984  0.00  0.00    +0.000 C 
ATOM     12  C   UNL     1      -2.701  14.022  24.122  0.00  0.00    +0.000 C 
ATOM     13  C   UNL     1      -1.519  12.286  22.669  0.00  0.00    +0.000 C 
ATOM     14  N   UNL     1      -0.261  10.122  21.386  0.00  0.00    +0.000 NA
ATOM     15  C   UNL     1       0.521   9.181  20.804  0.00  0.00    +0.000 A 
ENDBRANCH   2   3
BRANCH   1  19
ATOM     16  C   UNL     1       5.115   4.594  16.532  0.00  0.00    +0.000 A 
ATOM     17  C   UNL     1       5.394   5.966  16.471  0.00  0.00    +0.000 A 
ATOM     18  C   UNL     1       4.543   6.900  17.079  0.00  0.00    +0.000 A 
ATOM     19  C   UNL     1       3.396   6.479  17.754  0.00  0.00    +0.000 A 
ATOM     20  C   UNL     1       3.089   5.118  17.791  0.00  0.00    +0.000 A 
ATOM     21  C   UNL     1       3.941   4.181  17.181  0.00  0.00    +0.000 A 
BRANCH  16  22
ATOM     22  C   UNL     1       6.038   3.577  15.890  0.00  0.00    +0.000 C 
BRANCH  22  23
ATOM     23  C   UNL     1       6.465   3.909  14.442  0.00  0.00    +0.000 C 
ATOM     24  C   UNL     1       7.107   5.300  14.378  0.00  0.00    +0.000 C 
BRANCH  23  28
ATOM     25  C   UNL     1       4.235   3.366  11.417  0.00  0.00    +0.000 C 
ATOM     26  C   UNL     1       5.487   3.305  12.248  0.00  0.00    +0.000 C 
ATOM     27  O   UNL     1       6.529   2.810  11.830  0.00  0.00    +0.000 OA
ATOM     28  N   UNL     1       5.343   3.841  13.509  0.00  0.00    +0.000 N 
ATOM     29  H   UNL     1       4.481   4.315  13.745  0.00  0.00    +0.000 HD
ENDBRANCH  23  28
ENDBRANCH  22  23
ENDBRANCH  16  22
ENDBRANCH   1  19
TORSDOF 5
ENDMDL
MODEL 8
REMARK VINA RESULT:      -7.6      1.023      1.333
REMARK  Name = 
REMARK  9 active torsions:
REMARK  status: ('A' for Active; 'I' for Inactive)
REMARK    1  A    between atoms: C_1  and  C_2
REMARK    2  A    between atoms: N_4  and  C_5
REMARK    3  A    between atoms: C_5  and  C_6
REMARK    4  A    between atoms: C_5  and  C_7
REMARK    5  A    between atoms: C_7  and  C_8
REMARK    6  A    between atoms: C_11  and  C_12
REMARK    7  A    between atoms: C_13  and  C_14
REMARK    8  A    between atoms: C_21  and  C_22
REMARK    9  A    between atoms: C_21  and  C_23
REMARK                            x       y       z     vdW  Elec       q    Type
REMARK                         _______ _______ _______ _____ _____    ______ ____
ROOT
ATOM      1  C   UNL     1       0.593   9.970  20.962  0.00  0.00    +0.000 C 
ATOM      2  C   UNL     1       1.233   9.176  20.324  0.00  0.00    +0.000 C 
ENDROOT
BRANCH   2   3
ATOM      3  C   UNL     1       1.970   8.239  19.526  0.00  0.00    +0.000 A 
ATOM      4  C   UNL     1       2.229   6.948  19.916  0.00  0.00    +0.000 A 
ATOM      5  N   UNL     1       2.902   6.042  19.161  0.00  0.00    +0.000 NA
ATOM      6  C   UNL     1       3.374   6.448  17.968  0.00  0.00    +0.000 A 
ATOM      7  N   UNL     1       4.040   5.559  17.171  0.00  0.00    +0.000 N 
ATOM      8  C   UNL     1       4.222   4.167  17.531  0.00  0.00    +0.000 C 
ATOM      9  C   UNL     1       5.153   3.638  16.434  0.00  0.00    +0.000 C 
ATOM     10  C   UNL     1       6.017   4.859  16.071  0.00  0.00    +0.000 C 
ATOM     11  C   UNL     1       7.153   5.047  17.091  0.00  0.00    +0.000 C 
ATOM     12  C   UNL     1       6.622   4.739  14.670  0.00  0.00    +0.000 C 
ATOM     13  C   UNL     1       4.988   6.013  16.163  0.00  0.00    +0.000 C 
ATOM     14  N   UNL     1       3.193   7.703  17.518  0.00  0.00    +0.000 NA
ATOM     15  C   UNL     1       2.488   8.562  18.294  0.00  0.00    +0.000 A 
ENDBRANCH   2   3
BRANCH   1  19
ATOM     16  C   UNL     1      -1.821  12.859  22.971  0.00  0.00    +0.000 A 
ATOM     17  C   UNL     1      -0.925  13.242  21.964  0.00  0.00    +0.000 A 
ATOM     18  C   UNL     1      -0.120  12.292  21.319  0.00  0.00    +0.000 A 
ATOM     19  C   UNL     1      -0.192  10.944  21.676  0.00  0.00    +0.000 A 
ATOM     20  C   UNL     1      -1.054  10.557  22.702  0.00  0.00    +0.000 A 
ATOM     21  C   UNL     1      -1.861  11.508  23.349  0.00  0.00    +0.000 A 
BRANCH  16  22
ATOM     22  C   UNL     1      -2.706  13.879  23.661  0.00  0.00    +0.000 C 
BRANCH  22  23
ATOM     23  C   UNL     1      -3.927  14.346  22.837  0.00  0.00    +0.000 C 
ATOM     24  C   UNL     1      -3.759  15.810  22.414  0.00  0.00    +0.000 C 
BRANCH  23  28
ATOM     25  C   UNL     1      -7.302  13.177  24.123  0.00  0.00    +0.000 C 
ATOM     26  C   UNL     1      -6.044  13.148  23.299  0.00  0.00    +0.000 C 
ATOM     27  O   UNL     1      -5.821  12.268  22.474  0.00  0.00    +0.000 OA
ATOM     28  N   UNL     1      -5.180  14.185  23.571  0.00  0.00    +0.000 N 
ATOM     29  H   UNL     1      -5.478  14.922  24.196  0.00  0.00    +0.000 HD
ENDBRANCH  23  28
ENDBRANCH  22  23
ENDBRANCH  16  22
ENDBRANCH   1  19
TORSDOF 5
ENDMDL
MODEL 9
REMARK VINA RESULT:      -7.5      3.570     11.983
REMARK  Name = 
REMARK  9 active torsions:
REMARK  status: ('A' for Active; 'I' for Inactive)
REMARK    1  A    between atoms: C_1  and  C_2
REMARK    2  A    between atoms: N_4  and  C_5
REMARK    3  A    between atoms: C_5  and  C_6
REMARK    4  A    between atoms: C_5  and  C_7
REMARK    5  A    between atoms: C_7  and  C_8
REMARK    6  A    between atoms: C_11  and  C_12
REMARK    7  A    between atoms: C_13  and  C_14
REMARK    8  A    between atoms: C_21  and  C_22
REMARK    9  A    between atoms: C_21  and  C_23
REMARK                            x       y       z     vdW  Elec       q    Type
REMARK                         _______ _______ _______ _____ _____    ______ ____
ROOT
ATOM      1  C   UNL     1       0.151  10.260  20.296  0.00  0.00    +0.000 C 
ATOM      2  C   UNL     1      -0.622  11.052  20.767  0.00  0.00    +0.000 C 
ENDROOT
BRANCH   2   3
ATOM      3  C   UNL     1      -1.576  11.981  21.299  0.00  0.00    +0.000 A 
ATOM      4  C   UNL     1      -1.611  12.361  22.619  0.00  0.00    +0.000 A 
ATOM      5  N   UNL     1      -2.491  13.259  23.132  0.00  0.00    +0.000 NA
ATOM      6  C   UNL     1      -3.409  13.784  22.299  0.00  0.00    +0.000 A 
ATOM      7  N   UNL     1      -4.299  14.705  22.776  0.00  0.00    +0.000 N 
ATOM      8  C   UNL     1      -4.271  15.189  24.141  0.00  0.00    +0.000 C 
ATOM      9  C   UNL     1      -5.537  16.049  24.236  0.00  0.00    +0.000 C 
ATOM     10  C   UNL     1      -6.520  15.355  23.277  0.00  0.00    +0.000 C 
ATOM     11  C   UNL     1      -7.172  14.135  23.952  0.00  0.00    +0.000 C 
ATOM     12  C   UNL     1      -7.621  16.303  22.797  0.00  0.00    +0.000 C 
ATOM     13  C   UNL     1      -5.583  14.920  22.124  0.00  0.00    +0.000 C 
ATOM     14  N   UNL     1      -3.467  13.446  20.998  0.00  0.00    +0.000 NA
ATOM     15  C   UNL     1      -2.548  12.570  20.526  0.00  0.00    +0.000 A 
ENDBRANCH   2   3
BRANCH   1  19
ATOM     16  C   UNL     1       2.649   7.283  18.533  0.00  0.00    +0.000 A 
ATOM     17  C   UNL     1       2.236   7.180  19.867  0.00  0.00    +0.000 A 
ATOM     18  C   UNL     1       1.431   8.170  20.449  0.00  0.00    +0.000 A 
ATOM     19  C   UNL     1       1.031   9.283  19.707  0.00  0.00    +0.000 A 
ATOM     20  C   UNL     1       1.466   9.414  18.388  0.00  0.00    +0.000 A 
ATOM     21  C   UNL     1       2.273   8.422  17.804  0.00  0.00    +0.000 A 
BRANCH  16  22
ATOM     22  C   UNL     1       3.507   6.209  17.893  0.00  0.00    +0.000 C 
BRANCH  22  23
ATOM     23  C   UNL     1       4.054   5.144  18.871  0.00  0.00    +0.000 C 
ATOM     24  C   UNL     1       5.534   5.404  19.173  0.00  0.00    +0.000 C 
BRANCH  23  28
ATOM     25  C   UNL     1       3.554   1.399  18.488  0.00  0.00    +0.000 C 
ATOM     26  C   UNL     1       3.650   2.723  19.198  0.00  0.00    +0.000 C 
ATOM     27  O   UNL     1       3.516   2.826  20.412  0.00  0.00    +0.000 OA
ATOM     28  N   UNL     1       3.887   3.787  18.356  0.00  0.00    +0.000 N 
ATOM     29  H   UNL     1       4.079   3.608  17.380  0.00  0.00    +0.000 HD
ENDBRANCH  23  28
ENDBRANCH  22  23
ENDBRANCH  16  22
ENDBRANCH   1  19
TORSDOF 5
ENDMDL
