MODEL 1
REMARK VINA RESULT:      -7.3      0.000      0.000
REMARK  Name = 
REMARK  6 active torsions:
REMARK  status: ('A' for Active; 'I' for Inactive)
REMARK    1  A    between atoms: C_1  and  C_2
REMARK    2  A    between atoms: C_2  and  N_3
REMARK    3  A    between atoms: C_5  and  C_6
REMARK    4  A    between atoms: C_6  and  O_8
REMARK    5  A    between atoms: C_13  and  C_14
REMARK    6  A    between atoms: N_20  and  C_21
REMARK                            x       y       z     vdW  Elec       q    Type
REMARK                         _______ _______ _______ _____ _____    ______ ____
ROOT
ATOM      1  N   UNL     1       3.923   5.860  17.889  0.00  0.00    +0.000 N 
ATOM      2  C   UNL     1       4.306   4.569  18.236  0.00  0.00    +0.000 A 
ATOM      3  C   UNL     1       3.894   3.885  19.315  0.00  0.00    +0.000 A 
ATOM      4  C   UNL     1       2.941   4.580  20.195  0.00  0.00    +0.000 A 
ATOM      5  O   UNL     1       2.524   4.028  21.214  0.00  0.00    +0.000 OA
ATOM      6  C   UNL     1       2.500   5.935  19.834  0.00  0.00    +0.000 A 
ATOM      7  C   UNL     1       1.602   6.585  20.665  0.00  0.00    +0.000 A 
ATOM      8  C   UNL     1       1.197   7.876  20.348  0.00  0.00    +0.000 A 
ATOM      9  C   UNL     1       1.685   8.493  19.185  0.00  0.00    +0.000 A 
ATOM     10  N   UNL     1       1.342   9.792  18.864  0.00  0.00    +0.000 N 
ATOM     11  C   UNL     1       2.235  10.637  18.062  0.00  0.00    +0.000 C 
ATOM     12  C   UNL     1       2.162  12.090  18.620  0.00  0.00    +0.000 C 
ATOM     13  N   UNL     1       0.779  12.630  18.676  0.00  0.00    +0.000 NA
ATOM     14  C   UNL     1       0.761  13.960  19.281  0.00  0.00    +0.000 C 
ATOM     15  C   UNL     1      -0.087  11.702  19.442  0.00  0.00    +0.000 C 
ATOM     16  C   UNL     1      -0.051  10.274  18.847  0.00  0.00    +0.000 C 
ATOM     17  N   UNL     1       2.584   7.838  18.385  0.00  0.00    +0.000 NA
ATOM     18  C   UNL     1       2.990   6.571  18.690  0.00  0.00    +0.000 A 
ENDROOT
BRANCH   1  20
ATOM     19  C   UNL     1       5.319   5.608  15.872  0.00  0.00    +0.000 C 
ATOM     20  C   UNL     1       4.407   6.526  16.672  0.00  0.00    +0.000 C 
ENDBRANCH   1  20
BRANCH   3  21
ATOM     21  C   UNL     1       4.381   2.517  19.586  0.00  0.00    +0.000 C 
ATOM     22  O   UNL     1       5.048   2.228  20.572  0.00  0.00    +0.000 OA
BRANCH  21  23
ATOM     23  O   UNL     1       4.032   1.599  18.660  0.00  0.00    +0.000 OA
ATOM     24  H   UNL     1       4.569   1.632  17.829  0.00  0.00    +0.000 HD
ENDBRANCH  21  23
ENDBRANCH   3  21
BRANCH   8  25
ATOM     25  C   UNL     1       0.364   8.537  21.302  0.00  0.00    +0.000 C 
ATOM     26  N   UNL     1      -0.286   9.064  22.109  0.00  0.00    +0.000 NA
ENDBRANCH   8  25
TORSDOF 4
ENDMDL
MODEL 2
REMARK VINA RESULT:      -6.2      3.660      7.880
REMARK  Name = 
REMARK  6 active torsions:
REMARK  status: ('A' for Active; 'I' for Inactive)
REMARK    1  A    between atoms: C_1  and  C_2
REMARK    2  A    between atoms: C_2  and  N_3
REMARK    3  A    between atoms: C_5  and  C_6
REMARK    4  A    between atoms: C_6  and  O_8
REMARK    5  A    between atoms: C_13  and  C_14
REMARK    6  A    between atoms: N_20  and  C_21
REMARK                            x       y       z     vdW  Elec       q    Type
REMARK                         _______ _______ _______ _____ _____    ______ ____
ROOT
ATOM      1  N   UNL     1       0.310   9.638  20.599  0.00  0.00    +0.000 N 
ATOM      2  C   UNL     1       0.134  11.007  20.421  0.00  0.00    +0.000 A 
ATOM      3  C   UNL     1       0.736  11.766  19.493  0.00  0.00    +0.000 A 
ATOM      4  C   UNL     1       1.656  11.068  18.582  0.00  0.00    +0.000 A 
ATOM      5  O   UNL     1       2.259  11.694  17.711  0.00  0.00    +0.000 OA
ATOM      6  C   UNL     1       1.837   9.616  18.732  0.00  0.00    +0.000 A 
ATOM      7  C   UNL     1       2.703   8.962  17.872  0.00  0.00    +0.000 A 
ATOM      8  C   UNL     1       2.903   7.594  18.021  0.00  0.00    +0.000 A 
ATOM      9  C   UNL     1       2.210   6.895  19.022  0.00  0.00    +0.000 A 
ATOM     10  N   UNL     1       2.419   5.545  19.230  0.00  0.00    +0.000 N 
ATOM     11  C   UNL     1       2.211   4.939  20.551  0.00  0.00    +0.000 C 
ATOM     12  C   UNL     1       3.313   3.859  20.770  0.00  0.00    +0.000 C 
ATOM     13  N   UNL     1       3.362   2.843  19.687  0.00  0.00    +0.000 NA
ATOM     14  C   UNL     1       4.463   1.904  19.901  0.00  0.00    +0.000 C 
ATOM     15  C   UNL     1       3.507   3.518  18.375  0.00  0.00    +0.000 C 
ATOM     16  C   UNL     1       2.377   4.550  18.143  0.00  0.00    +0.000 C 
ATOM     17  N   UNL     1       1.369   7.565  19.872  0.00  0.00    +0.000 NA
ATOM     18  C   UNL     1       1.170   8.908  19.736  0.00  0.00    +0.000 A 
ENDROOT
BRANCH   1  20
ATOM     19  C   UNL     1      -0.335   9.578  22.978  0.00  0.00    +0.000 C 
ATOM     20  C   UNL     1      -0.410   8.878  21.629  0.00  0.00    +0.000 C 
ENDBRANCH   1  20
BRANCH   3  21
ATOM     21  C   UNL     1       0.477  13.219  19.408  0.00  0.00    +0.000 C 
ATOM     22  O   UNL     1       0.823  14.012  20.275  0.00  0.00    +0.000 OA
BRANCH  21  23
ATOM     23  O   UNL     1      -0.173  13.613  18.292  0.00  0.00    +0.000 OA
ATOM     24  H   UNL     1      -0.667  12.891  17.829  0.00  0.00    +0.000 HD
ENDBRANCH  21  23
ENDBRANCH   3  21
BRANCH   8  25
ATOM     25  C   UNL     1       3.893   6.998  17.184  0.00  0.00    +0.000 C 
ATOM     26  N   UNL     1       4.730   6.528  16.527  0.00  0.00    +0.000 NA
ENDBRANCH   8  25
TORSDOF 4
ENDMDL
MODEL 3
REMARK VINA RESULT:      -5.8      9.208     10.069
REMARK  Name = 
REMARK  6 active torsions:
REMARK  status: ('A' for Active; 'I' for Inactive)
REMARK    1  A    between atoms: C_1  and  C_2
REMARK    2  A    between atoms: C_2  and  N_3
REMARK    3  A    between atoms: C_5  and  C_6
REMARK    4  A    between atoms: C_6  and  O_8
REMARK    5  A    between atoms: C_13  and  C_14
REMARK    6  A    between atoms: N_20  and  C_21
REMARK                            x       y       z     vdW  Elec       q    Type
REMARK                         _______ _______ _______ _____ _____    ______ ____
ROOT
ATOM      1  N   UNL     1       8.544  14.431  18.867  0.00  0.00    +0.000 N 
ATOM      2  C   UNL     1       9.560  13.984  18.028  0.00  0.00    +0.000 A 
ATOM      3  C   UNL     1      10.545  13.136  18.362  0.00  0.00    +0.000 A 
ATOM      4  C   UNL     1      10.527  12.637  19.746  0.00  0.00    +0.000 A 
ATOM      5  O   UNL     1      11.404  11.866  20.138  0.00  0.00    +0.000 OA
ATOM      6  C   UNL     1       9.448  13.073  20.644  0.00  0.00    +0.000 A 
ATOM      7  C   UNL     1       9.433  12.600  21.946  0.00  0.00    +0.000 A 
ATOM      8  C   UNL     1       8.433  13.025  22.811  0.00  0.00    +0.000 A 
ATOM      9  C   UNL     1       7.443  13.907  22.350  0.00  0.00    +0.000 A 
ATOM     10  N   UNL     1       6.461  14.389  23.195  0.00  0.00    +0.000 N 
ATOM     11  C   UNL     1       5.822  15.688  22.954  0.00  0.00    +0.000 C 
ATOM     12  C   UNL     1       5.578  16.374  24.332  0.00  0.00    +0.000 C 
ATOM     13  N   UNL     1       4.799  15.532  25.277  0.00  0.00    +0.000 NA
ATOM     14  C   UNL     1       4.669  16.188  26.577  0.00  0.00    +0.000 C 
ATOM     15  C   UNL     1       5.457  14.212  25.428  0.00  0.00    +0.000 C 
ATOM     16  C   UNL     1       5.646  13.515  24.059  0.00  0.00    +0.000 C 
ATOM     17  N   UNL     1       7.484  14.375  21.063  0.00  0.00    +0.000 NA
ATOM     18  C   UNL     1       8.465  13.966  20.207  0.00  0.00    +0.000 A 
ENDROOT
BRANCH   1  20
ATOM     19  C   UNL     1       7.988  16.780  18.366  0.00  0.00    +0.000 C 
ATOM     20  C   UNL     1       7.488  15.343  18.410  0.00  0.00    +0.000 C 
ENDBRANCH   1  20
BRANCH   3  21
ATOM     21  C   UNL     1      11.579  12.741  17.384  0.00  0.00    +0.000 C 
ATOM     22  O   UNL     1      11.976  13.483  16.494  0.00  0.00    +0.000 OA
BRANCH  21  23
ATOM     23  O   UNL     1      12.062  11.491  17.545  0.00  0.00    +0.000 OA
ATOM     24  H   UNL     1      12.687  11.388  18.307  0.00  0.00    +0.000 HD
ENDBRANCH  21  23
ENDBRANCH   3  21
BRANCH   8  25
ATOM     25  C   UNL     1       8.538  12.597  24.169  0.00  0.00    +0.000 C 
ATOM     26  N   UNL     1       8.593  12.220  25.268  0.00  0.00    +0.000 NA
ENDBRANCH   8  25
TORSDOF 4
ENDMDL
MODEL 4
REMARK VINA RESULT:      -5.8      5.257      7.956
REMARK  Name = 
REMARK  6 active torsions:
REMARK  status: ('A' for Active; 'I' for Inactive)
REMARK    1  A    between atoms: C_1  and  C_2
REMARK    2  A    between atoms: C_2  and  N_3
REMARK    3  A    between atoms: C_5  and  C_6
REMARK    4  A    between atoms: C_6  and  O_8
REMARK    5  A    between atoms: C_13  and  C_14
REMARK    6  A    between atoms: N_20  and  C_21
REMARK                            x       y       z     vdW  Elec       q    Type
REMARK                         _______ _______ _______ _____ _____    ______ ____
ROOT
ATOM      1  N   UNL     1      -2.034  11.408  19.084  0.00  0.00    +0.000 N 
ATOM      2  C   UNL     1      -0.962  10.655  18.615  0.00  0.00    +0.000 A 
ATOM      3  C   UNL     1       0.243  10.549  19.196  0.00  0.00    +0.000 A 
ATOM      4  C   UNL     1       0.425  11.298  20.449  0.00  0.00    +0.000 A 
ATOM      5  O   UNL     1       1.505  11.265  21.038  0.00  0.00    +0.000 OA
ATOM      6  C   UNL     1      -0.702  12.078  20.980  0.00  0.00    +0.000 A 
ATOM      7  C   UNL     1      -0.527  12.781  22.161  0.00  0.00    +0.000 A 
ATOM      8  C   UNL     1      -1.578  13.543  22.659  0.00  0.00    +0.000 A 
ATOM      9  C   UNL     1      -2.802  13.573  21.973  0.00  0.00    +0.000 A 
ATOM     10  N   UNL     1      -3.852  14.357  22.411  0.00  0.00    +0.000 N 
ATOM     11  C   UNL     1      -4.858  14.872  21.476  0.00  0.00    +0.000 C 
ATOM     12  C   UNL     1      -5.246  16.314  21.923  0.00  0.00    +0.000 C 
ATOM     13  N   UNL     1      -5.703  16.388  23.335  0.00  0.00    +0.000 NA
ATOM     14  C   UNL     1      -5.976  17.770  23.724  0.00  0.00    +0.000 C 
ATOM     15  C   UNL     1      -4.675  15.794  24.223  0.00  0.00    +0.000 C 
ATOM     16  C   UNL     1      -4.336  14.343  23.804  0.00  0.00    +0.000 C 
ATOM     17  N   UNL     1      -2.949  12.882  20.798  0.00  0.00    +0.000 NA
ATOM     18  C   UNL     1      -1.922  12.134  20.300  0.00  0.00    +0.000 A 
ENDROOT
BRANCH   1  20
ATOM     19  C   UNL     1      -3.520  10.222  17.514  0.00  0.00    +0.000 C 
ATOM     20  C   UNL     1      -3.330  11.448  18.395  0.00  0.00    +0.000 C 
ENDBRANCH   1  20
BRANCH   3  21
ATOM     21  C   UNL     1       1.312   9.725  18.595  0.00  0.00    +0.000 C 
ATOM     22  O   UNL     1       1.676   8.655  19.067  0.00  0.00    +0.000 OA
BRANCH  21  23
ATOM     23  O   UNL     1       1.862  10.240  17.475  0.00  0.00    +0.000 OA
ATOM     24  H   UNL     1       2.844  10.360  17.519  0.00  0.00    +0.000 HD
ENDBRANCH  21  23
ENDBRANCH   3  21
BRANCH   8  25
ATOM     25  C   UNL     1      -1.300  14.337  23.812  0.00  0.00    +0.000 C 
ATOM     26  N   UNL     1      -1.114  14.977  24.766  0.00  0.00    +0.000 NA
ENDBRANCH   8  25
TORSDOF 4
ENDMDL
MODEL 5
REMARK VINA RESULT:      -5.8      2.029      3.570
REMARK  Name = 
REMARK  6 active torsions:
REMARK  status: ('A' for Active; 'I' for Inactive)
REMARK    1  A    between atoms: C_1  and  C_2
REMARK    2  A    between atoms: C_2  and  N_3
REMARK    3  A    between atoms: C_5  and  C_6
REMARK    4  A    between atoms: C_6  and  O_8
REMARK    5  A    between atoms: C_13  and  C_14
REMARK    6  A    between atoms: N_20  and  C_21
REMARK                            x       y       z     vdW  Elec       q    Type
REMARK                         _______ _______ _______ _____ _____    ______ ____
ROOT
ATOM      1  N   UNL     1       2.566   4.610  20.172  0.00  0.00    +0.000 N 
ATOM      2  C   UNL     1       3.206   3.652  19.392  0.00  0.00    +0.000 A 
ATOM      3  C   UNL     1       3.745   3.850  18.180  0.00  0.00    +0.000 A 
ATOM      4  C   UNL     1       3.648   5.217  17.645  0.00  0.00    +0.000 A 
ATOM      5  O   UNL     1       4.104   5.481  16.533  0.00  0.00    +0.000 OA
ATOM      6  C   UNL     1       3.000   6.254  18.462  0.00  0.00    +0.000 A 
ATOM      7  C   UNL     1       2.912   7.541  17.955  0.00  0.00    +0.000 A 
ATOM      8  C   UNL     1       2.279   8.524  18.707  0.00  0.00    +0.000 A 
ATOM      9  C   UNL     1       1.760   8.206  19.972  0.00  0.00    +0.000 A 
ATOM     10  N   UNL     1       1.082   9.145  20.726  0.00  0.00    +0.000 N 
ATOM     11  C   UNL     1       0.059   8.743  21.699  0.00  0.00    +0.000 C 
ATOM     12  C   UNL     1      -1.092   9.792  21.658  0.00  0.00    +0.000 C 
ATOM     13  N   UNL     1      -0.624  11.186  21.878  0.00  0.00    +0.000 NA
ATOM     14  C   UNL     1      -1.729  12.135  21.748  0.00  0.00    +0.000 C 
ATOM     15  C   UNL     1       0.451  11.509  20.910  0.00  0.00    +0.000 C 
ATOM     16  C   UNL     1       1.615  10.493  20.997  0.00  0.00    +0.000 C 
ATOM     17  N   UNL     1       1.844   6.923  20.448  0.00  0.00    +0.000 NA
ATOM     18  C   UNL     1       2.461   5.951  19.715  0.00  0.00    +0.000 A 
ENDROOT
BRANCH   1  20
ATOM     19  C   UNL     1       1.492   2.886  21.570  0.00  0.00    +0.000 C 
ATOM     20  C   UNL     1       2.024   4.310  21.504  0.00  0.00    +0.000 C 
ENDBRANCH   1  20
BRANCH   3  21
ATOM     21  C   UNL     1       4.392   2.747  17.440  0.00  0.00    +0.000 C 
ATOM     22  O   UNL     1       4.024   1.582  17.520  0.00  0.00    +0.000 OA
BRANCH  21  23
ATOM     23  O   UNL     1       5.427   3.122  16.658  0.00  0.00    +0.000 OA
ATOM     24  H   UNL     1       5.170   3.658  15.867  0.00  0.00    +0.000 HD
ENDBRANCH  21  23
ENDBRANCH   3  21
BRANCH   8  25
ATOM     25  C   UNL     1       2.115   9.798  18.084  0.00  0.00    +0.000 C 
ATOM     26  N   UNL     1       2.008  10.824  17.547  0.00  0.00    +0.000 NA
ENDBRANCH   8  25
TORSDOF 4
ENDMDL
MODEL 6
REMARK VINA RESULT:      -5.8      9.480     10.795
REMARK  Name = 
REMARK  6 active torsions:
REMARK  status: ('A' for Active; 'I' for Inactive)
REMARK    1  A    between atoms: C_1  and  C_2
REMARK    2  A    between atoms: C_2  and  N_3
REMARK    3  A    between atoms: C_5  and  C_6
REMARK    4  A    between atoms: C_6  and  O_8
REMARK    5  A    between atoms: C_13  and  C_14
REMARK    6  A    between atoms: N_20  and  C_21
REMARK                            x       y       z     vdW  Elec       q    Type
REMARK                         _______ _______ _______ _____ _____    ______ ____
ROOT
ATOM      1  N   UNL     1       9.954  11.965  19.533  0.00  0.00    +0.000 N 
ATOM      2  C   UNL     1      10.631  12.466  18.426  0.00  0.00    +0.000 A 
ATOM      3  C   UNL     1      11.089  13.719  18.279  0.00  0.00    +0.000 A 
ATOM      4  C   UNL     1      10.851  14.630  19.409  0.00  0.00    +0.000 A 
ATOM      5  O   UNL     1      11.227  15.801  19.350  0.00  0.00    +0.000 OA
ATOM      6  C   UNL     1      10.163  14.116  20.602  0.00  0.00    +0.000 A 
ATOM      7  C   UNL     1       9.942  14.977  21.665  0.00  0.00    +0.000 A 
ATOM      8  C   UNL     1       9.269  14.511  22.788  0.00  0.00    +0.000 A 
ATOM      9  C   UNL     1       8.844  13.174  22.838  0.00  0.00    +0.000 A 
ATOM     10  N   UNL     1       8.130  12.688  23.917  0.00  0.00    +0.000 N 
ATOM     11  C   UNL     1       7.195  11.566  23.767  0.00  0.00    +0.000 C 
ATOM     12  C   UNL     1       5.960  11.836  24.678  0.00  0.00    +0.000 C 
ATOM     13  N   UNL     1       6.321  12.079  26.099  0.00  0.00    +0.000 NA
ATOM     14  C   UNL     1       5.136  12.405  26.891  0.00  0.00    +0.000 C 
ATOM     15  C   UNL     1       7.314  13.176  26.180  0.00  0.00    +0.000 C 
ATOM     16  C   UNL     1       8.562  12.875  25.315  0.00  0.00    +0.000 C 
ATOM     17  N   UNL     1       9.059  12.343  21.770  0.00  0.00    +0.000 NA
ATOM     18  C   UNL     1       9.715  12.794  20.662  0.00  0.00    +0.000 A 
ENDROOT
BRANCH   1  20
ATOM     19  C   UNL     1       8.849  10.123  18.322  0.00  0.00    +0.000 C 
ATOM     20  C   UNL     1       9.508  10.568  19.619  0.00  0.00    +0.000 C 
ENDBRANCH   1  20
BRANCH   3  21
ATOM     21  C   UNL     1      11.786  14.139  17.047  0.00  0.00    +0.000 C 
ATOM     22  O   UNL     1      12.210  15.275  16.872  0.00  0.00    +0.000 OA
BRANCH  21  23
ATOM     23  O   UNL     1      11.927  13.170  16.118  0.00  0.00    +0.000 OA
ATOM     24  H   UNL     1      12.321  12.329  16.460  0.00  0.00    +0.000 HD
ENDBRANCH  21  23
ENDBRANCH   3  21
BRANCH   8  25
ATOM     25  C   UNL     1       8.968  15.473  23.798  0.00  0.00    +0.000 C 
ATOM     26  N   UNL     1       8.747  16.285  24.601  0.00  0.00    +0.000 NA
ENDBRANCH   8  25
TORSDOF 4
ENDMDL
MODEL 7
REMARK VINA RESULT:      -5.7      5.295      7.852
REMARK  Name = 
REMARK  6 active torsions:
REMARK  status: ('A' for Active; 'I' for Inactive)
REMARK    1  A    between atoms: C_1  and  C_2
REMARK    2  A    between atoms: C_2  and  N_3
REMARK    3  A    between atoms: C_5  and  C_6
REMARK    4  A    between atoms: C_6  and  O_8
REMARK    5  A    between atoms: C_13  and  C_14
REMARK    6  A    between atoms: N_20  and  C_21
REMARK                            x       y       z     vdW  Elec       q    Type
REMARK                         _______ _______ _______ _____ _____    ______ ____
ROOT
ATOM      1  N   UNL     1      -2.257  11.073  18.074  0.00  0.00    +0.000 N 
ATOM      2  C   UNL     1      -1.067  10.453  17.706  0.00  0.00    +0.000 A 
ATOM      3  C   UNL     1       0.054  10.391  18.443  0.00  0.00    +0.000 A 
ATOM      4  C   UNL     1      -0.005  11.037  19.763  0.00  0.00    +0.000 A 
ATOM      5  O   UNL     1       0.984  11.038  20.496  0.00  0.00    +0.000 OA
ATOM      6  C   UNL     1      -1.260  11.675  20.187  0.00  0.00    +0.000 A 
ATOM      7  C   UNL     1      -1.311  12.281  21.431  0.00  0.00    +0.000 A 
ATOM      8  C   UNL     1      -2.484  12.910  21.832  0.00  0.00    +0.000 A 
ATOM      9  C   UNL     1      -3.602  12.903  20.983  0.00  0.00    +0.000 A 
ATOM     10  N   UNL     1      -4.768  13.559  21.327  0.00  0.00    +0.000 N 
ATOM     11  C   UNL     1      -5.681  14.075  20.300  0.00  0.00    +0.000 C 
ATOM     12  C   UNL     1      -6.256  15.435  20.798  0.00  0.00    +0.000 C 
ATOM     13  N   UNL     1      -6.904  15.346  22.132  0.00  0.00    +0.000 NA
ATOM     14  C   UNL     1      -7.352  16.662  22.585  0.00  0.00    +0.000 C 
ATOM     15  C   UNL     1      -5.956  14.759  23.109  0.00  0.00    +0.000 C 
ATOM     16  C   UNL     1      -5.433  13.383  22.631  0.00  0.00    +0.000 C 
ATOM     17  N   UNL     1      -3.525  12.311  19.749  0.00  0.00    +0.000 NA
ATOM     18  C   UNL     1      -2.376  11.694  19.346  0.00  0.00    +0.000 A 
ENDROOT
BRANCH   1  20
ATOM     19  C   UNL     1      -3.064  10.864  15.754  0.00  0.00    +0.000 C 
ATOM     20  C   UNL     1      -3.446  11.072  17.213  0.00  0.00    +0.000 C 
ENDBRANCH   1  20
BRANCH   3  21
ATOM     21  C   UNL     1       1.264   9.711  17.938  0.00  0.00    +0.000 C 
ATOM     22  O   UNL     1       1.373   8.492  17.882  0.00  0.00    +0.000 OA
BRANCH  21  23
ATOM     23  O   UNL     1       2.253  10.539  17.538  0.00  0.00    +0.000 OA
ATOM     24  H   UNL     1       2.048  11.502  17.642  0.00  0.00    +0.000 HD
ENDBRANCH  21  23
ENDBRANCH   3  21
BRANCH   8  25
ATOM     25  C   UNL     1      -2.438  13.617  23.071  0.00  0.00    +0.000 C 
ATOM     26  N   UNL     1      -2.362  14.178  24.087  0.00  0.00    +0.000 NA
ENDBRANCH   8  25
TORSDOF 4
ENDMDL
MODEL 8
REMARK VINA RESULT:      -5.7      7.068      9.130
REMARK  Name = 
REMARK  6 active torsions:
REMARK  status: ('A' for Active; 'I' for Inactive)
REMARK    1  A    between atoms: C_1  and  C_2
REMARK    2  A    between atoms: C_2  and  N_3
REMARK    3  A    between atoms: C_5  and  C_6
REMARK    4  A    between atoms: C_6  and  O_8
REMARK    5  A    between atoms: C_13  and  C_14
REMARK    6  A    between atoms: N_20  and  C_21
REMARK                            x       y       z     vdW  Elec       q    Type
REMARK                         _______ _______ _______ _____ _____    ______ ____
ROOT
ATOM      1  N   UNL     1      -5.176  11.870  17.600  0.00  0.00    +0.000 N 
ATOM      2  C   UNL     1      -4.912  11.244  16.386  0.00  0.00    +0.000 A 
ATOM      3  C   UNL     1      -3.741  10.706  16.012  0.00  0.00    +0.000 A 
ATOM      4  C   UNL     1      -2.649  10.786  16.995  0.00  0.00    +0.000 A 
ATOM      5  O   UNL     1      -1.539  10.329  16.726  0.00  0.00    +0.000 OA
ATOM      6  C   UNL     1      -2.911  11.418  18.296  0.00  0.00    +0.000 A 
ATOM      7  C   UNL     1      -1.881  11.491  19.219  0.00  0.00    +0.000 A 
ATOM      8  C   UNL     1      -2.109  12.110  20.443  0.00  0.00    +0.000 A 
ATOM      9  C   UNL     1      -3.380  12.630  20.733  0.00  0.00    +0.000 A 
ATOM     10  N   UNL     1      -3.630  13.294  21.919  0.00  0.00    +0.000 N 
ATOM     11  C   UNL     1      -4.676  14.319  22.010  0.00  0.00    +0.000 C 
ATOM     12  C   UNL     1      -4.164  15.457  22.944  0.00  0.00    +0.000 C 
ATOM     13  N   UNL     1      -3.737  14.971  24.281  0.00  0.00    +0.000 NA
ATOM     14  C   UNL     1      -3.191  16.063  25.085  0.00  0.00    +0.000 C 
ATOM     15  C   UNL     1      -2.731  13.894  24.123  0.00  0.00    +0.000 C 
ATOM     16  C   UNL     1      -3.269  12.743  23.239  0.00  0.00    +0.000 C 
ATOM     17  N   UNL     1      -4.381  12.561  19.800  0.00  0.00    +0.000 NA
ATOM     18  C   UNL     1      -4.165  11.959  18.594  0.00  0.00    +0.000 A 
ENDROOT
BRANCH   1  20
ATOM     19  C   UNL     1      -6.769  13.704  17.178  0.00  0.00    +0.000 C 
ATOM     20  C   UNL     1      -6.498  12.413  17.936  0.00  0.00    +0.000 C 
ENDBRANCH   1  20
BRANCH   3  21
ATOM     21  C   UNL     1      -3.577  10.075  14.686  0.00  0.00    +0.000 C 
ATOM     22  O   UNL     1      -4.517   9.646  14.029  0.00  0.00    +0.000 OA
BRANCH  21  23
ATOM     23  O   UNL     1      -2.302  10.006  14.246  0.00  0.00    +0.000 OA
ATOM     24  H   UNL     1      -2.198   9.582  13.358  0.00  0.00    +0.000 HD
ENDBRANCH  21  23
ENDBRANCH   3  21
BRANCH   8  25
ATOM     25  C   UNL     1      -0.980  12.258  21.304  0.00  0.00    +0.000 C 
ATOM     26  N   UNL     1      -0.038  12.356  21.979  0.00  0.00    +0.000 NA
ENDBRANCH   8  25
TORSDOF 4
ENDMDL
MODEL 9
REMARK VINA RESULT:      -5.7      7.594      9.538
REMARK  Name = 
REMARK  6 active torsions:
REMARK  status: ('A' for Active; 'I' for Inactive)
REMARK    1  A    between atoms: C_1  and  C_2
REMARK    2  A    between atoms: C_2  and  N_3
REMARK    3  A    between atoms: C_5  and  C_6
REMARK    4  A    between atoms: C_6  and  O_8
REMARK    5  A    between atoms: C_13  and  C_14
REMARK    6  A    between atoms: N_20  and  C_21
REMARK                            x       y       z     vdW  Elec       q    Type
REMARK                         _______ _______ _______ _____ _____    ______ ____
ROOT
ATOM      1  N   UNL     1      -5.300  11.998  17.805  0.00  0.00    +0.000 N 
ATOM      2  C   UNL     1      -4.782  11.318  16.708  0.00  0.00    +0.000 A 
ATOM      3  C   UNL     1      -3.506  10.936  16.544  0.00  0.00    +0.000 A 
ATOM      4  C   UNL     1      -2.586  11.268  17.643  0.00  0.00    +0.000 A 
ATOM      5  O   UNL     1      -1.395  10.965  17.567  0.00  0.00    +0.000 OA
ATOM      6  C   UNL     1      -3.115  11.962  18.826  0.00  0.00    +0.000 A 
ATOM      7  C   UNL     1      -2.246  12.272  19.859  0.00  0.00    +0.000 A 
ATOM      8  C   UNL     1      -2.729  12.952  20.972  0.00  0.00    +0.000 A 
ATOM      9  C   UNL     1      -4.089  13.293  21.042  0.00  0.00    +0.000 A 
ATOM     10  N   UNL     1      -4.594  14.010  22.109  0.00  0.00    +0.000 N 
ATOM     11  C   UNL     1      -5.777  14.867  21.957  0.00  0.00    +0.000 C 
ATOM     12  C   UNL     1      -5.566  16.146  22.822  0.00  0.00    +0.000 C 
ATOM     13  N   UNL     1      -5.268  15.849  24.247  0.00  0.00    +0.000 NA
ATOM     14  C   UNL     1      -5.000  17.078  24.992  0.00  0.00    +0.000 C 
ATOM     15  C   UNL     1      -4.108  14.930  24.332  0.00  0.00    +0.000 C 
ATOM     16  C   UNL     1      -4.349  13.638  23.515  0.00  0.00    +0.000 C 
ATOM     17  N   UNL     1      -4.929  12.990  20.002  0.00  0.00    +0.000 NA
ATOM     18  C   UNL     1      -4.462  12.327  18.904  0.00  0.00    +0.000 A 
ENDROOT
BRANCH   1  20
ATOM     19  C   UNL     1      -7.041  13.577  17.060  0.00  0.00    +0.000 C 
ATOM     20  C   UNL     1      -6.720  12.358  17.912  0.00  0.00    +0.000 C 
ENDBRANCH   1  20
BRANCH   3  21
ATOM     21  C   UNL     1      -3.070  10.225  15.325  0.00  0.00    +0.000 C 
ATOM     22  O   UNL     1      -3.398  10.570  14.196  0.00  0.00    +0.000 OA
BRANCH  21  23
ATOM     23  O   UNL     1      -2.272   9.159  15.546  0.00  0.00    +0.000 OA
ATOM     24  H   UNL     1      -2.692   8.285  15.349  0.00  0.00    +0.000 HD
ENDBRANCH  21  23
ENDBRANCH   3  21
BRANCH   8  25
ATOM     25  C   UNL     1      -1.765  13.347  21.948  0.00  0.00    +0.000 C 
ATOM     26  N   UNL     1      -0.970  13.628  22.749  0.00  0.00    +0.000 NA
ENDBRANCH   8  25
TORSDOF 4
ENDMDL
