MODEL 1
REMARK VINA RESULT:      -8.8      0.000      0.000
REMARK  Name = 
REMARK  8 active torsions:
REMARK  status: ('A' for Active; 'I' for Inactive)
REMARK    1  A    between atoms: N_1  and  C_2
REMARK    2  A    between atoms: C_2  and  C_3
REMARK    3  A    between atoms: C_2  and  C_20
REMARK    4  A    between atoms: C_3  and  C_4
REMARK    5  A    between atoms: C_4  and  C_5
REMARK    6  A    between atoms: C_7  and  C_8
REMARK    7  A    between atoms: C_20  and  C_21
REMARK    8  A    between atoms: C_24  and  C_25
REMARK                            x       y       z     vdW  Elec       q    Type
REMARK                         _______ _______ _______ _____ _____    ______ ____
ROOT
ATOM      1  C   UNL     1       5.311   6.706  17.292  0.00  0.00    +0.000 C 
ENDROOT
BRANCH   1   2
ATOM      2  C   UNL     1       6.065   5.690  16.414  0.00  0.00    +0.000 C 
BRANCH   2   3
ATOM      3  N   UNL     1       7.484   6.065  16.334  0.00  0.00    +0.000 NA
ATOM      4  H   UNL     1       7.977   5.720  17.157  0.00  0.00    +0.000 HD
ATOM      5  H   UNL     1       7.589   7.079  16.353  0.00  0.00    +0.000 HD
ENDBRANCH   2   3
BRANCH   2   6
ATOM      6  C   UNL     1       5.905   4.223  16.886  0.00  0.00    +0.000 C 
BRANCH   6   7
ATOM      7  C   UNL     1       4.636   3.988  17.676  0.00  0.00    +0.000 A 
ATOM      8  C   UNL     1       4.679   3.923  19.074  0.00  0.00    +0.000 A 
ATOM      9  C   UNL     1       3.528   3.638  19.809  0.00  0.00    +0.000 A 
ATOM     10  C   UNL     1       2.304   3.419  19.162  0.00  0.00    +0.000 A 
ATOM     11  C   UNL     1       2.255   3.510  17.764  0.00  0.00    +0.000 A 
ATOM     12  C   UNL     1       3.409   3.797  17.028  0.00  0.00    +0.000 A 
BRANCH  10  13
ATOM     13  C   UNL     1       1.059   3.079  19.943  0.00  0.00    +0.000 C 
ATOM     14  F   UNL     1       0.128   2.399  19.216  0.00  0.00    +0.000 F 
ATOM     15  F   UNL     1       1.320   2.302  21.031  0.00  0.00    +0.000 F 
ATOM     16  F   UNL     1       0.422   4.185  20.419  0.00  0.00    +0.000 F 
ENDBRANCH  10  13
ENDBRANCH   6   7
ENDBRANCH   2   6
ENDBRANCH   1   2
BRANCH   1  17
ATOM     17  C   UNL     1       3.996   7.197  16.683  0.00  0.00    +0.000 C 
BRANCH  17  18
ATOM     18  C   UNL     1       3.100   7.744  17.719  0.00  0.00    +0.000 A 
ATOM     19  C   UNL     1       2.347   8.882  17.797  0.00  0.00    +0.000 A 
ATOM     20  C   UNL     1       1.685   8.788  19.045  0.00  0.00    +0.000 A 
ATOM     21  N   UNL     1       2.066   7.678  19.698  0.00  0.00    +0.000 NA
ATOM     22  O   UNL     1       2.943   7.019  18.855  0.00  0.00    +0.000 OA
BRANCH  20  23
ATOM     23  C   UNL     1       0.711   9.724  19.589  0.00  0.00    +0.000 A 
ATOM     24  C   UNL     1       0.090  10.652  18.742  0.00  0.00    +0.000 A 
ATOM     25  C   UNL     1      -0.842  11.558  19.246  0.00  0.00    +0.000 A 
ATOM     26  C   UNL     1      -1.166  11.546  20.610  0.00  0.00    +0.000 A 
ATOM     27  C   UNL     1      -2.093  12.428  21.168  0.00  0.00    +0.000 A 
ATOM     28  N   UNL     1      -2.430  12.455  22.477  0.00  0.00    +0.000 NA
ATOM     29  C   UNL     1      -1.815  11.557  23.275  0.00  0.00    +0.000 A 
ATOM     30  C   UNL     1      -0.882  10.634  22.830  0.00  0.00    +0.000 A 
ATOM     31  C   UNL     1      -0.548  10.621  21.473  0.00  0.00    +0.000 A 
ATOM     32  C   UNL     1       0.386   9.710  20.951  0.00  0.00    +0.000 A 
ENDBRANCH  20  23
ENDBRANCH  17  18
ENDBRANCH   1  17
TORSDOF 8
ENDMDL
MODEL 2
REMARK VINA RESULT:      -8.8      4.929      7.338
REMARK  Name = 
REMARK  8 active torsions:
REMARK  status: ('A' for Active; 'I' for Inactive)
REMARK    1  A    between atoms: N_1  and  C_2
REMARK    2  A    between atoms: C_2  and  C_3
REMARK    3  A    between atoms: C_2  and  C_20
REMARK    4  A    between atoms: C_3  and  C_4
REMARK    5  A    between atoms: C_4  and  C_5
REMARK    6  A    between atoms: C_7  and  C_8
REMARK    7  A    between atoms: C_20  and  C_21
REMARK    8  A    between atoms: C_24  and  C_25
REMARK                            x       y       z     vdW  Elec       q    Type
REMARK                         _______ _______ _______ _____ _____    ______ ____
ROOT
ATOM      1  C   UNL     1       7.425   4.544  16.881  0.00  0.00    +0.000 C 
ENDROOT
BRANCH   1   2
ATOM      2  C   UNL     1       6.698   5.373  15.805  0.00  0.00    +0.000 C 
BRANCH   2   3
ATOM      3  N   UNL     1       7.484   5.365  14.563  0.00  0.00    +0.000 NA
ATOM      4  H   UNL     1       7.054   4.732  13.889  0.00  0.00    +0.000 HD
ATOM      5  H   UNL     1       8.419   4.997  14.731  0.00  0.00    +0.000 HD
ENDBRANCH   2   3
BRANCH   2   6
ATOM      6  C   UNL     1       5.243   4.911  15.544  0.00  0.00    +0.000 C 
BRANCH   6   7
ATOM      7  C   UNL     1       4.449   4.701  16.815  0.00  0.00    +0.000 A 
ATOM      8  C   UNL     1       4.212   3.405  17.290  0.00  0.00    +0.000 A 
ATOM      9  C   UNL     1       3.423   3.196  18.422  0.00  0.00    +0.000 A 
ATOM     10  C   UNL     1       2.859   4.280  19.109  0.00  0.00    +0.000 A 
ATOM     11  C   UNL     1       3.118   5.579  18.649  0.00  0.00    +0.000 A 
ATOM     12  C   UNL     1       3.909   5.787  17.515  0.00  0.00    +0.000 A 
BRANCH  10  13
ATOM     13  C   UNL     1       1.979   4.066  20.315  0.00  0.00    +0.000 C 
ATOM     14  F   UNL     1       2.155   2.853  20.911  0.00  0.00    +0.000 F 
ATOM     15  F   UNL     1       2.194   4.993  21.290  0.00  0.00    +0.000 F 
ATOM     16  F   UNL     1       0.652   4.142  20.015  0.00  0.00    +0.000 F 
ENDBRANCH  10  13
ENDBRANCH   6   7
ENDBRANCH   2   6
ENDBRANCH   1   2
BRANCH   1  17
ATOM     17  C   UNL     1       7.437   5.197  18.265  0.00  0.00    +0.000 C 
BRANCH  17  18
ATOM     18  C   UNL     1       7.762   6.633  18.173  0.00  0.00    +0.000 A 
ATOM     19  C   UNL     1       8.421   7.497  19.003  0.00  0.00    +0.000 A 
ATOM     20  C   UNL     1       8.424   8.729  18.306  0.00  0.00    +0.000 A 
ATOM     21  N   UNL     1       7.757   8.617  17.146  0.00  0.00    +0.000 NA
ATOM     22  O   UNL     1       7.356   7.296  17.061  0.00  0.00    +0.000 OA
BRANCH  20  23
ATOM     23  C   UNL     1       9.057   9.970  18.731  0.00  0.00    +0.000 A 
ATOM     24  C   UNL     1       9.221  10.235  20.098  0.00  0.00    +0.000 A 
ATOM     25  C   UNL     1       9.822  11.420  20.522  0.00  0.00    +0.000 A 
ATOM     26  C   UNL     1      10.267  12.358  19.580  0.00  0.00    +0.000 A 
ATOM     27  C   UNL     1      10.876  13.559  19.949  0.00  0.00    +0.000 A 
ATOM     28  N   UNL     1      11.315  14.492  19.075  0.00  0.00    +0.000 NA
ATOM     29  C   UNL     1      11.140  14.220  17.765  0.00  0.00    +0.000 A 
ATOM     30  C   UNL     1      10.551  13.061  17.285  0.00  0.00    +0.000 A 
ATOM     31  C   UNL     1      10.106  12.106  18.204  0.00  0.00    +0.000 A 
ATOM     32  C   UNL     1       9.503  10.906  17.790  0.00  0.00    +0.000 A 
ENDBRANCH  20  23
ENDBRANCH  17  18
ENDBRANCH   1  17
TORSDOF 8
ENDMDL
MODEL 3
REMARK VINA RESULT:      -8.6      5.239      7.713
REMARK  Name = 
REMARK  8 active torsions:
REMARK  status: ('A' for Active; 'I' for Inactive)
REMARK    1  A    between atoms: N_1  and  C_2
REMARK    2  A    between atoms: C_2  and  C_3
REMARK    3  A    between atoms: C_2  and  C_20
REMARK    4  A    between atoms: C_3  and  C_4
REMARK    5  A    between atoms: C_4  and  C_5
REMARK    6  A    between atoms: C_7  and  C_8
REMARK    7  A    between atoms: C_20  and  C_21
REMARK    8  A    between atoms: C_24  and  C_25
REMARK                            x       y       z     vdW  Elec       q    Type
REMARK                         _______ _______ _______ _____ _____    ______ ____
ROOT
ATOM      1  C   UNL     1       6.140   5.167  18.489  0.00  0.00    +0.000 C 
ENDROOT
BRANCH   1   2
ATOM      2  C   UNL     1       5.208   4.784  17.324  0.00  0.00    +0.000 C 
BRANCH   2   3
ATOM      3  N   UNL     1       5.853   3.759  16.492  0.00  0.00    +0.000 NA
ATOM      4  H   UNL     1       6.694   3.419  16.958  0.00  0.00    +0.000 HD
ATOM      5  H   UNL     1       6.169   4.159  15.609  0.00  0.00    +0.000 HD
ENDBRANCH   2   3
BRANCH   2   6
ATOM      6  C   UNL     1       3.801   4.324  17.781  0.00  0.00    +0.000 C 
BRANCH   6   7
ATOM      7  C   UNL     1       3.063   5.374  18.583  0.00  0.00    +0.000 A 
ATOM      8  C   UNL     1       2.969   6.686  18.105  0.00  0.00    +0.000 A 
ATOM      9  C   UNL     1       2.350   7.678  18.868  0.00  0.00    +0.000 A 
ATOM     10  C   UNL     1       1.806   7.378  20.123  0.00  0.00    +0.000 A 
ATOM     11  C   UNL     1       1.877   6.057  20.590  0.00  0.00    +0.000 A 
ATOM     12  C   UNL     1       2.495   5.064  19.825  0.00  0.00    +0.000 A 
BRANCH  10  13
ATOM     13  C   UNL     1       1.163   8.447  20.971  0.00  0.00    +0.000 C 
ATOM     14  F   UNL     1      -0.101   8.137  21.373  0.00  0.00    +0.000 F 
ATOM     15  F   UNL     1       1.864   8.701  22.112  0.00  0.00    +0.000 F 
ATOM     16  F   UNL     1       1.064   9.640  20.321  0.00  0.00    +0.000 F 
ENDBRANCH  10  13
ENDBRANCH   6   7
ENDBRANCH   2   6
ENDBRANCH   1   2
BRANCH   1  17
ATOM     17  C   UNL     1       7.574   5.483  18.060  0.00  0.00    +0.000 C 
BRANCH  17  18
ATOM     18  C   UNL     1       7.826   6.936  18.073  0.00  0.00    +0.000 A 
ATOM     19  C   UNL     1       8.564   7.749  18.888  0.00  0.00    +0.000 A 
ATOM     20  C   UNL     1       8.419   9.042  18.330  0.00  0.00    +0.000 A 
ATOM     21  N   UNL     1       7.596   9.008  17.269  0.00  0.00    +0.000 NA
ATOM     22  O   UNL     1       7.238   7.681  17.103  0.00  0.00    +0.000 OA
BRANCH  20  23
ATOM     23  C   UNL     1       9.058  10.267  18.789  0.00  0.00    +0.000 A 
ATOM     24  C   UNL     1       9.382  10.417  20.144  0.00  0.00    +0.000 A 
ATOM     25  C   UNL     1       9.991  11.585  20.601  0.00  0.00    +0.000 A 
ATOM     26  C   UNL     1      10.282  12.623  19.704  0.00  0.00    +0.000 A 
ATOM     27  C   UNL     1      10.891  13.812  20.107  0.00  0.00    +0.000 A 
ATOM     28  N   UNL     1      11.185  14.839  19.278  0.00  0.00    +0.000 NA
ATOM     29  C   UNL     1      10.856  14.676  17.979  0.00  0.00    +0.000 A 
ATOM     30  C   UNL     1      10.252  13.539  17.468  0.00  0.00    +0.000 A 
ATOM     31  C   UNL     1       9.958  12.487  18.341  0.00  0.00    +0.000 A 
ATOM     32  C   UNL     1       9.350  11.303  17.892  0.00  0.00    +0.000 A 
ENDBRANCH  20  23
ENDBRANCH  17  18
ENDBRANCH   1  17
TORSDOF 8
ENDMDL
MODEL 4
REMARK VINA RESULT:      -8.6      5.330      7.553
REMARK  Name = 
REMARK  8 active torsions:
REMARK  status: ('A' for Active; 'I' for Inactive)
REMARK    1  A    between atoms: N_1  and  C_2
REMARK    2  A    between atoms: C_2  and  C_3
REMARK    3  A    between atoms: C_2  and  C_20
REMARK    4  A    between atoms: C_3  and  C_4
REMARK    5  A    between atoms: C_4  and  C_5
REMARK    6  A    between atoms: C_7  and  C_8
REMARK    7  A    between atoms: C_20  and  C_21
REMARK    8  A    between atoms: C_24  and  C_25
REMARK                            x       y       z     vdW  Elec       q    Type
REMARK                         _______ _______ _______ _____ _____    ______ ____
ROOT
ATOM      1  C   UNL     1       6.219   5.938  17.402  0.00  0.00    +0.000 C 
ENDROOT
BRANCH   1   2
ATOM      2  C   UNL     1       6.349   4.988  16.197  0.00  0.00    +0.000 C 
BRANCH   2   3
ATOM      3  N   UNL     1       7.727   4.485  16.112  0.00  0.00    +0.000 NA
ATOM      4  H   UNL     1       7.746   3.494  16.351  0.00  0.00    +0.000 HD
ATOM      5  H   UNL     1       8.321   4.947  16.799  0.00  0.00    +0.000 HD
ENDBRANCH   2   3
BRANCH   2   6
ATOM      6  C   UNL     1       5.332   3.819  16.217  0.00  0.00    +0.000 C 
BRANCH   6   7
ATOM      7  C   UNL     1       4.363   3.893  17.376  0.00  0.00    +0.000 A 
ATOM      8  C   UNL     1       3.063   4.376  17.177  0.00  0.00    +0.000 A 
ATOM      9  C   UNL     1       2.183   4.513  18.251  0.00  0.00    +0.000 A 
ATOM     10  C   UNL     1       2.581   4.165  19.549  0.00  0.00    +0.000 A 
ATOM     11  C   UNL     1       3.873   3.656  19.745  0.00  0.00    +0.000 A 
ATOM     12  C   UNL     1       4.754   3.518  18.668  0.00  0.00    +0.000 A 
BRANCH  10  13
ATOM     13  C   UNL     1       1.650   4.339  20.723  0.00  0.00    +0.000 C 
ATOM     14  F   UNL     1       0.503   3.610  20.622  0.00  0.00    +0.000 F 
ATOM     15  F   UNL     1       2.222   3.969  21.903  0.00  0.00    +0.000 F 
ATOM     16  F   UNL     1       1.254   5.632  20.890  0.00  0.00    +0.000 F 
ENDBRANCH  10  13
ENDBRANCH   6   7
ENDBRANCH   2   6
ENDBRANCH   1   2
BRANCH   1  17
ATOM     17  C   UNL     1       7.532   6.180  18.148  0.00  0.00    +0.000 C 
BRANCH  17  18
ATOM     18  C   UNL     1       7.900   7.608  18.130  0.00  0.00    +0.000 A 
ATOM     19  C   UNL     1       8.710   8.374  18.921  0.00  0.00    +0.000 A 
ATOM     20  C   UNL     1       8.663   9.663  18.338  0.00  0.00    +0.000 A 
ATOM     21  N   UNL     1       7.829   9.675  17.286  0.00  0.00    +0.000 NA
ATOM     22  O   UNL     1       7.364   8.379  17.150  0.00  0.00    +0.000 OA
BRANCH  20  23
ATOM     23  C   UNL     1       9.404  10.842  18.766  0.00  0.00    +0.000 A 
ATOM     24  C   UNL     1      10.020  10.857  20.025  0.00  0.00    +0.000 A 
ATOM     25  C   UNL     1      10.730  11.978  20.452  0.00  0.00    +0.000 A 
ATOM     26  C   UNL     1      10.832  13.104  19.622  0.00  0.00    +0.000 A 
ATOM     27  C   UNL     1      11.530  14.252  19.998  0.00  0.00    +0.000 A 
ATOM     28  N   UNL     1      11.649  15.360  19.232  0.00  0.00    +0.000 NA
ATOM     29  C   UNL     1      11.041  15.326  18.027  0.00  0.00    +0.000 A 
ATOM     30  C   UNL     1      10.324  14.241  17.550  0.00  0.00    +0.000 A 
ATOM     31  C   UNL     1      10.214  13.104  18.356  0.00  0.00    +0.000 A 
ATOM     32  C   UNL     1       9.506  11.965  17.936  0.00  0.00    +0.000 A 
ENDBRANCH  20  23
ENDBRANCH  17  18
ENDBRANCH   1  17
TORSDOF 8
ENDMDL
MODEL 5
REMARK VINA RESULT:      -8.5      1.215      1.848
REMARK  Name = 
REMARK  8 active torsions:
REMARK  status: ('A' for Active; 'I' for Inactive)
REMARK    1  A    between atoms: N_1  and  C_2
REMARK    2  A    between atoms: C_2  and  C_3
REMARK    3  A    between atoms: C_2  and  C_20
REMARK    4  A    between atoms: C_3  and  C_4
REMARK    5  A    between atoms: C_4  and  C_5
REMARK    6  A    between atoms: C_7  and  C_8
REMARK    7  A    between atoms: C_20  and  C_21
REMARK    8  A    between atoms: C_24  and  C_25
REMARK                            x       y       z     vdW  Elec       q    Type
REMARK                         _______ _______ _______ _____ _____    ______ ____
ROOT
ATOM      1  C   UNL     1       5.838   5.929  17.503  0.00  0.00    +0.000 C 
ENDROOT
BRANCH   1   2
ATOM      2  C   UNL     1       6.553   4.709  16.893  0.00  0.00    +0.000 C 
BRANCH   2   3
ATOM      3  N   UNL     1       7.737   4.378  17.699  0.00  0.00    +0.000 NA
ATOM      4  H   UNL     1       7.520   4.490  18.689  0.00  0.00    +0.000 HD
ATOM      5  H   UNL     1       8.497   5.029  17.506  0.00  0.00    +0.000 HD
ENDBRANCH   2   3
BRANCH   2   6
ATOM      6  C   UNL     1       5.635   3.474  16.721  0.00  0.00    +0.000 C 
BRANCH   6   7
ATOM      7  C   UNL     1       4.429   3.497  17.634  0.00  0.00    +0.000 A 
ATOM      8  C   UNL     1       4.592   3.371  19.019  0.00  0.00    +0.000 A 
ATOM      9  C   UNL     1       3.483   3.322  19.864  0.00  0.00    +0.000 A 
ATOM     10  C   UNL     1       2.185   3.406  19.344  0.00  0.00    +0.000 A 
ATOM     11  C   UNL     1       2.022   3.559  17.960  0.00  0.00    +0.000 A 
ATOM     12  C   UNL     1       3.133   3.609  17.114  0.00  0.00    +0.000 A 
BRANCH  10  13
ATOM     13  C   UNL     1       0.977   3.322  20.244  0.00  0.00    +0.000 C 
ATOM     14  F   UNL     1      -0.080   2.674  19.679  0.00  0.00    +0.000 F 
ATOM     15  F   UNL     1       1.237   2.664  21.408  0.00  0.00    +0.000 F 
ATOM     16  F   UNL     1       0.509   4.550  20.607  0.00  0.00    +0.000 F 
ENDBRANCH  10  13
ENDBRANCH   6   7
ENDBRANCH   2   6
ENDBRANCH   1   2
BRANCH   1  17
ATOM     17  C   UNL     1       4.896   6.646  16.533  0.00  0.00    +0.000 C 
BRANCH  17  18
ATOM     18  C   UNL     1       3.823   7.352  17.258  0.00  0.00    +0.000 A 
ATOM     19  C   UNL     1       3.380   7.304  18.550  0.00  0.00    +0.000 A 
ATOM     20  C   UNL     1       2.342   8.266  18.608  0.00  0.00    +0.000 A 
ATOM     21  N   UNL     1       2.144   8.819  17.400  0.00  0.00    +0.000 NA
ATOM     22  O   UNL     1       3.086   8.253  16.560  0.00  0.00    +0.000 OA
BRANCH  20  23
ATOM     23  C   UNL     1       1.575   8.652  19.784  0.00  0.00    +0.000 A 
ATOM     24  C   UNL     1       1.395   7.735  20.829  0.00  0.00    +0.000 A 
ATOM     25  C   UNL     1       0.661   8.087  21.961  0.00  0.00    +0.000 A 
ATOM     26  C   UNL     1       0.093   9.364  22.060  0.00  0.00    +0.000 A 
ATOM     27  C   UNL     1      -0.651   9.770  23.170  0.00  0.00    +0.000 A 
ATOM     28  N   UNL     1      -1.219  10.989  23.305  0.00  0.00    +0.000 NA
ATOM     29  C   UNL     1      -1.040  11.853  22.283  0.00  0.00    +0.000 A 
ATOM     30  C   UNL     1      -0.320  11.560  21.136  0.00  0.00    +0.000 A 
ATOM     31  C   UNL     1       0.262  10.294  21.016  0.00  0.00    +0.000 A 
ATOM     32  C   UNL     1       1.009   9.929  19.884  0.00  0.00    +0.000 A 
ENDBRANCH  20  23
ENDBRANCH  17  18
ENDBRANCH   1  17
TORSDOF 8
ENDMDL
MODEL 6
REMARK VINA RESULT:      -8.3      0.765      1.657
REMARK  Name = 
REMARK  8 active torsions:
REMARK  status: ('A' for Active; 'I' for Inactive)
REMARK    1  A    between atoms: N_1  and  C_2
REMARK    2  A    between atoms: C_2  and  C_3
REMARK    3  A    between atoms: C_2  and  C_20
REMARK    4  A    between atoms: C_3  and  C_4
REMARK    5  A    between atoms: C_4  and  C_5
REMARK    6  A    between atoms: C_7  and  C_8
REMARK    7  A    between atoms: C_20  and  C_21
REMARK    8  A    between atoms: C_24  and  C_25
REMARK                            x       y       z     vdW  Elec       q    Type
REMARK                         _______ _______ _______ _____ _____    ______ ____
ROOT
ATOM      1  C   UNL     1       5.266   6.576  17.414  0.00  0.00    +0.000 C 
ENDROOT
BRANCH   1   2
ATOM      2  C   UNL     1       6.069   5.648  16.484  0.00  0.00    +0.000 C 
BRANCH   2   3
ATOM      3  N   UNL     1       7.508   5.889  16.669  0.00  0.00    +0.000 NA
ATOM      4  H   UNL     1       7.921   5.114  17.188  0.00  0.00    +0.000 HD
ATOM      5  H   UNL     1       7.662   6.718  17.241  0.00  0.00    +0.000 HD
ENDBRANCH   2   3
BRANCH   2   6
ATOM      6  C   UNL     1       5.731   4.147  16.662  0.00  0.00    +0.000 C 
BRANCH   6   7
ATOM      7  C   UNL     1       4.522   3.910  17.541  0.00  0.00    +0.000 A 
ATOM      8  C   UNL     1       4.663   3.865  18.934  0.00  0.00    +0.000 A 
ATOM      9  C   UNL     1       3.568   3.579  19.750  0.00  0.00    +0.000 A 
ATOM     10  C   UNL     1       2.305   3.338  19.193  0.00  0.00    +0.000 A 
ATOM     11  C   UNL     1       2.158   3.410  17.800  0.00  0.00    +0.000 A 
ATOM     12  C   UNL     1       3.255   3.698  16.983  0.00  0.00    +0.000 A 
BRANCH  10  13
ATOM     13  C   UNL     1       1.121   2.997  20.062  0.00  0.00    +0.000 C 
ATOM     14  F   UNL     1       1.432   2.187  21.114  0.00  0.00    +0.000 F 
ATOM     15  F   UNL     1       0.535   4.101  20.605  0.00  0.00    +0.000 F 
ATOM     16  F   UNL     1       0.137   2.352  19.376  0.00  0.00    +0.000 F 
ENDBRANCH  10  13
ENDBRANCH   6   7
ENDBRANCH   2   6
ENDBRANCH   1   2
BRANCH   1  17
ATOM     17  C   UNL     1       4.027   7.191  16.759  0.00  0.00    +0.000 C 
BRANCH  17  18
ATOM     18  C   UNL     1       3.108   7.743  17.772  0.00  0.00    +0.000 A 
ATOM     19  C   UNL     1       2.351   8.880  17.826  0.00  0.00    +0.000 A 
ATOM     20  C   UNL     1       1.661   8.792  19.059  0.00  0.00    +0.000 A 
ATOM     21  N   UNL     1       2.028   7.686  19.726  0.00  0.00    +0.000 NA
ATOM     22  O   UNL     1       2.924   7.023  18.907  0.00  0.00    +0.000 OA
BRANCH  20  23
ATOM     23  C   UNL     1       0.673   9.729  19.575  0.00  0.00    +0.000 A 
ATOM     24  C   UNL     1       0.842  10.286  20.850  0.00  0.00    +0.000 A 
ATOM     25  C   UNL     1      -0.096  11.182  21.361  0.00  0.00    +0.000 A 
ATOM     26  C   UNL     1      -1.220  11.533  20.600  0.00  0.00    +0.000 A 
ATOM     27  C   UNL     1      -2.189  12.425  21.061  0.00  0.00    +0.000 A 
ATOM     28  N   UNL     1      -3.289  12.787  20.363  0.00  0.00    +0.000 NA
ATOM     29  C   UNL     1      -3.435  12.233  19.141  0.00  0.00    +0.000 A 
ATOM     30  C   UNL     1      -2.536  11.338  18.582  0.00  0.00    +0.000 A 
ATOM     31  C   UNL     1      -1.404  10.978  19.319  0.00  0.00    +0.000 A 
ATOM     32  C   UNL     1      -0.448  10.081  18.813  0.00  0.00    +0.000 A 
ENDBRANCH  20  23
ENDBRANCH  17  18
ENDBRANCH   1  17
TORSDOF 8
ENDMDL
MODEL 7
REMARK VINA RESULT:      -8.3      6.161      7.643
REMARK  Name = 
REMARK  8 active torsions:
REMARK  status: ('A' for Active; 'I' for Inactive)
REMARK    1  A    between atoms: N_1  and  C_2
REMARK    2  A    between atoms: C_2  and  C_3
REMARK    3  A    between atoms: C_2  and  C_20
REMARK    4  A    between atoms: C_3  and  C_4
REMARK    5  A    between atoms: C_4  and  C_5
REMARK    6  A    between atoms: C_7  and  C_8
REMARK    7  A    between atoms: C_20  and  C_21
REMARK    8  A    between atoms: C_24  and  C_25
REMARK                            x       y       z     vdW  Elec       q    Type
REMARK                         _______ _______ _______ _____ _____    ______ ____
ROOT
ATOM      1  C   UNL     1       7.694   6.648  17.977  0.00  0.00    +0.000 C 
ENDROOT
BRANCH   1   2
ATOM      2  C   UNL     1       7.087   5.446  17.230  0.00  0.00    +0.000 C 
BRANCH   2   3
ATOM      3  N   UNL     1       7.064   4.274  18.117  0.00  0.00    +0.000 NA
ATOM      4  H   UNL     1       6.144   3.835  18.081  0.00  0.00    +0.000 HD
ATOM      5  H   UNL     1       7.199   4.555  19.087  0.00  0.00    +0.000 HD
ENDBRANCH   2   3
BRANCH   2   6
ATOM      6  C   UNL     1       5.681   5.726  16.643  0.00  0.00    +0.000 C 
BRANCH   6   7
ATOM      7  C   UNL     1       4.570   5.034  17.403  0.00  0.00    +0.000 A 
ATOM      8  C   UNL     1       4.053   3.818  16.941  0.00  0.00    +0.000 A 
ATOM      9  C   UNL     1       2.982   3.206  17.596  0.00  0.00    +0.000 A 
ATOM     10  C   UNL     1       2.411   3.793  18.732  0.00  0.00    +0.000 A 
ATOM     11  C   UNL     1       2.946   4.998  19.211  0.00  0.00    +0.000 A 
ATOM     12  C   UNL     1       4.019   5.609  18.555  0.00  0.00    +0.000 A 
BRANCH  10  13
ATOM     13  C   UNL     1       1.233   3.158  19.429  0.00  0.00    +0.000 C 
ATOM     14  F   UNL     1       0.466   4.047  20.121  0.00  0.00    +0.000 F 
ATOM     15  F   UNL     1       0.388   2.533  18.563  0.00  0.00    +0.000 F 
ATOM     16  F   UNL     1       1.610   2.211  20.333  0.00  0.00    +0.000 F 
ENDBRANCH  10  13
ENDBRANCH   6   7
ENDBRANCH   2   6
ENDBRANCH   1   2
BRANCH   1  17
ATOM     17  C   UNL     1       7.319   8.005  17.378  0.00  0.00    +0.000 C 
BRANCH  17  18
ATOM     18  C   UNL     1       8.134   9.088  17.961  0.00  0.00    +0.000 A 
ATOM     19  C   UNL     1       8.353  10.388  17.601  0.00  0.00    +0.000 A 
ATOM     20  C   UNL     1       9.208  10.897  18.608  0.00  0.00    +0.000 A 
ATOM     21  N   UNL     1       9.523   9.935  19.491  0.00  0.00    +0.000 NA
ATOM     22  O   UNL     1       8.834   8.805  19.088  0.00  0.00    +0.000 OA
BRANCH  20  23
ATOM     23  C   UNL     1       9.698  12.264  18.728  0.00  0.00    +0.000 A 
ATOM     24  C   UNL     1      10.049  12.981  17.577  0.00  0.00    +0.000 A 
ATOM     25  C   UNL     1      10.523  14.288  17.674  0.00  0.00    +0.000 A 
ATOM     26  C   UNL     1      10.653  14.897  18.930  0.00  0.00    +0.000 A 
ATOM     27  C   UNL     1      11.120  16.203  19.085  0.00  0.00    +0.000 A 
ATOM     28  N   UNL     1      11.265  16.826  20.277  0.00  0.00    +0.000 NA
ATOM     29  C   UNL     1      10.928  16.115  21.373  0.00  0.00    +0.000 A 
ATOM     30  C   UNL     1      10.451  14.814  21.337  0.00  0.00    +0.000 A 
ATOM     31  C   UNL     1      10.306  14.187  20.096  0.00  0.00    +0.000 A 
ATOM     32  C   UNL     1       9.825  12.872  19.984  0.00  0.00    +0.000 A 
ENDBRANCH  20  23
ENDBRANCH  17  18
ENDBRANCH   1  17
TORSDOF 8
ENDMDL
MODEL 8
REMARK VINA RESULT:      -8.3      0.907      1.618
REMARK  Name = 
REMARK  8 active torsions:
REMARK  status: ('A' for Active; 'I' for Inactive)
REMARK    1  A    between atoms: N_1  and  C_2
REMARK    2  A    between atoms: C_2  and  C_3
REMARK    3  A    between atoms: C_2  and  C_20
REMARK    4  A    between atoms: C_3  and  C_4
REMARK    5  A    between atoms: C_4  and  C_5
REMARK    6  A    between atoms: C_7  and  C_8
REMARK    7  A    between atoms: C_20  and  C_21
REMARK    8  A    between atoms: C_24  and  C_25
REMARK                            x       y       z     vdW  Elec       q    Type
REMARK                         _______ _______ _______ _____ _____    ______ ____
ROOT
ATOM      1  C   UNL     1       4.689   6.678  17.329  0.00  0.00    +0.000 C 
ENDROOT
BRANCH   1   2
ATOM      2  C   UNL     1       5.207   5.808  16.168  0.00  0.00    +0.000 C 
BRANCH   2   3
ATOM      3  N   UNL     1       6.636   6.075  15.950  0.00  0.00    +0.000 NA
ATOM      4  H   UNL     1       6.823   6.141  14.950  0.00  0.00    +0.000 HD
ATOM      5  H   UNL     1       7.202   5.297  16.287  0.00  0.00    +0.000 HD
ENDBRANCH   2   3
BRANCH   2   6
ATOM      6  C   UNL     1       4.948   4.294  16.365  0.00  0.00    +0.000 C 
BRANCH   6   7
ATOM      7  C   UNL     1       4.088   3.989  17.572  0.00  0.00    +0.000 A 
ATOM      8  C   UNL     1       4.678   3.811  18.829  0.00  0.00    +0.000 A 
ATOM      9  C   UNL     1       3.902   3.462  19.936  0.00  0.00    +0.000 A 
ATOM     10  C   UNL     1       2.518   3.290  19.811  0.00  0.00    +0.000 A 
ATOM     11  C   UNL     1       1.923   3.494  18.557  0.00  0.00    +0.000 A 
ATOM     12  C   UNL     1       2.700   3.844  17.450  0.00  0.00    +0.000 A 
BRANCH  10  13
ATOM     13  C   UNL     1       1.673   2.882  20.992  0.00  0.00    +0.000 C 
ATOM     14  F   UNL     1       0.333   2.924  20.745  0.00  0.00    +0.000 F 
ATOM     15  F   UNL     1       1.934   1.610  21.407  0.00  0.00    +0.000 F 
ATOM     16  F   UNL     1       1.875   3.677  22.080  0.00  0.00    +0.000 F 
ENDBRANCH  10  13
ENDBRANCH   6   7
ENDBRANCH   2   6
ENDBRANCH   1   2
BRANCH   1  17
ATOM     17  C   UNL     1       3.367   7.388  17.032  0.00  0.00    +0.000 C 
BRANCH  17  18
ATOM     18  C   UNL     1       2.656   7.732  18.278  0.00  0.00    +0.000 A 
ATOM     19  C   UNL     1       1.925   8.820  18.666  0.00  0.00    +0.000 A 
ATOM     20  C   UNL     1       1.481   8.504  19.972  0.00  0.00    +0.000 A 
ATOM     21  N   UNL     1       1.966   7.314  20.361  0.00  0.00    +0.000 NA
ATOM     22  O   UNL     1       2.691   6.827  19.288  0.00  0.00    +0.000 OA
BRANCH  20  23
ATOM     23  C   UNL     1       0.609   9.310  20.816  0.00  0.00    +0.000 A 
ATOM     24  C   UNL     1       0.418   8.955  22.159  0.00  0.00    +0.000 A 
ATOM     25  C   UNL     1      -0.416   9.713  22.980  0.00  0.00    +0.000 A 
ATOM     26  C   UNL     1      -1.072  10.840  22.465  0.00  0.00    +0.000 A 
ATOM     27  C   UNL     1      -1.917  11.635  23.242  0.00  0.00    +0.000 A 
ATOM     28  N   UNL     1      -2.573  12.725  22.786  0.00  0.00    +0.000 NA
ATOM     29  C   UNL     1      -2.380  13.044  21.489  0.00  0.00    +0.000 A 
ATOM     30  C   UNL     1      -1.564  12.330  20.626  0.00  0.00    +0.000 A 
ATOM     31  C   UNL     1      -0.892  11.206  21.118  0.00  0.00    +0.000 A 
ATOM     32  C   UNL     1      -0.045  10.437  20.302  0.00  0.00    +0.000 A 
ENDBRANCH  20  23
ENDBRANCH  17  18
ENDBRANCH   1  17
TORSDOF 8
ENDMDL
MODEL 9
REMARK VINA RESULT:      -8.2      5.433      7.812
REMARK  Name = 
REMARK  8 active torsions:
REMARK  status: ('A' for Active; 'I' for Inactive)
REMARK    1  A    between atoms: N_1  and  C_2
REMARK    2  A    between atoms: C_2  and  C_3
REMARK    3  A    between atoms: C_2  and  C_20
REMARK    4  A    between atoms: C_3  and  C_4
REMARK    5  A    between atoms: C_4  and  C_5
REMARK    6  A    between atoms: C_7  and  C_8
REMARK    7  A    between atoms: C_20  and  C_21
REMARK    8  A    between atoms: C_24  and  C_25
REMARK                            x       y       z     vdW  Elec       q    Type
REMARK                         _______ _______ _______ _____ _____    ______ ____
ROOT
ATOM      1  C   UNL     1       6.301   5.265  18.913  0.00  0.00    +0.000 C 
ENDROOT
BRANCH   1   2
ATOM      2  C   UNL     1       5.664   3.965  18.388  0.00  0.00    +0.000 C 
BRANCH   2   3
ATOM      3  N   UNL     1       5.132   3.186  19.515  0.00  0.00    +0.000 NA
ATOM      4  H   UNL     1       5.903   2.821  20.074  0.00  0.00    +0.000 HD
ATOM      5  H   UNL     1       4.622   2.370  19.179  0.00  0.00    +0.000 HD
ENDBRANCH   2   3
BRANCH   2   6
ATOM      6  C   UNL     1       4.576   4.198  17.310  0.00  0.00    +0.000 C 
BRANCH   6   7
ATOM      7  C   UNL     1       3.797   5.478  17.519  0.00  0.00    +0.000 A 
ATOM      8  C   UNL     1       4.281   6.688  17.008  0.00  0.00    +0.000 A 
ATOM      9  C   UNL     1       3.607   7.885  17.253  0.00  0.00    +0.000 A 
ATOM     10  C   UNL     1       2.428   7.897  18.010  0.00  0.00    +0.000 A 
ATOM     11  C   UNL     1       1.927   6.681  18.499  0.00  0.00    +0.000 A 
ATOM     12  C   UNL     1       2.603   5.483  18.252  0.00  0.00    +0.000 A 
BRANCH  10  13
ATOM     13  C   UNL     1       1.706   9.188  18.309  0.00  0.00    +0.000 C 
ATOM     14  F   UNL     1       1.412   9.354  19.629  0.00  0.00    +0.000 F 
ATOM     15  F   UNL     1       2.428  10.285  17.948  0.00  0.00    +0.000 F 
ATOM     16  F   UNL     1       0.519   9.288  17.648  0.00  0.00    +0.000 F 
ENDBRANCH  10  13
ENDBRANCH   6   7
ENDBRANCH   2   6
ENDBRANCH   1   2
BRANCH   1  17
ATOM     17  C   UNL     1       7.688   5.555  18.335  0.00  0.00    +0.000 C 
BRANCH  17  18
ATOM     18  C   UNL     1       7.946   7.006  18.273  0.00  0.00    +0.000 A 
ATOM     19  C   UNL     1       8.581   7.878  19.112  0.00  0.00    +0.000 A 
ATOM     20  C   UNL     1       8.516   9.126  18.446  0.00  0.00    +0.000 A 
ATOM     21  N   UNL     1       7.833   9.012  17.296  0.00  0.00    +0.000 NA
ATOM     22  O   UNL     1       7.490   7.676  17.185  0.00  0.00    +0.000 OA
BRANCH  20  23
ATOM     23  C   UNL     1       9.101  10.384  18.890  0.00  0.00    +0.000 A 
ATOM     24  C   UNL     1       9.662  10.476  20.172  0.00  0.00    +0.000 A 
ATOM     25  C   UNL     1      10.223  11.674  20.614  0.00  0.00    +0.000 A 
ATOM     26  C   UNL     1      10.229  12.798  19.777  0.00  0.00    +0.000 A 
ATOM     27  C   UNL     1      10.778  14.021  20.167  0.00  0.00    +0.000 A 
ATOM     28  N   UNL     1      10.800  15.130  19.395  0.00  0.00    +0.000 NA
ATOM     29  C   UNL     1      10.249  15.020  18.168  0.00  0.00    +0.000 A 
ATOM     30  C   UNL     1       9.678  13.857  17.675  0.00  0.00    +0.000 A 
ATOM     31  C   UNL     1       9.666  12.720  18.488  0.00  0.00    +0.000 A 
ATOM     32  C   UNL     1       9.109  11.506  18.052  0.00  0.00    +0.000 A 
ENDBRANCH  20  23
ENDBRANCH  17  18
ENDBRANCH   1  17
TORSDOF 8
ENDMDL
