MODEL 1
REMARK VINA RESULT:      -8.6      0.000      0.000
REMARK  Name = 
REMARK  9 active torsions:
REMARK  status: ('A' for Active; 'I' for Inactive)
REMARK    1  A    between atoms: C_1  and  N_2
REMARK    2  A    between atoms: N_2  and  C_3
REMARK    3  A    between atoms: C_3  and  C_4
REMARK    4  A    between atoms: C_7  and  C_8
REMARK    5  A    between atoms: C_12  and  C_14
REMARK    6  A    between atoms: C_14  and  N_15
REMARK    7  A    between atoms: C_16  and  C_18
REMARK    8  A    between atoms: N_26  and  C_27
REMARK    9  A    between atoms: C_27  and  C_28
REMARK                            x       y       z     vdW  Elec       q    Type
REMARK                         _______ _______ _______ _____ _____    ______ ____
ROOT
ATOM      1  N   UNL     1       1.739   8.522  18.342  0.00  0.00    +0.000 N 
ATOM      2  C   UNL     1       2.454   7.547  18.997  0.00  0.00    +0.000 C 
ATOM      3  O   UNL     1       2.271   7.319  20.191  0.00  0.00    +0.000 OA
ATOM      4  H   UNL     1       1.940   8.668  17.355  0.00  0.00    +0.000 HD
ENDROOT
BRANCH   2   5
ATOM      5  C   UNL     1       3.417   6.830  18.169  0.00  0.00    +0.000 A 
ATOM      6  N   UNL     1       4.601   7.333  17.844  0.00  0.00    +0.000 NA
ATOM      7  C   UNL     1       5.232   6.362  17.105  0.00  0.00    +0.000 A 
ATOM      8  C   UNL     1       6.524   6.357  16.551  0.00  0.00    +0.000 A 
ATOM      9  C   UNL     1       6.952   5.234  15.830  0.00  0.00    +0.000 A 
ATOM     10  C   UNL     1       6.101   4.146  15.639  0.00  0.00    +0.000 A 
ATOM     11  C   UNL     1       4.811   4.133  16.181  0.00  0.00    +0.000 A 
ATOM     12  C   UNL     1       4.412   5.252  16.929  0.00  0.00    +0.000 A 
ATOM     13  N   UNL     1       3.266   5.562  17.636  0.00  0.00    +0.000 N 
BRANCH  13  14
ATOM     14  C   UNL     1       2.130   4.668  17.842  0.00  0.00    +0.000 C 
BRANCH  14  15
ATOM     15  C   UNL     1       2.211   3.956  19.172  0.00  0.00    +0.000 A 
ATOM     16  C   UNL     1       3.393   3.322  19.576  0.00  0.00    +0.000 A 
ATOM     17  C   UNL     1       3.431   2.558  20.743  0.00  0.00    +0.000 A 
ATOM     18  C   UNL     1       2.294   2.447  21.539  0.00  0.00    +0.000 A 
ATOM     19  C   UNL     1       1.134   3.133  21.191  0.00  0.00    +0.000 A 
ATOM     20  C   UNL     1       1.094   3.888  20.017  0.00  0.00    +0.000 A 
ENDBRANCH  14  15
ENDBRANCH  13  14
ENDBRANCH   2   5
BRANCH   1  21
ATOM     21  C   UNL     1       0.736   9.334  19.009  0.00  0.00    +0.000 C 
BRANCH  21  24
ATOM     22  C   UNL     1       0.096  13.056  18.339  0.00  0.00    +0.000 C 
ATOM     23  N   UNL     1      -0.155  11.669  18.690  0.00  0.00    +0.000 N 
ATOM     24  C   UNL     1       0.947  10.819  18.714  0.00  0.00    +0.000 C 
ATOM     25  O   UNL     1       2.080  11.228  18.433  0.00  0.00    +0.000 OA
BRANCH  23  26
ATOM     26  C   UNL     1      -1.549  11.244  18.842  0.00  0.00    +0.000 C 
BRANCH  26  27
ATOM     27  C   UNL     1      -2.238  10.880  17.540  0.00  0.00    +0.000 A 
ATOM     28  C   UNL     1      -1.752   9.878  16.688  0.00  0.00    +0.000 A 
ATOM     29  C   UNL     1      -2.408   9.576  15.486  0.00  0.00    +0.000 A 
ATOM     30  C   UNL     1      -3.574  10.257  15.125  0.00  0.00    +0.000 A 
ATOM     31  C   UNL     1      -4.094  11.224  15.987  0.00  0.00    +0.000 A 
ATOM     32  C   UNL     1      -3.433  11.528  17.185  0.00  0.00    +0.000 A 
BRANCH  30  33
ATOM     33  C   UNL     1      -4.222   9.969  13.875  0.00  0.00    +0.000 C 
ATOM     34  N   UNL     1      -4.750   9.738  12.872  0.00  0.00    +0.000 NA
ENDBRANCH  30  33
ENDBRANCH  26  27
ENDBRANCH  23  26
ENDBRANCH  21  24
ENDBRANCH   1  21
TORSDOF 8
ENDMDL
MODEL 2
REMARK VINA RESULT:      -8.5      2.680      3.739
REMARK  Name = 
REMARK  9 active torsions:
REMARK  status: ('A' for Active; 'I' for Inactive)
REMARK    1  A    between atoms: C_1  and  N_2
REMARK    2  A    between atoms: N_2  and  C_3
REMARK    3  A    between atoms: C_3  and  C_4
REMARK    4  A    between atoms: C_7  and  C_8
REMARK    5  A    between atoms: C_12  and  C_14
REMARK    6  A    between atoms: C_14  and  N_15
REMARK    7  A    between atoms: C_16  and  C_18
REMARK    8  A    between atoms: N_26  and  C_27
REMARK    9  A    between atoms: C_27  and  C_28
REMARK                            x       y       z     vdW  Elec       q    Type
REMARK                         _______ _______ _______ _____ _____    ______ ____
ROOT
ATOM      1  N   UNL     1       1.768   8.690  17.828  0.00  0.00    +0.000 N 
ATOM      2  C   UNL     1       2.352   7.720  18.607  0.00  0.00    +0.000 C 
ATOM      3  O   UNL     1       2.043   7.583  19.789  0.00  0.00    +0.000 OA
ATOM      4  H   UNL     1       2.070   8.758  16.858  0.00  0.00    +0.000 HD
ENDROOT
BRANCH   2   5
ATOM      5  C   UNL     1       3.339   6.892  17.922  0.00  0.00    +0.000 A 
ATOM      6  N   UNL     1       4.542   7.339  17.584  0.00  0.00    +0.000 NA
ATOM      7  C   UNL     1       5.189   6.274  17.006  0.00  0.00    +0.000 A 
ATOM      8  C   UNL     1       6.502   6.185  16.512  0.00  0.00    +0.000 A 
ATOM      9  C   UNL     1       6.944   4.974  15.964  0.00  0.00    +0.000 A 
ATOM     10  C   UNL     1       6.088   3.876  15.883  0.00  0.00    +0.000 A 
ATOM     11  C   UNL     1       4.777   3.945  16.367  0.00  0.00    +0.000 A 
ATOM     12  C   UNL     1       4.363   5.156  16.944  0.00  0.00    +0.000 A 
ATOM     13  N   UNL     1       3.193   5.566  17.555  0.00  0.00    +0.000 N 
BRANCH  13  14
ATOM     14  C   UNL     1       2.038   4.715  17.829  0.00  0.00    +0.000 C 
BRANCH  14  15
ATOM     15  C   UNL     1       2.155   4.025  19.168  0.00  0.00    +0.000 A 
ATOM     16  C   UNL     1       3.363   3.441  19.572  0.00  0.00    +0.000 A 
ATOM     17  C   UNL     1       3.438   2.697  20.749  0.00  0.00    +0.000 A 
ATOM     18  C   UNL     1       2.312   2.555  21.555  0.00  0.00    +0.000 A 
ATOM     19  C   UNL     1       1.124   3.192  21.206  0.00  0.00    +0.000 A 
ATOM     20  C   UNL     1       1.048   3.929  20.023  0.00  0.00    +0.000 A 
ENDBRANCH  14  15
ENDBRANCH  13  14
ENDBRANCH   2   5
BRANCH   1  21
ATOM     21  C   UNL     1       0.764   9.604  18.343  0.00  0.00    +0.000 C 
BRANCH  21  24
ATOM     22  C   UNL     1       1.754  12.554  20.587  0.00  0.00    +0.000 C 
ATOM     23  N   UNL     1       1.173  11.288  20.172  0.00  0.00    +0.000 N 
ATOM     24  C   UNL     1       1.407  10.892  18.859  0.00  0.00    +0.000 C 
ATOM     25  O   UNL     1       2.065  11.595  18.083  0.00  0.00    +0.000 OA
BRANCH  23  26
ATOM     26  C   UNL     1       0.272  10.610  21.108  0.00  0.00    +0.000 C 
BRANCH  26  27
ATOM     27  C   UNL     1      -0.965  11.409  21.476  0.00  0.00    +0.000 A 
ATOM     28  C   UNL     1      -1.802  11.983  20.509  0.00  0.00    +0.000 A 
ATOM     29  C   UNL     1      -2.931  12.725  20.885  0.00  0.00    +0.000 A 
ATOM     30  C   UNL     1      -3.255  12.887  22.235  0.00  0.00    +0.000 A 
ATOM     31  C   UNL     1      -2.456  12.280  23.206  0.00  0.00    +0.000 A 
ATOM     32  C   UNL     1      -1.325  11.544  22.827  0.00  0.00    +0.000 A 
BRANCH  30  33
ATOM     33  C   UNL     1      -4.392  13.677  22.616  0.00  0.00    +0.000 C 
ATOM     34  N   UNL     1      -5.309  14.316  22.917  0.00  0.00    +0.000 NA
ENDBRANCH  30  33
ENDBRANCH  26  27
ENDBRANCH  23  26
ENDBRANCH  21  24
ENDBRANCH   1  21
TORSDOF 8
ENDMDL
MODEL 3
REMARK VINA RESULT:      -8.5      2.168      4.316
REMARK  Name = 
REMARK  9 active torsions:
REMARK  status: ('A' for Active; 'I' for Inactive)
REMARK    1  A    between atoms: C_1  and  N_2
REMARK    2  A    between atoms: N_2  and  C_3
REMARK    3  A    between atoms: C_3  and  C_4
REMARK    4  A    between atoms: C_7  and  C_8
REMARK    5  A    between atoms: C_12  and  C_14
REMARK    6  A    between atoms: C_14  and  N_15
REMARK    7  A    between atoms: C_16  and  C_18
REMARK    8  A    between atoms: N_26  and  C_27
REMARK    9  A    between atoms: C_27  and  C_28
REMARK                            x       y       z     vdW  Elec       q    Type
REMARK                         _______ _______ _______ _____ _____    ______ ____
ROOT
ATOM      1  N   UNL     1       1.745   8.081  21.295  0.00  0.00    +0.000 N 
ATOM      2  C   UNL     1       1.995   7.703  19.997  0.00  0.00    +0.000 C 
ATOM      3  O   UNL     1       2.179   8.539  19.115  0.00  0.00    +0.000 OA
ATOM      4  H   UNL     1       1.594   7.342  21.979  0.00  0.00    +0.000 HD
ENDROOT
BRANCH   2   5
ATOM      5  C   UNL     1       2.023   6.262  19.771  0.00  0.00    +0.000 A 
ATOM      6  N   UNL     1       1.358   5.402  20.532  0.00  0.00    +0.000 NA
ATOM      7  C   UNL     1       1.591   4.161  19.989  0.00  0.00    +0.000 A 
ATOM      8  C   UNL     1       1.091   2.906  20.377  0.00  0.00    +0.000 A 
ATOM      9  C   UNL     1       1.474   1.768  19.656  0.00  0.00    +0.000 A 
ATOM     10  C   UNL     1       2.362   1.870  18.585  0.00  0.00    +0.000 A 
ATOM     11  C   UNL     1       2.873   3.110  18.186  0.00  0.00    +0.000 A 
ATOM     12  C   UNL     1       2.450   4.243  18.898  0.00  0.00    +0.000 A 
ATOM     13  N   UNL     1       2.696   5.596  18.761  0.00  0.00    +0.000 N 
BRANCH  13  14
ATOM     14  C   UNL     1       3.471   6.213  17.688  0.00  0.00    +0.000 C 
BRANCH  14  15
ATOM     15  C   UNL     1       4.946   6.252  18.013  0.00  0.00    +0.000 A 
ATOM     16  C   UNL     1       5.837   6.983  17.216  0.00  0.00    +0.000 A 
ATOM     17  C   UNL     1       7.213   6.918  17.440  0.00  0.00    +0.000 A 
ATOM     18  C   UNL     1       7.712   6.147  18.486  0.00  0.00    +0.000 A 
ATOM     19  C   UNL     1       6.834   5.475  19.333  0.00  0.00    +0.000 A 
ATOM     20  C   UNL     1       5.459   5.533  19.102  0.00  0.00    +0.000 A 
ENDBRANCH  14  15
ENDBRANCH  13  14
ENDBRANCH   2   5
BRANCH   1  21
ATOM     21  C   UNL     1       1.682   9.474  21.702  0.00  0.00    +0.000 C 
BRANCH  21  24
ATOM     22  C   UNL     1      -1.569  11.042  23.001  0.00  0.00    +0.000 C 
ATOM     23  N   UNL     1      -0.425  10.783  22.143  0.00  0.00    +0.000 N 
ATOM     24  C   UNL     1       0.424   9.749  22.526  0.00  0.00    +0.000 C 
ATOM     25  O   UNL     1       0.217   9.096  23.556  0.00  0.00    +0.000 OA
BRANCH  23  26
ATOM     26  C   UNL     1      -0.173  11.715  21.041  0.00  0.00    +0.000 C 
BRANCH  26  27
ATOM     27  C   UNL     1      -0.901  11.374  19.754  0.00  0.00    +0.000 A 
ATOM     28  C   UNL     1      -2.061  12.048  19.347  0.00  0.00    +0.000 A 
ATOM     29  C   UNL     1      -2.716  11.699  18.157  0.00  0.00    +0.000 A 
ATOM     30  C   UNL     1      -2.209  10.683  17.342  0.00  0.00    +0.000 A 
ATOM     31  C   UNL     1      -1.028  10.036  17.712  0.00  0.00    +0.000 A 
ATOM     32  C   UNL     1      -0.380  10.383  18.905  0.00  0.00    +0.000 A 
BRANCH  30  33
ATOM     33  C   UNL     1      -2.902  10.305  16.142  0.00  0.00    +0.000 C 
ATOM     34  N   UNL     1      -3.467  10.001  15.178  0.00  0.00    +0.000 NA
ENDBRANCH  30  33
ENDBRANCH  26  27
ENDBRANCH  23  26
ENDBRANCH  21  24
ENDBRANCH   1  21
TORSDOF 8
ENDMDL
MODEL 4
REMARK VINA RESULT:      -8.5      1.567      2.089
REMARK  Name = 
REMARK  9 active torsions:
REMARK  status: ('A' for Active; 'I' for Inactive)
REMARK    1  A    between atoms: C_1  and  N_2
REMARK    2  A    between atoms: N_2  and  C_3
REMARK    3  A    between atoms: C_3  and  C_4
REMARK    4  A    between atoms: C_7  and  C_8
REMARK    5  A    between atoms: C_12  and  C_14
REMARK    6  A    between atoms: C_14  and  N_15
REMARK    7  A    between atoms: C_16  and  C_18
REMARK    8  A    between atoms: N_26  and  C_27
REMARK    9  A    between atoms: C_27  and  C_28
REMARK                            x       y       z     vdW  Elec       q    Type
REMARK                         _______ _______ _______ _____ _____    ______ ____
ROOT
ATOM      1  N   UNL     1       2.121   8.487  18.359  0.00  0.00    +0.000 N 
ATOM      2  C   UNL     1       2.618   7.339  18.929  0.00  0.00    +0.000 C 
ATOM      3  O   UNL     1       2.291   7.001  20.065  0.00  0.00    +0.000 OA
ATOM      4  H   UNL     1       2.434   8.718  17.418  0.00  0.00    +0.000 HD
ENDROOT
BRANCH   2   5
ATOM      5  C   UNL     1       3.537   6.582  18.087  0.00  0.00    +0.000 A 
ATOM      6  N   UNL     1       4.745   7.025  17.762  0.00  0.00    +0.000 NA
ATOM      7  C   UNL     1       5.319   6.031  17.006  0.00  0.00    +0.000 A 
ATOM      8  C   UNL     1       6.606   5.963  16.445  0.00  0.00    +0.000 A 
ATOM      9  C   UNL     1       6.969   4.828  15.708  0.00  0.00    +0.000 A 
ATOM     10  C   UNL     1       6.060   3.790  15.508  0.00  0.00    +0.000 A 
ATOM     11  C   UNL     1       4.774   3.840  16.057  0.00  0.00    +0.000 A 
ATOM     12  C   UNL     1       4.440   4.968  16.822  0.00  0.00    +0.000 A 
ATOM     13  N   UNL     1       3.315   5.331  17.538  0.00  0.00    +0.000 N 
BRANCH  13  14
ATOM     14  C   UNL     1       2.134   4.496  17.740  0.00  0.00    +0.000 C 
BRANCH  14  15
ATOM     15  C   UNL     1       2.193   3.749  19.051  0.00  0.00    +0.000 A 
ATOM     16  C   UNL     1       1.077   3.696  19.898  0.00  0.00    +0.000 A 
ATOM     17  C   UNL     1       1.169   3.115  21.163  0.00  0.00    +0.000 A 
ATOM     18  C   UNL     1       2.369   2.549  21.584  0.00  0.00    +0.000 A 
ATOM     19  C   UNL     1       3.465   2.526  20.724  0.00  0.00    +0.000 A 
ATOM     20  C   UNL     1       3.375   3.117  19.463  0.00  0.00    +0.000 A 
ENDBRANCH  14  15
ENDBRANCH  13  14
ENDBRANCH   2   5
BRANCH   1  21
ATOM     21  C   UNL     1       1.193   9.363  19.052  0.00  0.00    +0.000 C 
BRANCH  21  24
ATOM     22  C   UNL     1       0.848  13.175  18.790  0.00  0.00    +0.000 C 
ATOM     23  N   UNL     1       0.642  11.813  19.253  0.00  0.00    +0.000 N 
ATOM     24  C   UNL     1       1.415  10.823  18.655  0.00  0.00    +0.000 C 
ATOM     25  O   UNL     1       2.226  11.094  17.762  0.00  0.00    +0.000 OA
BRANCH  23  26
ATOM     26  C   UNL     1      -0.457  11.571  20.193  0.00  0.00    +0.000 C 
BRANCH  26  27
ATOM     27  C   UNL     1      -1.841  11.675  19.579  0.00  0.00    +0.000 A 
ATOM     28  C   UNL     1      -2.195  10.991  18.408  0.00  0.00    +0.000 A 
ATOM     29  C   UNL     1      -3.480  11.119  17.861  0.00  0.00    +0.000 A 
ATOM     30  C   UNL     1      -4.440  11.917  18.489  0.00  0.00    +0.000 A 
ATOM     31  C   UNL     1      -4.114  12.566  19.682  0.00  0.00    +0.000 A 
ATOM     32  C   UNL     1      -2.827  12.440  20.222  0.00  0.00    +0.000 A 
BRANCH  30  33
ATOM     33  C   UNL     1      -5.744  12.074  17.906  0.00  0.00    +0.000 C 
ATOM     34  N   UNL     1      -6.797  12.201  17.442  0.00  0.00    +0.000 NA
ENDBRANCH  30  33
ENDBRANCH  26  27
ENDBRANCH  23  26
ENDBRANCH  21  24
ENDBRANCH   1  21
TORSDOF 8
ENDMDL
MODEL 5
REMARK VINA RESULT:      -8.5      2.024      4.119
REMARK  Name = 
REMARK  9 active torsions:
REMARK  status: ('A' for Active; 'I' for Inactive)
REMARK    1  A    between atoms: C_1  and  N_2
REMARK    2  A    between atoms: N_2  and  C_3
REMARK    3  A    between atoms: C_3  and  C_4
REMARK    4  A    between atoms: C_7  and  C_8
REMARK    5  A    between atoms: C_12  and  C_14
REMARK    6  A    between atoms: C_14  and  N_15
REMARK    7  A    between atoms: C_16  and  C_18
REMARK    8  A    between atoms: N_26  and  C_27
REMARK    9  A    between atoms: C_27  and  C_28
REMARK                            x       y       z     vdW  Elec       q    Type
REMARK                         _______ _______ _______ _____ _____    ______ ____
ROOT
ATOM      1  N   UNL     1       1.785   8.112  20.781  0.00  0.00    +0.000 N 
ATOM      2  C   UNL     1       2.196   7.664  19.548  0.00  0.00    +0.000 C 
ATOM      3  O   UNL     1       2.480   8.451  18.647  0.00  0.00    +0.000 OA
ATOM      4  H   UNL     1       1.558   7.412  21.484  0.00  0.00    +0.000 HD
ENDROOT
BRANCH   2   5
ATOM      5  C   UNL     1       2.266   6.213  19.413  0.00  0.00    +0.000 A 
ATOM      6  N   UNL     1       1.578   5.385  20.189  0.00  0.00    +0.000 NA
ATOM      7  C   UNL     1       1.866   4.120  19.738  0.00  0.00    +0.000 A 
ATOM      8  C   UNL     1       1.371   2.879  20.174  0.00  0.00    +0.000 A 
ATOM      9  C   UNL     1       1.816   1.708  19.547  0.00  0.00    +0.000 A 
ATOM     10  C   UNL     1       2.759   1.767  18.520  0.00  0.00    +0.000 A 
ATOM     11  C   UNL     1       3.265   2.992  18.073  0.00  0.00    +0.000 A 
ATOM     12  C   UNL     1       2.781   4.156  18.690  0.00  0.00    +0.000 A 
ATOM     13  N   UNL     1       3.007   5.504  18.484  0.00  0.00    +0.000 N 
BRANCH  13  14
ATOM     14  C   UNL     1       3.826   6.072  17.417  0.00  0.00    +0.000 C 
BRANCH  14  15
ATOM     15  C   UNL     1       5.281   6.162  17.814  0.00  0.00    +0.000 A 
ATOM     16  C   UNL     1       5.785   5.392  18.871  0.00  0.00    +0.000 A 
ATOM     17  C   UNL     1       7.094   5.568  19.320  0.00  0.00    +0.000 A 
ATOM     18  C   UNL     1       7.926   6.492  18.695  0.00  0.00    +0.000 A 
ATOM     19  C   UNL     1       7.464   7.210  17.596  0.00  0.00    +0.000 A 
ATOM     20  C   UNL     1       6.150   7.041  17.154  0.00  0.00    +0.000 A 
ENDBRANCH  14  15
ENDBRANCH  13  14
ENDBRANCH   2   5
BRANCH   1  21
ATOM     21  C   UNL     1       1.658   9.525  21.094  0.00  0.00    +0.000 C 
BRANCH  21  24
ATOM     22  C   UNL     1      -1.397  11.038  22.852  0.00  0.00    +0.000 C 
ATOM     23  N   UNL     1      -0.374  10.810  21.845  0.00  0.00    +0.000 N 
ATOM     24  C   UNL     1       0.518   9.769  22.082  0.00  0.00    +0.000 C 
ATOM     25  O   UNL     1       0.447   9.084  23.109  0.00  0.00    +0.000 OA
BRANCH  23  26
ATOM     26  C   UNL     1      -0.267  11.777  20.748  0.00  0.00    +0.000 C 
BRANCH  26  27
ATOM     27  C   UNL     1      -1.000  11.371  19.483  0.00  0.00    +0.000 A 
ATOM     28  C   UNL     1      -0.567  10.312  18.672  0.00  0.00    +0.000 A 
ATOM     29  C   UNL     1      -1.261   9.972  17.502  0.00  0.00    +0.000 A 
ATOM     30  C   UNL     1      -2.415  10.670  17.135  0.00  0.00    +0.000 A 
ATOM     31  C   UNL     1      -2.883  11.696  17.959  0.00  0.00    +0.000 A 
ATOM     32  C   UNL     1      -2.183  12.038  19.124  0.00  0.00    +0.000 A 
BRANCH  30  33
ATOM     33  C   UNL     1      -3.102  10.341  15.918  0.00  0.00    +0.000 C 
ATOM     34  N   UNL     1      -3.654  10.070  14.937  0.00  0.00    +0.000 NA
ENDBRANCH  30  33
ENDBRANCH  26  27
ENDBRANCH  23  26
ENDBRANCH  21  24
ENDBRANCH   1  21
TORSDOF 8
ENDMDL
MODEL 6
REMARK VINA RESULT:      -8.3      2.731      3.752
REMARK  Name = 
REMARK  9 active torsions:
REMARK  status: ('A' for Active; 'I' for Inactive)
REMARK    1  A    between atoms: C_1  and  N_2
REMARK    2  A    between atoms: N_2  and  C_3
REMARK    3  A    between atoms: C_3  and  C_4
REMARK    4  A    between atoms: C_7  and  C_8
REMARK    5  A    between atoms: C_12  and  C_14
REMARK    6  A    between atoms: C_14  and  N_15
REMARK    7  A    between atoms: C_16  and  C_18
REMARK    8  A    between atoms: N_26  and  C_27
REMARK    9  A    between atoms: C_27  and  C_28
REMARK                            x       y       z     vdW  Elec       q    Type
REMARK                         _______ _______ _______ _____ _____    ______ ____
ROOT
ATOM      1  N   UNL     1       1.672   9.056  17.899  0.00  0.00    +0.000 N 
ATOM      2  C   UNL     1       2.188   8.083  18.722  0.00  0.00    +0.000 C 
ATOM      3  O   UNL     1       1.825   7.983  19.892  0.00  0.00    +0.000 OA
ATOM      4  H   UNL     1       2.017   9.093  16.941  0.00  0.00    +0.000 HD
ENDROOT
BRANCH   2   5
ATOM      5  C   UNL     1       3.171   7.206  18.095  0.00  0.00    +0.000 A 
ATOM      6  N   UNL     1       4.415   7.588  17.838  0.00  0.00    +0.000 NA
ATOM      7  C   UNL     1       5.041   6.491  17.295  0.00  0.00    +0.000 A 
ATOM      8  C   UNL     1       6.376   6.334  16.886  0.00  0.00    +0.000 A 
ATOM      9  C   UNL     1       6.786   5.102  16.360  0.00  0.00    +0.000 A 
ATOM     10  C   UNL     1       5.879   4.053  16.216  0.00  0.00    +0.000 A 
ATOM     11  C   UNL     1       4.546   4.191  16.615  0.00  0.00    +0.000 A 
ATOM     12  C   UNL     1       4.161   5.420  17.173  0.00  0.00    +0.000 A 
ATOM     13  N   UNL     1       2.978   5.890  17.710  0.00  0.00    +0.000 N 
BRANCH  13  14
ATOM     14  C   UNL     1       1.763   5.102  17.904  0.00  0.00    +0.000 C 
BRANCH  14  15
ATOM     15  C   UNL     1       1.860   4.213  19.122  0.00  0.00    +0.000 A 
ATOM     16  C   UNL     1       1.550   2.849  19.041  0.00  0.00    +0.000 A 
ATOM     17  C   UNL     1       1.517   2.056  20.188  0.00  0.00    +0.000 A 
ATOM     18  C   UNL     1       1.828   2.610  21.427  0.00  0.00    +0.000 A 
ATOM     19  C   UNL     1       2.212   3.946  21.513  0.00  0.00    +0.000 A 
ATOM     20  C   UNL     1       2.234   4.741  20.365  0.00  0.00    +0.000 A 
ENDBRANCH  14  15
ENDBRANCH  13  14
ENDBRANCH   2   5
BRANCH   1  21
ATOM     21  C   UNL     1       0.683  10.017  18.353  0.00  0.00    +0.000 C 
BRANCH  21  24
ATOM     22  C   UNL     1       1.818  12.825  20.708  0.00  0.00    +0.000 C 
ATOM     23  N   UNL     1       1.218  11.581  20.254  0.00  0.00    +0.000 N 
ATOM     24  C   UNL     1       1.351  11.277  18.904  0.00  0.00    +0.000 C 
ATOM     25  O   UNL     1       1.941  12.040  18.128  0.00  0.00    +0.000 OA
BRANCH  23  26
ATOM     26  C   UNL     1       0.400  10.829  21.210  0.00  0.00    +0.000 C 
BRANCH  26  27
ATOM     27  C   UNL     1      -0.916  11.496  21.568  0.00  0.00    +0.000 A 
ATOM     28  C   UNL     1      -1.365  11.605  22.892  0.00  0.00    +0.000 A 
ATOM     29  C   UNL     1      -2.592  12.217  23.186  0.00  0.00    +0.000 A 
ATOM     30  C   UNL     1      -3.381  12.751  22.163  0.00  0.00    +0.000 A 
ATOM     31  C   UNL     1      -2.921  12.691  20.845  0.00  0.00    +0.000 A 
ATOM     32  C   UNL     1      -1.698  12.073  20.554  0.00  0.00    +0.000 A 
BRANCH  30  33
ATOM     33  C   UNL     1      -4.653  13.345  22.465  0.00  0.00    +0.000 C 
ATOM     34  N   UNL     1      -5.678  13.827  22.703  0.00  0.00    +0.000 NA
ENDBRANCH  30  33
ENDBRANCH  26  27
ENDBRANCH  23  26
ENDBRANCH  21  24
ENDBRANCH   1  21
TORSDOF 8
ENDMDL
MODEL 7
REMARK VINA RESULT:      -8.3      1.998      4.242
REMARK  Name = 
REMARK  9 active torsions:
REMARK  status: ('A' for Active; 'I' for Inactive)
REMARK    1  A    between atoms: C_1  and  N_2
REMARK    2  A    between atoms: N_2  and  C_3
REMARK    3  A    between atoms: C_3  and  C_4
REMARK    4  A    between atoms: C_7  and  C_8
REMARK    5  A    between atoms: C_12  and  C_14
REMARK    6  A    between atoms: C_14  and  N_15
REMARK    7  A    between atoms: C_16  and  C_18
REMARK    8  A    between atoms: N_26  and  C_27
REMARK    9  A    between atoms: C_27  and  C_28
REMARK                            x       y       z     vdW  Elec       q    Type
REMARK                         _______ _______ _______ _____ _____    ______ ____
ROOT
ATOM      1  N   UNL     1       1.899   7.944  21.017  0.00  0.00    +0.000 N 
ATOM      2  C   UNL     1       2.198   7.523  19.743  0.00  0.00    +0.000 C 
ATOM      3  O   UNL     1       2.375   8.329  18.832  0.00  0.00    +0.000 OA
ATOM      4  H   UNL     1       1.758   7.228  21.727  0.00  0.00    +0.000 HD
ENDROOT
BRANCH   2   5
ATOM      5  C   UNL     1       2.287   6.075  19.579  0.00  0.00    +0.000 A 
ATOM      6  N   UNL     1       1.219   5.289  19.541  0.00  0.00    +0.000 NA
ATOM      7  C   UNL     1       1.696   4.017  19.334  0.00  0.00    +0.000 A 
ATOM      8  C   UNL     1       0.991   2.813  19.169  0.00  0.00    +0.000 A 
ATOM      9  C   UNL     1       1.707   1.626  18.964  0.00  0.00    +0.000 A 
ATOM     10  C   UNL     1       3.101   1.631  18.950  0.00  0.00    +0.000 A 
ATOM     11  C   UNL     1       3.821   2.819  19.115  0.00  0.00    +0.000 A 
ATOM     12  C   UNL     1       3.086   4.003  19.284  0.00  0.00    +0.000 A 
ATOM     13  N   UNL     1       3.444   5.331  19.421  0.00  0.00    +0.000 N 
BRANCH  13  14
ATOM     14  C   UNL     1       4.804   5.856  19.333  0.00  0.00    +0.000 C 
BRANCH  14  15
ATOM     15  C   UNL     1       5.402   5.638  17.963  0.00  0.00    +0.000 A 
ATOM     16  C   UNL     1       4.799   6.184  16.821  0.00  0.00    +0.000 A 
ATOM     17  C   UNL     1       5.277   5.879  15.547  0.00  0.00    +0.000 A 
ATOM     18  C   UNL     1       6.386   5.051  15.399  0.00  0.00    +0.000 A 
ATOM     19  C   UNL     1       7.042   4.562  16.526  0.00  0.00    +0.000 A 
ATOM     20  C   UNL     1       6.556   4.860  17.801  0.00  0.00    +0.000 A 
ENDBRANCH  14  15
ENDBRANCH  13  14
ENDBRANCH   2   5
BRANCH   1  21
ATOM     21  C   UNL     1       1.773   9.348  21.363  0.00  0.00    +0.000 C 
BRANCH  21  24
ATOM     22  C   UNL     1      -1.425  10.847  22.862  0.00  0.00    +0.000 C 
ATOM     23  N   UNL     1      -0.321  10.624  21.944  0.00  0.00    +0.000 N 
ATOM     24  C   UNL     1       0.553   9.587  22.254  0.00  0.00    +0.000 C 
ATOM     25  O   UNL     1       0.400   8.901  23.271  0.00  0.00    +0.000 OA
BRANCH  23  26
ATOM     26  C   UNL     1      -0.128  11.592  20.860  0.00  0.00    +0.000 C 
BRANCH  26  27
ATOM     27  C   UNL     1      -0.897  11.271  19.591  0.00  0.00    +0.000 A 
ATOM     28  C   UNL     1      -0.489  10.270  18.699  0.00  0.00    +0.000 A 
ATOM     29  C   UNL     1      -1.217  10.008  17.529  0.00  0.00    +0.000 A 
ATOM     30  C   UNL     1      -2.380  10.730  17.243  0.00  0.00    +0.000 A 
ATOM     31  C   UNL     1      -2.822  11.698  18.147  0.00  0.00    +0.000 A 
ATOM     32  C   UNL     1      -2.089  11.961  19.312  0.00  0.00    +0.000 A 
BRANCH  30  33
ATOM     33  C   UNL     1      -3.102  10.484  16.026  0.00  0.00    +0.000 C 
ATOM     34  N   UNL     1      -3.689  10.289  15.047  0.00  0.00    +0.000 NA
ENDBRANCH  30  33
ENDBRANCH  26  27
ENDBRANCH  23  26
ENDBRANCH  21  24
ENDBRANCH   1  21
TORSDOF 8
ENDMDL
MODEL 8
REMARK VINA RESULT:      -8.2      2.451      3.783
REMARK  Name = 
REMARK  9 active torsions:
REMARK  status: ('A' for Active; 'I' for Inactive)
REMARK    1  A    between atoms: C_1  and  N_2
REMARK    2  A    between atoms: N_2  and  C_3
REMARK    3  A    between atoms: C_3  and  C_4
REMARK    4  A    between atoms: C_7  and  C_8
REMARK    5  A    between atoms: C_12  and  C_14
REMARK    6  A    between atoms: C_14  and  N_15
REMARK    7  A    between atoms: C_16  and  C_18
REMARK    8  A    between atoms: N_26  and  C_27
REMARK    9  A    between atoms: C_27  and  C_28
REMARK                            x       y       z     vdW  Elec       q    Type
REMARK                         _______ _______ _______ _____ _____    ______ ____
ROOT
ATOM      1  N   UNL     1       1.477   9.018  17.877  0.00  0.00    +0.000 N 
ATOM      2  C   UNL     1       2.080   8.125  18.730  0.00  0.00    +0.000 C 
ATOM      3  O   UNL     1       1.800   8.100  19.927  0.00  0.00    +0.000 OA
ATOM      4  H   UNL     1       1.756   8.993  16.898  0.00  0.00    +0.000 HD
ENDROOT
BRANCH   2   5
ATOM      5  C   UNL     1       3.051   7.234  18.102  0.00  0.00    +0.000 A 
ATOM      6  N   UNL     1       4.293   7.606  17.824  0.00  0.00    +0.000 NA
ATOM      7  C   UNL     1       4.907   6.500  17.287  0.00  0.00    +0.000 A 
ATOM      8  C   UNL     1       6.235   6.331  16.863  0.00  0.00    +0.000 A 
ATOM      9  C   UNL     1       6.633   5.090  16.347  0.00  0.00    +0.000 A 
ATOM     10  C   UNL     1       5.719   4.043  16.229  0.00  0.00    +0.000 A 
ATOM     11  C   UNL     1       4.392   4.193  16.644  0.00  0.00    +0.000 A 
ATOM     12  C   UNL     1       4.020   5.432  17.191  0.00  0.00    +0.000 A 
ATOM     13  N   UNL     1       2.846   5.915  17.737  0.00  0.00    +0.000 N 
BRANCH  13  14
ATOM     14  C   UNL     1       1.631   5.135  17.958  0.00  0.00    +0.000 C 
BRANCH  14  15
ATOM     15  C   UNL     1       1.738   4.265  19.188  0.00  0.00    +0.000 A 
ATOM     16  C   UNL     1       1.958   4.832  20.451  0.00  0.00    +0.000 A 
ATOM     17  C   UNL     1       2.183   4.024  21.566  0.00  0.00    +0.000 A 
ATOM     18  C   UNL     1       2.157   2.638  21.438  0.00  0.00    +0.000 A 
ATOM     19  C   UNL     1       1.865   2.060  20.205  0.00  0.00    +0.000 A 
ATOM     20  C   UNL     1       1.650   2.870  19.088  0.00  0.00    +0.000 A 
ENDBRANCH  14  15
ENDBRANCH  13  14
ENDBRANCH   2   5
BRANCH   1  21
ATOM     21  C   UNL     1       0.486   9.978  18.328  0.00  0.00    +0.000 C 
BRANCH  21  24
ATOM     22  C   UNL     1       0.902  13.764  18.783  0.00  0.00    +0.000 C 
ATOM     23  N   UNL     1       0.266  12.460  18.697  0.00  0.00    +0.000 N 
ATOM     24  C   UNL     1       1.102  11.367  18.496  0.00  0.00    +0.000 C 
ATOM     25  O   UNL     1       2.326  11.506  18.383  0.00  0.00    +0.000 OA
BRANCH  23  26
ATOM     26  C   UNL     1      -1.199  12.415  18.675  0.00  0.00    +0.000 C 
BRANCH  26  27
ATOM     27  C   UNL     1      -1.844  12.376  20.048  0.00  0.00    +0.000 A 
ATOM     28  C   UNL     1      -1.123  12.058  21.207  0.00  0.00    +0.000 A 
ATOM     29  C   UNL     1      -1.754  12.020  22.459  0.00  0.00    +0.000 A 
ATOM     30  C   UNL     1      -3.114  12.322  22.576  0.00  0.00    +0.000 A 
ATOM     31  C   UNL     1      -3.832  12.687  21.435  0.00  0.00    +0.000 A 
ATOM     32  C   UNL     1      -3.200  12.718  20.185  0.00  0.00    +0.000 A 
BRANCH  30  33
ATOM     33  C   UNL     1      -3.764  12.247  23.854  0.00  0.00    +0.000 C 
ATOM     34  N   UNL     1      -4.283  12.185  24.888  0.00  0.00    +0.000 NA
ENDBRANCH  30  33
ENDBRANCH  26  27
ENDBRANCH  23  26
ENDBRANCH  21  24
ENDBRANCH   1  21
TORSDOF 8
ENDMDL
MODEL 9
REMARK VINA RESULT:      -8.1      1.923      4.235
REMARK  Name = 
REMARK  9 active torsions:
REMARK  status: ('A' for Active; 'I' for Inactive)
REMARK    1  A    between atoms: C_1  and  N_2
REMARK    2  A    between atoms: N_2  and  C_3
REMARK    3  A    between atoms: C_3  and  C_4
REMARK    4  A    between atoms: C_7  and  C_8
REMARK    5  A    between atoms: C_12  and  C_14
REMARK    6  A    between atoms: C_14  and  N_15
REMARK    7  A    between atoms: C_16  and  C_18
REMARK    8  A    between atoms: N_26  and  C_27
REMARK    9  A    between atoms: C_27  and  C_28
REMARK                            x       y       z     vdW  Elec       q    Type
REMARK                         _______ _______ _______ _____ _____    ______ ____
ROOT
ATOM      1  N   UNL     1       1.792   7.986  20.745  0.00  0.00    +0.000 N 
ATOM      2  C   UNL     1       2.262   7.524  19.539  0.00  0.00    +0.000 C 
ATOM      3  O   UNL     1       2.600   8.302  18.648  0.00  0.00    +0.000 OA
ATOM      4  H   UNL     1       1.522   7.293  21.440  0.00  0.00    +0.000 HD
ENDROOT
BRANCH   2   5
ATOM      5  C   UNL     1       2.325   6.072  19.419  0.00  0.00    +0.000 A 
ATOM      6  N   UNL     1       1.245   5.302  19.431  0.00  0.00    +0.000 NA
ATOM      7  C   UNL     1       1.697   4.016  19.254  0.00  0.00    +0.000 A 
ATOM      8  C   UNL     1       0.970   2.819  19.144  0.00  0.00    +0.000 A 
ATOM      9  C   UNL     1       1.663   1.615  18.960  0.00  0.00    +0.000 A 
ATOM     10  C   UNL     1       3.057   1.597  18.914  0.00  0.00    +0.000 A 
ATOM     11  C   UNL     1       3.798   2.779  19.024  0.00  0.00    +0.000 A 
ATOM     12  C   UNL     1       3.086   3.979  19.172  0.00  0.00    +0.000 A 
ATOM     13  N   UNL     1       3.466   5.305  19.258  0.00  0.00    +0.000 N 
BRANCH  13  14
ATOM     14  C   UNL     1       4.832   5.805  19.122  0.00  0.00    +0.000 C 
BRANCH  14  15
ATOM     15  C   UNL     1       5.414   5.483  17.766  0.00  0.00    +0.000 A 
ATOM     16  C   UNL     1       6.578   4.711  17.650  0.00  0.00    +0.000 A 
ATOM     17  C   UNL     1       7.186   4.520  16.409  0.00  0.00    +0.000 A 
ATOM     18  C   UNL     1       6.619   5.071  15.263  0.00  0.00    +0.000 A 
ATOM     19  C   UNL     1       5.421   5.776  15.353  0.00  0.00    +0.000 A 
ATOM     20  C   UNL     1       4.819   5.975  16.596  0.00  0.00    +0.000 A 
ENDBRANCH  14  15
ENDBRANCH  13  14
ENDBRANCH   2   5
BRANCH   1  21
ATOM     21  C   UNL     1       1.662   9.402  21.040  0.00  0.00    +0.000 C 
BRANCH  21  24
ATOM     22  C   UNL     1      -1.363  10.952  22.819  0.00  0.00    +0.000 C 
ATOM     23  N   UNL     1      -0.344  10.718  21.809  0.00  0.00    +0.000 N 
ATOM     24  C   UNL     1       0.527   9.656  22.032  0.00  0.00    +0.000 C 
ATOM     25  O   UNL     1       0.441   8.958  23.049  0.00  0.00    +0.000 OA
BRANCH  23  26
ATOM     26  C   UNL     1      -0.218  11.697  20.726  0.00  0.00    +0.000 C 
BRANCH  26  27
ATOM     27  C   UNL     1      -0.989  11.342  19.468  0.00  0.00    +0.000 A 
ATOM     28  C   UNL     1      -2.177  11.992  19.107  0.00  0.00    +0.000 A 
ATOM     29  C   UNL     1      -2.870  11.630  17.943  0.00  0.00    +0.000 A 
ATOM     30  C   UNL     1      -2.374  10.625  17.108  0.00  0.00    +0.000 A 
ATOM     31  C   UNL     1      -1.167  10.003  17.431  0.00  0.00    +0.000 A 
ATOM     32  C   UNL     1      -0.480  10.363  18.598  0.00  0.00    +0.000 A 
BRANCH  30  33
ATOM     33  C   UNL     1      -3.106  10.233  15.935  0.00  0.00    +0.000 C 
ATOM     34  N   UNL     1      -3.702   9.919  14.994  0.00  0.00    +0.000 NA
ENDBRANCH  30  33
ENDBRANCH  26  27
ENDBRANCH  23  26
ENDBRANCH  21  24
ENDBRANCH   1  21
TORSDOF 8
ENDMDL
