MODEL 1
REMARK VINA RESULT:      -5.8      0.000      0.000
REMARK  Name = 
REMARK  2 active torsions:
REMARK  status: ('A' for Active; 'I' for Inactive)
REMARK    1  A    between atoms: C_2  and  C_3
REMARK    2  A    between atoms: C_6  and  N_7
REMARK                            x       y       z     vdW  Elec       q    Type
REMARK                         _______ _______ _______ _____ _____    ______ ____
ROOT
ATOM      1  C   UNL     1       2.253   3.724  19.516  0.00  0.00    +0.000 A 
ATOM      2  C   UNL     1       2.088   4.268  18.242  0.00  0.00    +0.000 A 
ATOM      3  C   UNL     1       3.197   4.450  17.410  0.00  0.00    +0.000 A 
ATOM      4  C   UNL     1       4.480   4.083  17.847  0.00  0.00    +0.000 A 
ATOM      5  C   UNL     1       4.631   3.524  19.127  0.00  0.00    +0.000 A 
ATOM      6  C   UNL     1       3.521   3.350  19.962  0.00  0.00    +0.000 A 
ENDROOT
BRANCH   4   7
ATOM      7  N   UNL     1       5.613   4.285  17.005  0.00  0.00    +0.000 N 
ATOM      8  C   UNL     1       5.642   4.302  15.626  0.00  0.00    +0.000 A 
ATOM      9  C   UNL     1       6.945   4.553  15.272  0.00  0.00    +0.000 A 
ATOM     10  N   UNL     1       7.732   4.680  16.378  0.00  0.00    +0.000 NA
ATOM     11  C   UNL     1       6.917   4.513  17.395  0.00  0.00    +0.000 A 
ENDBRANCH   4   7
BRANCH   1  13
ATOM     12  O   UNL     1       1.101   2.760  21.343  0.00  0.00    +0.000 OA
ATOM     13  C   UNL     1       1.087   3.544  20.403  0.00  0.00    +0.000 C 
ENDBRANCH   1  13
TORSDOF 2
ENDMDL
MODEL 2
REMARK VINA RESULT:      -5.8      1.307      1.914
REMARK  Name = 
REMARK  2 active torsions:
REMARK  status: ('A' for Active; 'I' for Inactive)
REMARK    1  A    between atoms: C_2  and  C_3
REMARK    2  A    between atoms: C_6  and  N_7
REMARK                            x       y       z     vdW  Elec       q    Type
REMARK                         _______ _______ _______ _____ _____    ______ ____
ROOT
ATOM      1  C   UNL     1       2.143   3.448  20.005  0.00  0.00    +0.000 A 
ATOM      2  C   UNL     1       3.497   3.120  19.931  0.00  0.00    +0.000 A 
ATOM      3  C   UNL     1       4.283   3.627  18.891  0.00  0.00    +0.000 A 
ATOM      4  C   UNL     1       3.719   4.472  17.922  0.00  0.00    +0.000 A 
ATOM      5  C   UNL     1       2.358   4.806  18.017  0.00  0.00    +0.000 A 
ATOM      6  C   UNL     1       1.570   4.291  19.053  0.00  0.00    +0.000 A 
ENDROOT
BRANCH   4   7
ATOM      7  N   UNL     1       4.517   4.975  16.853  0.00  0.00    +0.000 N 
ATOM      8  C   UNL     1       5.161   4.249  15.872  0.00  0.00    +0.000 A 
ATOM      9  C   UNL     1       5.778   5.166  15.058  0.00  0.00    +0.000 A 
ATOM     10  N   UNL     1       5.555   6.436  15.500  0.00  0.00    +0.000 NA
ATOM     11  C   UNL     1       4.805   6.295  16.570  0.00  0.00    +0.000 A 
ENDBRANCH   4   7
BRANCH   1  13
ATOM     12  O   UNL     1       1.794   2.427  22.110  0.00  0.00    +0.000 OA
ATOM     13  C   UNL     1       1.306   2.903  21.093  0.00  0.00    +0.000 C 
ENDBRANCH   1  13
TORSDOF 2
ENDMDL
MODEL 3
REMARK VINA RESULT:      -5.8      3.309      5.692
REMARK  Name = 
REMARK  2 active torsions:
REMARK  status: ('A' for Active; 'I' for Inactive)
REMARK    1  A    between atoms: C_2  and  C_3
REMARK    2  A    between atoms: C_6  and  N_7
REMARK                            x       y       z     vdW  Elec       q    Type
REMARK                         _______ _______ _______ _____ _____    ______ ____
ROOT
ATOM      1  C   UNL     1       5.992   4.482  16.806  0.00  0.00    +0.000 A 
ATOM      2  C   UNL     1       6.218   4.597  18.178  0.00  0.00    +0.000 A 
ATOM      3  C   UNL     1       5.187   4.319  19.082  0.00  0.00    +0.000 A 
ATOM      4  C   UNL     1       3.924   3.919  18.617  0.00  0.00    +0.000 A 
ATOM      5  C   UNL     1       3.714   3.794  17.233  0.00  0.00    +0.000 A 
ATOM      6  C   UNL     1       4.745   4.080  16.330  0.00  0.00    +0.000 A 
ENDROOT
BRANCH   4   7
ATOM      7  N   UNL     1       2.869   3.653  19.537  0.00  0.00    +0.000 N 
ATOM      8  C   UNL     1       2.917   2.857  20.664  0.00  0.00    +0.000 A 
ATOM      9  C   UNL     1       1.672   2.927  21.238  0.00  0.00    +0.000 A 
ATOM     10  N   UNL     1       0.844   3.726  20.506  0.00  0.00    +0.000 NA
ATOM     11  C   UNL     1       1.579   4.143  19.499  0.00  0.00    +0.000 A 
ENDBRANCH   4   7
BRANCH   1  13
ATOM     12  O   UNL     1       7.531   5.918  15.726  0.00  0.00    +0.000 OA
ATOM     13  C   UNL     1       7.073   4.789  15.849  0.00  0.00    +0.000 C 
ENDBRANCH   1  13
TORSDOF 2
ENDMDL
MODEL 4
REMARK VINA RESULT:      -5.8      1.357      1.466
REMARK  Name = 
REMARK  2 active torsions:
REMARK  status: ('A' for Active; 'I' for Inactive)
REMARK    1  A    between atoms: C_2  and  C_3
REMARK    2  A    between atoms: C_6  and  N_7
REMARK                            x       y       z     vdW  Elec       q    Type
REMARK                         _______ _______ _______ _____ _____    ______ ____
ROOT
ATOM      1  C   UNL     1       2.020   3.487  19.983  0.00  0.00    +0.000 A 
ATOM      2  C   UNL     1       1.451   3.799  18.748  0.00  0.00    +0.000 A 
ATOM      3  C   UNL     1       2.250   4.312  17.720  0.00  0.00    +0.000 A 
ATOM      4  C   UNL     1       3.625   4.509  17.921  0.00  0.00    +0.000 A 
ATOM      5  C   UNL     1       4.187   4.178  19.165  0.00  0.00    +0.000 A 
ATOM      6  C   UNL     1       3.385   3.672  20.196  0.00  0.00    +0.000 A 
ENDROOT
BRANCH   4   7
ATOM      7  N   UNL     1       4.435   5.048  16.880  0.00  0.00    +0.000 N 
ATOM      8  C   UNL     1       5.062   4.359  15.861  0.00  0.00    +0.000 A 
ATOM      9  C   UNL     1       5.702   5.303  15.096  0.00  0.00    +0.000 A 
ATOM     10  N   UNL     1       5.509   6.553  15.605  0.00  0.00    +0.000 NA
ATOM     11  C   UNL     1       4.755   6.374  16.666  0.00  0.00    +0.000 A 
ENDBRANCH   4   7
BRANCH   1  13
ATOM     12  O   UNL     1       1.660   2.503  22.104  0.00  0.00    +0.000 OA
ATOM     13  C   UNL     1       1.178   2.959  21.075  0.00  0.00    +0.000 C 
ENDBRANCH   1  13
TORSDOF 2
ENDMDL
MODEL 5
REMARK VINA RESULT:      -5.8      0.962      1.357
REMARK  Name = 
REMARK  2 active torsions:
REMARK  status: ('A' for Active; 'I' for Inactive)
REMARK    1  A    between atoms: C_2  and  C_3
REMARK    2  A    between atoms: C_6  and  N_7
REMARK                            x       y       z     vdW  Elec       q    Type
REMARK                         _______ _______ _______ _____ _____    ______ ____
ROOT
ATOM      1  C   UNL     1       2.033   3.546  18.794  0.00  0.00    +0.000 A 
ATOM      2  C   UNL     1       2.871   2.498  18.408  0.00  0.00    +0.000 A 
ATOM      3  C   UNL     1       3.993   2.758  17.614  0.00  0.00    +0.000 A 
ATOM      4  C   UNL     1       4.287   4.068  17.207  0.00  0.00    +0.000 A 
ATOM      5  C   UNL     1       3.443   5.115  17.614  0.00  0.00    +0.000 A 
ATOM      6  C   UNL     1       2.315   4.853  18.402  0.00  0.00    +0.000 A 
ENDROOT
BRANCH   4   7
ATOM      7  N   UNL     1       5.421   4.330  16.384  0.00  0.00    +0.000 N 
ATOM      8  C   UNL     1       5.458   4.411  15.007  0.00  0.00    +0.000 A 
ATOM      9  C   UNL     1       6.759   4.702  14.674  0.00  0.00    +0.000 A 
ATOM     10  N   UNL     1       7.536   4.793  15.790  0.00  0.00    +0.000 NA
ATOM     11  C   UNL     1       6.718   4.565  16.793  0.00  0.00    +0.000 A 
ENDBRANCH   4   7
BRANCH   1  13
ATOM     12  O   UNL     1       0.925   2.926  20.790  0.00  0.00    +0.000 OA
ATOM     13  C   UNL     1       0.839   3.274  19.619  0.00  0.00    +0.000 C 
ENDBRANCH   1  13
TORSDOF 2
ENDMDL
MODEL 6
REMARK VINA RESULT:      -5.7      0.989      1.349
REMARK  Name = 
REMARK  2 active torsions:
REMARK  status: ('A' for Active; 'I' for Inactive)
REMARK    1  A    between atoms: C_2  and  C_3
REMARK    2  A    between atoms: C_6  and  N_7
REMARK                            x       y       z     vdW  Elec       q    Type
REMARK                         _______ _______ _______ _____ _____    ______ ____
ROOT
ATOM      1  C   UNL     1       2.135   4.096  19.233  0.00  0.00    +0.000 A 
ATOM      2  C   UNL     1       3.141   4.979  19.629  0.00  0.00    +0.000 A 
ATOM      3  C   UNL     1       4.237   5.210  18.791  0.00  0.00    +0.000 A 
ATOM      4  C   UNL     1       4.331   4.562  17.549  0.00  0.00    +0.000 A 
ATOM      5  C   UNL     1       3.305   3.686  17.157  0.00  0.00    +0.000 A 
ATOM      6  C   UNL     1       2.212   3.450  18.000  0.00  0.00    +0.000 A 
ENDROOT
BRANCH   4   7
ATOM      7  N   UNL     1       5.457   4.785  16.704  0.00  0.00    +0.000 N 
ATOM      8  C   UNL     1       5.841   4.044  15.605  0.00  0.00    +0.000 A 
ATOM      9  C   UNL     1       6.966   4.654  15.105  0.00  0.00    +0.000 A 
ATOM     10  N   UNL     1       7.305   5.739  15.857  0.00  0.00    +0.000 NA
ATOM     11  C   UNL     1       6.394   5.794  16.803  0.00  0.00    +0.000 A 
ENDBRANCH   4   7
BRANCH   1  13
ATOM     12  O   UNL     1       1.086   3.163  21.137  0.00  0.00    +0.000 OA
ATOM     13  C   UNL     1       0.984   3.838  20.120  0.00  0.00    +0.000 C 
ENDBRANCH   1  13
TORSDOF 2
ENDMDL
MODEL 7
REMARK VINA RESULT:      -5.7      3.339      5.550
REMARK  Name = 
REMARK  2 active torsions:
REMARK  status: ('A' for Active; 'I' for Inactive)
REMARK    1  A    between atoms: C_2  and  C_3
REMARK    2  A    between atoms: C_6  and  N_7
REMARK                            x       y       z     vdW  Elec       q    Type
REMARK                         _______ _______ _______ _____ _____    ______ ____
ROOT
ATOM      1  C   UNL     1       6.053   4.493  16.666  0.00  0.00    +0.000 A 
ATOM      2  C   UNL     1       4.803   3.951  16.363  0.00  0.00    +0.000 A 
ATOM      3  C   UNL     1       3.883   3.700  17.387  0.00  0.00    +0.000 A 
ATOM      4  C   UNL     1       4.208   3.997  18.721  0.00  0.00    +0.000 A 
ATOM      5  C   UNL     1       5.464   4.554  19.010  0.00  0.00    +0.000 A 
ATOM      6  C   UNL     1       6.387   4.797  17.985  0.00  0.00    +0.000 A 
ENDROOT
BRANCH   4   7
ATOM      7  N   UNL     1       3.277   3.725  19.766  0.00  0.00    +0.000 N 
ATOM      8  C   UNL     1       3.278   2.651  20.633  0.00  0.00    +0.000 A 
ATOM      9  C   UNL     1       2.207   2.835  21.473  0.00  0.00    +0.000 A 
ATOM     10  N   UNL     1       1.530   3.975  21.155  0.00  0.00    +0.000 NA
ATOM     11  C   UNL     1       2.185   4.484  20.135  0.00  0.00    +0.000 A 
ENDBRANCH   4   7
BRANCH   1  13
ATOM     12  O   UNL     1       7.647   5.800  15.507  0.00  0.00    +0.000 OA
ATOM     13  C   UNL     1       7.031   4.745  15.590  0.00  0.00    +0.000 C 
ENDBRANCH   1  13
TORSDOF 2
ENDMDL
MODEL 8
REMARK VINA RESULT:      -5.7      3.318      5.497
REMARK  Name = 
REMARK  2 active torsions:
REMARK  status: ('A' for Active; 'I' for Inactive)
REMARK    1  A    between atoms: C_2  and  C_3
REMARK    2  A    between atoms: C_6  and  N_7
REMARK                            x       y       z     vdW  Elec       q    Type
REMARK                         _______ _______ _______ _____ _____    ______ ____
ROOT
ATOM      1  C   UNL     1       5.838   4.495  16.767  0.00  0.00    +0.000 A 
ATOM      2  C   UNL     1       4.604   3.922  16.458  0.00  0.00    +0.000 A 
ATOM      3  C   UNL     1       3.701   3.613  17.481  0.00  0.00    +0.000 A 
ATOM      4  C   UNL     1       4.027   3.881  18.820  0.00  0.00    +0.000 A 
ATOM      5  C   UNL     1       5.267   4.471  19.116  0.00  0.00    +0.000 A 
ATOM      6  C   UNL     1       6.173   4.773  18.092  0.00  0.00    +0.000 A 
ENDROOT
BRANCH   4   7
ATOM      7  N   UNL     1       3.113   3.549  19.863  0.00  0.00    +0.000 N 
ATOM      8  C   UNL     1       1.834   4.033  20.045  0.00  0.00    +0.000 A 
ATOM      9  C   UNL     1       1.342   3.409  21.165  0.00  0.00    +0.000 A 
ATOM     10  N   UNL     1       2.271   2.564  21.696  0.00  0.00    +0.000 NA
ATOM     11  C   UNL     1       3.315   2.668  20.906  0.00  0.00    +0.000 A 
ENDBRANCH   4   7
BRANCH   1  13
ATOM     12  O   UNL     1       7.553   5.774  15.756  0.00  0.00    +0.000 OA
ATOM     13  C   UNL     1       6.800   4.810  15.692  0.00  0.00    +0.000 C 
ENDBRANCH   1  13
TORSDOF 2
ENDMDL
MODEL 9
REMARK VINA RESULT:      -5.7      3.334      5.626
REMARK  Name = 
REMARK  2 active torsions:
REMARK  status: ('A' for Active; 'I' for Inactive)
REMARK    1  A    between atoms: C_2  and  C_3
REMARK    2  A    between atoms: C_6  and  N_7
REMARK                            x       y       z     vdW  Elec       q    Type
REMARK                         _______ _______ _______ _____ _____    ______ ____
ROOT
ATOM      1  C   UNL     1       6.044   4.440  16.561  0.00  0.00    +0.000 A 
ATOM      2  C   UNL     1       6.479   4.764  17.847  0.00  0.00    +0.000 A 
ATOM      3  C   UNL     1       5.650   4.520  18.947  0.00  0.00    +0.000 A 
ATOM      4  C   UNL     1       4.382   3.946  18.767  0.00  0.00    +0.000 A 
ATOM      5  C   UNL     1       3.961   3.613  17.468  0.00  0.00    +0.000 A 
ATOM      6  C   UNL     1       4.789   3.864  16.367  0.00  0.00    +0.000 A 
ENDROOT
BRANCH   4   7
ATOM      7  N   UNL     1       3.530   3.714  19.887  0.00  0.00    +0.000 N 
ATOM      8  C   UNL     1       2.598   4.577  20.426  0.00  0.00    +0.000 A 
ATOM      9  C   UNL     1       2.012   3.906  21.471  0.00  0.00    +0.000 A 
ATOM     10  N   UNL     1       2.552   2.662  21.612  0.00  0.00    +0.000 NA
ATOM     11  C   UNL     1       3.454   2.574  20.660  0.00  0.00    +0.000 A 
ENDBRANCH   4   7
BRANCH   1  13
ATOM     12  O   UNL     1       7.630   5.698  15.338  0.00  0.00    +0.000 OA
ATOM     13  C   UNL     1       6.910   4.709  15.396  0.00  0.00    +0.000 C 
ENDBRANCH   1  13
TORSDOF 2
ENDMDL
