MODEL 1
REMARK VINA RESULT:      -9.7      0.000      0.000
REMARK  Name = 
REMARK  7 active torsions:
REMARK  status: ('A' for Active; 'I' for Inactive)
REMARK    1  A    between atoms: C_1  and  C_2
REMARK    2  A    between atoms: C_7  and  C_8
REMARK    3  A    between atoms: C_18  and  C_19
REMARK    4  A    between atoms: C_19  and  O_20
REMARK    5  A    between atoms: C_25  and  C_27
REMARK    6  A    between atoms: C_30  and  O_31
REMARK    7  A    between atoms: C_33  and  O_34
REMARK                            x       y       z     vdW  Elec       q    Type
REMARK                         _______ _______ _______ _____ _____    ______ ____
ROOT
ATOM      1  C   UNL     1      -2.543  13.415  20.328  0.00  0.00    +0.000 C 
ATOM      2  C   UNL     1      -1.964  12.002  20.126  0.00  0.00    +0.000 C 
ATOM      3  C   UNL     1      -1.283  12.117  18.755  0.00  0.00    +0.000 C 
ATOM      4  C   UNL     1      -0.882  10.774  18.240  0.00  0.00    +0.000 C 
ATOM      5  C   UNL     1      -0.040  10.078  19.255  0.00  0.00    +0.000 A 
ATOM      6  C   UNL     1       0.848   9.112  18.727  0.00  0.00    +0.000 A 
ATOM      7  C   UNL     1       1.572   8.231  19.525  0.00  0.00    +0.000 A 
ATOM      8  C   UNL     1       1.468   8.452  20.898  0.00  0.00    +0.000 A 
ATOM      9  C   UNL     1       0.646   9.469  21.434  0.00  0.00    +0.000 A 
ATOM     10  C   UNL     1      -0.158  10.305  20.640  0.00  0.00    +0.000 A 
ATOM     11  N   UNL     1      -1.054  11.371  21.179  0.00  0.00    +0.000 N 
ATOM     12  C   UNL     1      -1.137  11.541  22.609  0.00  0.00    +0.000 C 
ATOM     13  O   UNL     1      -0.560  10.833  23.445  0.00  0.00    +0.000 OA
ENDROOT
BRANCH   7  14
ATOM     14  C   UNL     1       2.395   7.125  18.973  0.00  0.00    +0.000 A 
ATOM     15  N   UNL     1       3.169   7.506  17.915  0.00  0.00    +0.000 NA
ATOM     16  C   UNL     1       3.978   6.616  17.320  0.00  0.00    +0.000 A 
ATOM     17  C   UNL     1       4.779   7.013  16.255  0.00  0.00    +0.000 A 
ATOM     18  C   UNL     1       5.636   6.119  15.603  0.00  0.00    +0.000 A 
ATOM     19  C   UNL     1       5.687   4.794  16.018  0.00  0.00    +0.000 A 
ATOM     20 CL   UNL     1       6.724   3.678  15.223  0.00  0.00    +0.000 Cl
ATOM     21  C   UNL     1       4.903   4.369  17.087  0.00  0.00    +0.000 A 
ATOM     22  C   UNL     1       4.053   5.280  17.738  0.00  0.00    +0.000 A 
ATOM     23  C   UNL     1       3.264   4.894  18.821  0.00  0.00    +0.000 A 
ATOM     24  C   UNL     1       2.433   5.814  19.479  0.00  0.00    +0.000 A 
BRANCH  24  25
ATOM     25  C   UNL     1       1.614   5.351  20.657  0.00  0.00    +0.000 C 
BRANCH  25  26
ATOM     26  O   UNL     1       0.981   4.097  20.415  0.00  0.00    +0.000 OA
ATOM     27  H   UNL     1       0.383   4.222  19.661  0.00  0.00    +0.000 HD
ENDBRANCH  25  26
ENDBRANCH  24  25
ENDBRANCH   7  14
BRANCH  12  28
ATOM     28  C   UNL     1      -1.942  12.596  23.271  0.00  0.00    +0.000 A 
ATOM     29  C   UNL     1      -3.178  12.274  23.837  0.00  0.00    +0.000 A 
ATOM     30  C   UNL     1      -4.015  13.282  24.323  0.00  0.00    +0.000 A 
ATOM     31  C   UNL     1      -3.536  14.581  24.420  0.00  0.00    +0.000 A 
ATOM     32  C   UNL     1      -2.222  14.878  24.085  0.00  0.00    +0.000 A 
ATOM     33  C   UNL     1      -1.429  13.892  23.499  0.00  0.00    +0.000 A 
BRANCH  31  34
ATOM     34  O   UNL     1      -4.329  15.602  24.848  0.00  0.00    +0.000 OA
ATOM     35  H   UNL     1      -5.189  15.538  24.398  0.00  0.00    +0.000 HD
ENDBRANCH  31  34
BRANCH  33  36
ATOM     36  O   UNL     1      -0.153  14.238  23.153  0.00  0.00    +0.000 OA
ATOM     37  H   UNL     1      -0.023  15.186  23.348  0.00  0.00    +0.000 HD
ENDBRANCH  33  36
ENDBRANCH  12  28
TORSDOF 6
ENDMDL
MODEL 2
REMARK VINA RESULT:      -9.0      0.691      1.170
REMARK  Name = 
REMARK  7 active torsions:
REMARK  status: ('A' for Active; 'I' for Inactive)
REMARK    1  A    between atoms: C_1  and  C_2
REMARK    2  A    between atoms: C_7  and  C_8
REMARK    3  A    between atoms: C_18  and  C_19
REMARK    4  A    between atoms: C_19  and  O_20
REMARK    5  A    between atoms: C_25  and  C_27
REMARK    6  A    between atoms: C_30  and  O_31
REMARK    7  A    between atoms: C_33  and  O_34
REMARK                            x       y       z     vdW  Elec       q    Type
REMARK                         _______ _______ _______ _____ _____    ______ ____
ROOT
ATOM      1  C   UNL     1      -2.320  13.760  20.349  0.00  0.00    +0.000 C 
ATOM      2  C   UNL     1      -1.805  12.322  20.154  0.00  0.00    +0.000 C 
ATOM      3  C   UNL     1      -1.124  12.397  18.780  0.00  0.00    +0.000 C 
ATOM      4  C   UNL     1      -0.785  11.035  18.273  0.00  0.00    +0.000 C 
ATOM      5  C   UNL     1       0.029  10.308  19.290  0.00  0.00    +0.000 A 
ATOM      6  C   UNL     1       0.871   9.301  18.765  0.00  0.00    +0.000 A 
ATOM      7  C   UNL     1       1.559   8.393  19.568  0.00  0.00    +0.000 A 
ATOM      8  C   UNL     1       1.469   8.628  20.939  0.00  0.00    +0.000 A 
ATOM      9  C   UNL     1       0.695   9.683  21.471  0.00  0.00    +0.000 A 
ATOM     10  C   UNL     1      -0.074  10.550  20.674  0.00  0.00    +0.000 A 
ATOM     11  N   UNL     1      -0.920  11.658  21.209  0.00  0.00    +0.000 N 
ATOM     12  C   UNL     1      -0.990  11.840  22.638  0.00  0.00    +0.000 C 
ATOM     13  O   UNL     1      -0.443  11.113  23.477  0.00  0.00    +0.000 OA
ENDROOT
BRANCH   7  14
ATOM     14  C   UNL     1       2.330   7.248  19.021  0.00  0.00    +0.000 A 
ATOM     15  N   UNL     1       3.100   7.583  17.944  0.00  0.00    +0.000 NA
ATOM     16  C   UNL     1       3.865   6.654  17.351  0.00  0.00    +0.000 A 
ATOM     17  C   UNL     1       4.663   7.004  16.267  0.00  0.00    +0.000 A 
ATOM     18  C   UNL     1       5.474   6.068  15.616  0.00  0.00    +0.000 A 
ATOM     19  C   UNL     1       5.481   4.748  16.051  0.00  0.00    +0.000 A 
ATOM     20 CL   UNL     1       6.462   3.581  15.257  0.00  0.00    +0.000 Cl
ATOM     21  C   UNL     1       4.700   4.370  17.139  0.00  0.00    +0.000 A 
ATOM     22  C   UNL     1       3.896   5.322  17.788  0.00  0.00    +0.000 A 
ATOM     23  C   UNL     1       3.110   4.983  18.890  0.00  0.00    +0.000 A 
ATOM     24  C   UNL     1       2.326   5.944  19.547  0.00  0.00    +0.000 A 
BRANCH  24  25
ATOM     25  C   UNL     1       1.509   5.532  20.744  0.00  0.00    +0.000 C 
BRANCH  25  26
ATOM     26  O   UNL     1       0.886   4.263  20.561  0.00  0.00    +0.000 OA
ATOM     27  H   UNL     1       0.018   4.307  20.992  0.00  0.00    +0.000 HD
ENDBRANCH  25  26
ENDBRANCH  24  25
ENDBRANCH   7  14
BRANCH  12  28
ATOM     28  C   UNL     1      -1.746  12.935  23.295  0.00  0.00    +0.000 A 
ATOM     29  C   UNL     1      -1.108  14.145  23.579  0.00  0.00    +0.000 A 
ATOM     30  C   UNL     1      -1.759  15.124  24.335  0.00  0.00    +0.000 A 
ATOM     31  C   UNL     1      -3.106  14.973  24.635  0.00  0.00    +0.000 A 
ATOM     32  C   UNL     1      -3.821  13.885  24.153  0.00  0.00    +0.000 A 
ATOM     33  C   UNL     1      -3.141  12.861  23.495  0.00  0.00    +0.000 A 
BRANCH  31  34
ATOM     34  O   UNL     1      -3.770  15.880  25.404  0.00  0.00    +0.000 OA
ATOM     35  H   UNL     1      -3.401  15.856  26.303  0.00  0.00    +0.000 HD
ENDBRANCH  31  34
BRANCH  33  36
ATOM     36  O   UNL     1      -3.879  11.792  23.068  0.00  0.00    +0.000 OA
ATOM     37  H   UNL     1      -3.273  11.122  22.698  0.00  0.00    +0.000 HD
ENDBRANCH  33  36
ENDBRANCH  12  28
TORSDOF 6
ENDMDL
MODEL 3
REMARK VINA RESULT:      -8.7      3.971     10.419
REMARK  Name = 
REMARK  7 active torsions:
REMARK  status: ('A' for Active; 'I' for Inactive)
REMARK    1  A    between atoms: C_1  and  C_2
REMARK    2  A    between atoms: C_7  and  C_8
REMARK    3  A    between atoms: C_18  and  C_19
REMARK    4  A    between atoms: C_19  and  O_20
REMARK    5  A    between atoms: C_25  and  C_27
REMARK    6  A    between atoms: C_30  and  O_31
REMARK    7  A    between atoms: C_33  and  O_34
REMARK                            x       y       z     vdW  Elec       q    Type
REMARK                         _______ _______ _______ _____ _____    ______ ____
ROOT
ATOM      1  C   UNL     1       3.310   5.843  17.299  0.00  0.00    +0.000 C 
ATOM      2  C   UNL     1       3.022   6.990  18.284  0.00  0.00    +0.000 C 
ATOM      3  C   UNL     1       2.417   8.067  17.372  0.00  0.00    +0.000 C 
ATOM      4  C   UNL     1       2.310   9.375  18.082  0.00  0.00    +0.000 C 
ATOM      5  C   UNL     1       1.554   9.196  19.355  0.00  0.00    +0.000 A 
ATOM      6  C   UNL     1       0.899  10.358  19.825  0.00  0.00    +0.000 A 
ATOM      7  C   UNL     1       0.306  10.439  21.082  0.00  0.00    +0.000 A 
ATOM      8  C   UNL     1       0.282   9.246  21.804  0.00  0.00    +0.000 A 
ATOM      9  C   UNL     1       0.862   8.057  21.308  0.00  0.00    +0.000 A 
ATOM     10  C   UNL     1       1.541   7.988  20.079  0.00  0.00    +0.000 A 
ATOM     11  N   UNL     1       2.184   6.752  19.541  0.00  0.00    +0.000 N 
ATOM     12  C   UNL     1       2.144   5.552  20.340  0.00  0.00    +0.000 C 
ATOM     13  O   UNL     1       1.662   5.470  21.477  0.00  0.00    +0.000 OA
ENDROOT
BRANCH   7  14
ATOM     14  C   UNL     1      -0.257  11.696  21.634  0.00  0.00    +0.000 A 
ATOM     15  N   UNL     1      -1.393  11.502  22.366  0.00  0.00    +0.000 NA
ATOM     16  C   UNL     1      -2.008  12.547  22.941  0.00  0.00    +0.000 A 
ATOM     17  C   UNL     1      -3.154  12.342  23.702  0.00  0.00    +0.000 A 
ATOM     18  C   UNL     1      -3.830  13.402  24.318  0.00  0.00    +0.000 A 
ATOM     19  C   UNL     1      -3.356  14.699  24.161  0.00  0.00    +0.000 A 
ATOM     20 CL   UNL     1      -4.179  16.015  24.899  0.00  0.00    +0.000 Cl
ATOM     21  C   UNL     1      -2.207  14.934  23.413  0.00  0.00    +0.000 A 
ATOM     22  C   UNL     1      -1.534  13.859  22.807  0.00  0.00    +0.000 A 
ATOM     23  C   UNL     1      -0.372  14.055  22.061  0.00  0.00    +0.000 A 
ATOM     24  C   UNL     1       0.308  12.974  21.476  0.00  0.00    +0.000 A 
BRANCH  24  25
ATOM     25  C   UNL     1       1.570  13.237  20.695  0.00  0.00    +0.000 C 
BRANCH  25  26
ATOM     26  O   UNL     1       2.704  13.405  21.542  0.00  0.00    +0.000 OA
ATOM     27  H   UNL     1       3.217  14.148  21.186  0.00  0.00    +0.000 HD
ENDBRANCH  25  26
ENDBRANCH  24  25
ENDBRANCH   7  14
BRANCH  12  28
ATOM     28  C   UNL     1       2.693   4.247  19.899  0.00  0.00    +0.000 A 
ATOM     29  C   UNL     1       4.075   4.040  19.896  0.00  0.00    +0.000 A 
ATOM     30  C   UNL     1       4.612   2.877  19.338  0.00  0.00    +0.000 A 
ATOM     31  C   UNL     1       3.765   1.843  18.965  0.00  0.00    +0.000 A 
ATOM     32  C   UNL     1       2.397   1.934  19.185  0.00  0.00    +0.000 A 
ATOM     33  C   UNL     1       1.859   3.138  19.639  0.00  0.00    +0.000 A 
BRANCH  31  34
ATOM     34  O   UNL     1       4.241   0.709  18.379  0.00  0.00    +0.000 OA
ATOM     35  H   UNL     1       4.251   0.838  17.415  0.00  0.00    +0.000 HD
ENDBRANCH  31  34
BRANCH  33  36
ATOM     36  O   UNL     1       0.504   3.194  19.807  0.00  0.00    +0.000 OA
ATOM     37  H   UNL     1       0.075   3.026  18.945  0.00  0.00    +0.000 HD
ENDBRANCH  33  36
ENDBRANCH  12  28
TORSDOF 6
ENDMDL
MODEL 4
REMARK VINA RESULT:      -8.6      1.632      2.655
REMARK  Name = 
REMARK  7 active torsions:
REMARK  status: ('A' for Active; 'I' for Inactive)
REMARK    1  A    between atoms: C_1  and  C_2
REMARK    2  A    between atoms: C_7  and  C_8
REMARK    3  A    between atoms: C_18  and  C_19
REMARK    4  A    between atoms: C_19  and  O_20
REMARK    5  A    between atoms: C_25  and  C_27
REMARK    6  A    between atoms: C_30  and  O_31
REMARK    7  A    between atoms: C_33  and  O_34
REMARK                            x       y       z     vdW  Elec       q    Type
REMARK                         _______ _______ _______ _____ _____    ______ ____
ROOT
ATOM      1  C   UNL     1      -1.989  12.278  23.409  0.00  0.00    +0.000 C 
ATOM      2  C   UNL     1      -0.847  11.582  22.646  0.00  0.00    +0.000 C 
ATOM      3  C   UNL     1      -0.828  10.184  23.281  0.00  0.00    +0.000 C 
ATOM      4  C   UNL     1       0.389   9.423  22.871  0.00  0.00    +0.000 C 
ATOM      5  C   UNL     1       0.484   9.391  21.383  0.00  0.00    +0.000 A 
ATOM      6  C   UNL     1       1.200   8.291  20.858  0.00  0.00    +0.000 A 
ATOM      7  C   UNL     1       1.557   8.188  19.516  0.00  0.00    +0.000 A 
ATOM      8  C   UNL     1       1.042   9.185  18.688  0.00  0.00    +0.000 A 
ATOM      9  C   UNL     1       0.255  10.246  19.190  0.00  0.00    +0.000 A 
ATOM     10  C   UNL     1      -0.036  10.407  20.556  0.00  0.00    +0.000 A 
ATOM     11  N   UNL     1      -0.844  11.530  21.118  0.00  0.00    +0.000 N 
ATOM     12  C   UNL     1      -1.334  12.542  20.216  0.00  0.00    +0.000 C 
ATOM     13  O   UNL     1      -1.095  12.591  19.003  0.00  0.00    +0.000 OA
ENDROOT
BRANCH   7  14
ATOM     14  C   UNL     1       2.429   7.109  18.988  0.00  0.00    +0.000 A 
ATOM     15  N   UNL     1       3.158   7.490  17.898  0.00  0.00    +0.000 NA
ATOM     16  C   UNL     1       4.003   6.623  17.320  0.00  0.00    +0.000 A 
ATOM     17  C   UNL     1       4.759   7.021  16.223  0.00  0.00    +0.000 A 
ATOM     18  C   UNL     1       5.651   6.150  15.586  0.00  0.00    +0.000 A 
ATOM     19  C   UNL     1       5.784   4.847  16.050  0.00  0.00    +0.000 A 
ATOM     20 CL   UNL     1       6.865   3.759  15.274  0.00  0.00    +0.000 Cl
ATOM     21  C   UNL     1       5.047   4.423  17.152  0.00  0.00    +0.000 A 
ATOM     22  C   UNL     1       4.161   5.310  17.786  0.00  0.00    +0.000 A 
ATOM     23  C   UNL     1       3.417   4.924  18.901  0.00  0.00    +0.000 A 
ATOM     24  C   UNL     1       2.550   5.822  19.543  0.00  0.00    +0.000 A 
BRANCH  24  25
ATOM     25  C   UNL     1       1.782   5.362  20.755  0.00  0.00    +0.000 C 
BRANCH  25  26
ATOM     26  O   UNL     1       0.842   4.338  20.442  0.00  0.00    +0.000 OA
ATOM     27  H   UNL     1      -0.043   4.724  20.541  0.00  0.00    +0.000 HD
ENDBRANCH  25  26
ENDBRANCH  24  25
ENDBRANCH   7  14
BRANCH  12  28
ATOM     28  C   UNL     1      -2.193  13.676  20.636  0.00  0.00    +0.000 A 
ATOM     29  C   UNL     1      -1.612  14.903  20.963  0.00  0.00    +0.000 A 
ATOM     30  C   UNL     1      -2.390  15.929  21.508  0.00  0.00    +0.000 A 
ATOM     31  C   UNL     1      -3.771  15.796  21.540  0.00  0.00    +0.000 A 
ATOM     32  C   UNL     1      -4.388  14.677  20.996  0.00  0.00    +0.000 A 
ATOM     33  C   UNL     1      -3.602  13.613  20.555  0.00  0.00    +0.000 A 
BRANCH  31  34
ATOM     34  O   UNL     1      -4.566  16.750  22.100  0.00  0.00    +0.000 OA
ATOM     35  H   UNL     1      -4.260  16.917  23.007  0.00  0.00    +0.000 HD
ENDBRANCH  31  34
BRANCH  33  36
ATOM     36  O   UNL     1      -4.251  12.518  20.059  0.00  0.00    +0.000 OA
ATOM     37  H   UNL     1      -3.940  12.357  19.147  0.00  0.00    +0.000 HD
ENDBRANCH  33  36
ENDBRANCH  12  28
TORSDOF 6
ENDMDL
MODEL 5
REMARK VINA RESULT:      -8.4      1.473      2.420
REMARK  Name = 
REMARK  7 active torsions:
REMARK  status: ('A' for Active; 'I' for Inactive)
REMARK    1  A    between atoms: C_1  and  C_2
REMARK    2  A    between atoms: C_7  and  C_8
REMARK    3  A    between atoms: C_18  and  C_19
REMARK    4  A    between atoms: C_19  and  O_20
REMARK    5  A    between atoms: C_25  and  C_27
REMARK    6  A    between atoms: C_30  and  O_31
REMARK    7  A    between atoms: C_33  and  O_34
REMARK                            x       y       z     vdW  Elec       q    Type
REMARK                         _______ _______ _______ _____ _____    ______ ____
ROOT
ATOM      1  C   UNL     1      -2.062  12.213  23.356  0.00  0.00    +0.000 C 
ATOM      2  C   UNL     1      -0.903  11.529  22.605  0.00  0.00    +0.000 C 
ATOM      3  C   UNL     1      -0.863  10.138  23.253  0.00  0.00    +0.000 C 
ATOM      4  C   UNL     1       0.370   9.396  22.857  0.00  0.00    +0.000 C 
ATOM      5  C   UNL     1       0.472   9.351  21.370  0.00  0.00    +0.000 A 
ATOM      6  C   UNL     1       1.211   8.258  20.859  0.00  0.00    +0.000 A 
ATOM      7  C   UNL     1       1.576   8.149  19.519  0.00  0.00    +0.000 A 
ATOM      8  C   UNL     1       1.047   9.128  18.679  0.00  0.00    +0.000 A 
ATOM      9  C   UNL     1       0.239  10.179  19.168  0.00  0.00    +0.000 A 
ATOM     10  C   UNL     1      -0.061  10.349  20.531  0.00  0.00    +0.000 A 
ATOM     11  N   UNL     1      -0.892  11.462  21.078  0.00  0.00    +0.000 N 
ATOM     12  C   UNL     1      -1.396  12.457  20.163  0.00  0.00    +0.000 C 
ATOM     13  O   UNL     1      -1.152  12.499  18.951  0.00  0.00    +0.000 OA
ENDROOT
BRANCH   7  14
ATOM     14  C   UNL     1       2.469   7.080  19.006  0.00  0.00    +0.000 A 
ATOM     15  N   UNL     1       3.183   7.457  17.905  0.00  0.00    +0.000 NA
ATOM     16  C   UNL     1       4.045   6.599  17.338  0.00  0.00    +0.000 A 
ATOM     17  C   UNL     1       4.785   6.994  16.229  0.00  0.00    +0.000 A 
ATOM     18  C   UNL     1       5.693   6.133  15.603  0.00  0.00    +0.000 A 
ATOM     19  C   UNL     1       5.858   4.841  16.091  0.00  0.00    +0.000 A 
ATOM     20 CL   UNL     1       6.960   3.764  15.328  0.00  0.00    +0.000 Cl
ATOM     21  C   UNL     1       5.138   4.421  17.204  0.00  0.00    +0.000 A 
ATOM     22  C   UNL     1       4.236   5.299  17.827  0.00  0.00    +0.000 A 
ATOM     23  C   UNL     1       3.507   4.917  18.953  0.00  0.00    +0.000 A 
ATOM     24  C   UNL     1       2.623   5.807  19.584  0.00  0.00    +0.000 A 
BRANCH  24  25
ATOM     25  C   UNL     1       1.872   5.352  20.809  0.00  0.00    +0.000 C 
BRANCH  25  26
ATOM     26  O   UNL     1       0.821   4.444  20.492  0.00  0.00    +0.000 OA
ATOM     27  H   UNL     1       0.991   4.113  19.595  0.00  0.00    +0.000 HD
ENDBRANCH  25  26
ENDBRANCH  24  25
ENDBRANCH   7  14
BRANCH  12  28
ATOM     28  C   UNL     1      -2.277  13.580  20.567  0.00  0.00    +0.000 A 
ATOM     29  C   UNL     1      -3.660  13.391  20.622  0.00  0.00    +0.000 A 
ATOM     30  C   UNL     1      -4.511  14.477  20.848  0.00  0.00    +0.000 A 
ATOM     31  C   UNL     1      -3.973  15.703  21.212  0.00  0.00    +0.000 A 
ATOM     32  C   UNL     1      -2.605  15.849  21.399  0.00  0.00    +0.000 A 
ATOM     33  C   UNL     1      -1.756  14.794  21.065  0.00  0.00    +0.000 A 
BRANCH  31  34
ATOM     34  O   UNL     1      -4.761  16.798  21.401  0.00  0.00    +0.000 OA
ATOM     35  H   UNL     1      -4.190  17.578  21.507  0.00  0.00    +0.000 HD
ENDBRANCH  31  34
BRANCH  33  36
ATOM     36  O   UNL     1      -0.414  14.994  21.231  0.00  0.00    +0.000 OA
ATOM     37  H   UNL     1       0.067  14.415  20.608  0.00  0.00    +0.000 HD
ENDBRANCH  33  36
ENDBRANCH  12  28
TORSDOF 6
ENDMDL
MODEL 6
REMARK VINA RESULT:      -8.2      3.958     10.387
REMARK  Name = 
REMARK  7 active torsions:
REMARK  status: ('A' for Active; 'I' for Inactive)
REMARK    1  A    between atoms: C_1  and  C_2
REMARK    2  A    between atoms: C_7  and  C_8
REMARK    3  A    between atoms: C_18  and  C_19
REMARK    4  A    between atoms: C_19  and  O_20
REMARK    5  A    between atoms: C_25  and  C_27
REMARK    6  A    between atoms: C_30  and  O_31
REMARK    7  A    between atoms: C_33  and  O_34
REMARK                            x       y       z     vdW  Elec       q    Type
REMARK                         _______ _______ _______ _____ _____    ______ ____
ROOT
ATOM      1  C   UNL     1       3.323   6.054  17.116  0.00  0.00    +0.000 C 
ATOM      2  C   UNL     1       3.036   7.171  18.138  0.00  0.00    +0.000 C 
ATOM      3  C   UNL     1       2.416   8.269  17.263  0.00  0.00    +0.000 C 
ATOM      4  C   UNL     1       2.306   9.555  18.013  0.00  0.00    +0.000 C 
ATOM      5  C   UNL     1       1.563   9.333  19.286  0.00  0.00    +0.000 A 
ATOM      6  C   UNL     1       0.904  10.476  19.796  0.00  0.00    +0.000 A 
ATOM      7  C   UNL     1       0.322  10.515  21.061  0.00  0.00    +0.000 A 
ATOM      8  C   UNL     1       0.313   9.301  21.747  0.00  0.00    +0.000 A 
ATOM      9  C   UNL     1       0.897   8.132  21.211  0.00  0.00    +0.000 A 
ATOM     10  C   UNL     1       1.565   8.104  19.974  0.00  0.00    +0.000 A 
ATOM     11  N   UNL     1       2.212   6.889  19.394  0.00  0.00    +0.000 N 
ATOM     12  C   UNL     1       2.188   5.666  20.158  0.00  0.00    +0.000 C 
ATOM     13  O   UNL     1       1.716   5.547  21.296  0.00  0.00    +0.000 OA
ENDROOT
BRANCH   7  14
ATOM     14  C   UNL     1      -0.245  11.752  21.655  0.00  0.00    +0.000 A 
ATOM     15  N   UNL     1      -1.408  11.537  22.337  0.00  0.00    +0.000 NA
ATOM     16  C   UNL     1      -2.030  12.561  22.941  0.00  0.00    +0.000 A 
ATOM     17  C   UNL     1      -3.204  12.335  23.651  0.00  0.00    +0.000 A 
ATOM     18  C   UNL     1      -3.888  13.372  24.296  0.00  0.00    +0.000 A 
ATOM     19  C   UNL     1      -3.394  14.669  24.219  0.00  0.00    +0.000 A 
ATOM     20 CL   UNL     1      -4.226  15.958  24.993  0.00  0.00    +0.000 Cl
ATOM     21  C   UNL     1      -2.216  14.924  23.523  0.00  0.00    +0.000 A 
ATOM     22  C   UNL     1      -1.535  13.872  22.888  0.00  0.00    +0.000 A 
ATOM     23  C   UNL     1      -0.346  14.088  22.193  0.00  0.00    +0.000 A 
ATOM     24  C   UNL     1       0.340  13.028  21.579  0.00  0.00    +0.000 A 
BRANCH  24  25
ATOM     25  C   UNL     1       1.632  13.311  20.856  0.00  0.00    +0.000 C 
BRANCH  25  26
ATOM     26  O   UNL     1       2.618  13.879  21.714  0.00  0.00    +0.000 OA
ATOM     27  H   UNL     1       2.221  13.948  22.597  0.00  0.00    +0.000 HD
ENDBRANCH  25  26
ENDBRANCH  24  25
ENDBRANCH   7  14
BRANCH  12  28
ATOM     28  C   UNL     1       2.742   4.378  19.674  0.00  0.00    +0.000 A 
ATOM     29  C   UNL     1       1.890   3.423  19.115  0.00  0.00    +0.000 A 
ATOM     30  C   UNL     1       2.371   2.149  18.799  0.00  0.00    +0.000 A 
ATOM     31  C   UNL     1       3.734   1.898  18.859  0.00  0.00    +0.000 A 
ATOM     32  C   UNL     1       4.627   2.911  19.182  0.00  0.00    +0.000 A 
ATOM     33  C   UNL     1       4.133   4.146  19.602  0.00  0.00    +0.000 A 
BRANCH  31  34
ATOM     34  O   UNL     1       4.243   0.661  18.601  0.00  0.00    +0.000 OA
ATOM     35  H   UNL     1       3.987   0.401  17.699  0.00  0.00    +0.000 HD
ENDBRANCH  31  34
BRANCH  33  36
ATOM     36  O   UNL     1       5.047   5.103  19.945  0.00  0.00    +0.000 OA
ATOM     37  H   UNL     1       4.773   5.507  20.791  0.00  0.00    +0.000 HD
ENDBRANCH  33  36
ENDBRANCH  12  28
TORSDOF 6
ENDMDL
MODEL 7
REMARK VINA RESULT:      -8.1      2.067      2.956
REMARK  Name = 
REMARK  7 active torsions:
REMARK  status: ('A' for Active; 'I' for Inactive)
REMARK    1  A    between atoms: C_1  and  C_2
REMARK    2  A    between atoms: C_7  and  C_8
REMARK    3  A    between atoms: C_18  and  C_19
REMARK    4  A    between atoms: C_19  and  O_20
REMARK    5  A    between atoms: C_25  and  C_27
REMARK    6  A    between atoms: C_30  and  O_31
REMARK    7  A    between atoms: C_33  and  O_34
REMARK                            x       y       z     vdW  Elec       q    Type
REMARK                         _______ _______ _______ _____ _____    ______ ____
ROOT
ATOM      1  C   UNL     1      -2.184  14.111  20.392  0.00  0.00    +0.000 C 
ATOM      2  C   UNL     1      -1.775  12.633  20.253  0.00  0.00    +0.000 C 
ATOM      3  C   UNL     1      -0.808  12.666  19.061  0.00  0.00    +0.000 C 
ATOM      4  C   UNL     1      -0.496  11.287  18.583  0.00  0.00    +0.000 C 
ATOM      5  C   UNL     1       0.007  10.464  19.720  0.00  0.00    +0.000 A 
ATOM      6  C   UNL     1       0.846   9.387  19.348  0.00  0.00    +0.000 A 
ATOM      7  C   UNL     1       1.255   8.401  20.241  0.00  0.00    +0.000 A 
ATOM      8  C   UNL     1       0.892   8.616  21.570  0.00  0.00    +0.000 A 
ATOM      9  C   UNL     1       0.123   9.733  21.966  0.00  0.00    +0.000 A 
ATOM     10  C   UNL     1      -0.371  10.687  21.059  0.00  0.00    +0.000 A 
ATOM     11  N   UNL     1      -1.205  11.863  21.445  0.00  0.00    +0.000 N 
ATOM     12  C   UNL     1      -1.566  12.024  22.833  0.00  0.00    +0.000 C 
ATOM     13  O   UNL     1      -1.284  11.230  23.738  0.00  0.00    +0.000 OA
ENDROOT
BRANCH   7  14
ATOM     14  C   UNL     1       2.017   7.196  19.826  0.00  0.00    +0.000 A 
ATOM     15  N   UNL     1       1.853   6.137  20.672  0.00  0.00    +0.000 NA
ATOM     16  C   UNL     1       2.469   4.972  20.417  0.00  0.00    +0.000 A 
ATOM     17  C   UNL     1       2.284   3.891  21.271  0.00  0.00    +0.000 A 
ATOM     18  C   UNL     1       2.908   2.658  21.047  0.00  0.00    +0.000 A 
ATOM     19  C   UNL     1       3.746   2.506  19.948  0.00  0.00    +0.000 A 
ATOM     20 CL   UNL     1       4.531   1.004  19.663  0.00  0.00    +0.000 Cl
ATOM     21  C   UNL     1       3.943   3.568  19.072  0.00  0.00    +0.000 A 
ATOM     22  C   UNL     1       3.304   4.797  19.305  0.00  0.00    +0.000 A 
ATOM     23  C   UNL     1       3.467   5.879  18.440  0.00  0.00    +0.000 A 
ATOM     24  C   UNL     1       2.809   7.098  18.668  0.00  0.00    +0.000 A 
BRANCH  24  25
ATOM     25  C   UNL     1       3.003   8.231  17.694  0.00  0.00    +0.000 C 
BRANCH  25  26
ATOM     26  O   UNL     1       3.749   7.833  16.546  0.00  0.00    +0.000 OA
ATOM     27  H   UNL     1       3.323   8.241  15.775  0.00  0.00    +0.000 HD
ENDBRANCH  25  26
ENDBRANCH  24  25
ENDBRANCH   7  14
BRANCH  12  28
ATOM     28  C   UNL     1      -2.341  13.175  23.356  0.00  0.00    +0.000 A 
ATOM     29  C   UNL     1      -1.671  14.314  23.811  0.00  0.00    +0.000 A 
ATOM     30  C   UNL     1      -2.376  15.339  24.449  0.00  0.00    +0.000 A 
ATOM     31  C   UNL     1      -3.763  15.314  24.456  0.00  0.00    +0.000 A 
ATOM     32  C   UNL     1      -4.456  14.307  23.796  0.00  0.00    +0.000 A 
ATOM     33  C   UNL     1      -3.748  13.233  23.258  0.00  0.00    +0.000 A 
BRANCH  31  34
ATOM     34  O   UNL     1      -4.489  16.268  25.101  0.00  0.00    +0.000 OA
ATOM     35  H   UNL     1      -5.396  15.939  25.223  0.00  0.00    +0.000 HD
ENDBRANCH  31  34
BRANCH  33  36
ATOM     36  O   UNL     1      -4.474  12.247  22.648  0.00  0.00    +0.000 OA
ATOM     37  H   UNL     1      -5.139  11.913  23.281  0.00  0.00    +0.000 HD
ENDBRANCH  33  36
ENDBRANCH  12  28
TORSDOF 6
ENDMDL
MODEL 8
REMARK VINA RESULT:      -8.0      1.975      2.718
REMARK  Name = 
REMARK  7 active torsions:
REMARK  status: ('A' for Active; 'I' for Inactive)
REMARK    1  A    between atoms: C_1  and  C_2
REMARK    2  A    between atoms: C_7  and  C_8
REMARK    3  A    between atoms: C_18  and  C_19
REMARK    4  A    between atoms: C_19  and  O_20
REMARK    5  A    between atoms: C_25  and  C_27
REMARK    6  A    between atoms: C_30  and  O_31
REMARK    7  A    between atoms: C_33  and  O_34
REMARK                            x       y       z     vdW  Elec       q    Type
REMARK                         _______ _______ _______ _____ _____    ______ ____
ROOT
ATOM      1  C   UNL     1      -2.519  13.772  20.278  0.00  0.00    +0.000 C 
ATOM      2  C   UNL     1      -2.029  12.315  20.183  0.00  0.00    +0.000 C 
ATOM      3  C   UNL     1      -1.099  12.357  18.962  0.00  0.00    +0.000 C 
ATOM      4  C   UNL     1      -0.720  10.980  18.527  0.00  0.00    +0.000 C 
ATOM      5  C   UNL     1      -0.140  10.231  19.678  0.00  0.00    +0.000 A 
ATOM      6  C   UNL     1       0.749   9.191  19.321  0.00  0.00    +0.000 A 
ATOM      7  C   UNL     1       1.240   8.264  20.238  0.00  0.00    +0.000 A 
ATOM      8  C   UNL     1       0.901   8.510  21.568  0.00  0.00    +0.000 A 
ATOM      9  C   UNL     1       0.080   9.596  21.945  0.00  0.00    +0.000 A 
ATOM     10  C   UNL     1      -0.493  10.484  21.018  0.00  0.00    +0.000 A 
ATOM     11  N   UNL     1      -1.384  11.625  21.385  0.00  0.00    +0.000 N 
ATOM     12  C   UNL     1      -1.715  11.819  22.776  0.00  0.00    +0.000 C 
ATOM     13  O   UNL     1      -1.362  11.077  23.701  0.00  0.00    +0.000 OA
ENDROOT
BRANCH   7  14
ATOM     14  C   UNL     1       2.058   7.089  19.845  0.00  0.00    +0.000 A 
ATOM     15  N   UNL     1       1.907   6.023  20.685  0.00  0.00    +0.000 NA
ATOM     16  C   UNL     1       2.574   4.883  20.448  0.00  0.00    +0.000 A 
ATOM     17  C   UNL     1       2.402   3.793  21.295  0.00  0.00    +0.000 A 
ATOM     18  C   UNL     1       3.078   2.585  21.088  0.00  0.00    +0.000 A 
ATOM     19  C   UNL     1       3.955   2.466  20.016  0.00  0.00    +0.000 A 
ATOM     20 CL   UNL     1       4.804   0.995  19.754  0.00  0.00    +0.000 Cl
ATOM     21  C   UNL     1       4.140   3.537  19.147  0.00  0.00    +0.000 A 
ATOM     22  C   UNL     1       3.448   4.741  19.362  0.00  0.00    +0.000 A 
ATOM     23  C   UNL     1       3.598   5.830  18.504  0.00  0.00    +0.000 A 
ATOM     24  C   UNL     1       2.888   7.023  18.712  0.00  0.00    +0.000 A 
BRANCH  24  25
ATOM     25  C   UNL     1       3.071   8.165  17.746  0.00  0.00    +0.000 C 
BRANCH  25  26
ATOM     26  O   UNL     1       3.791   7.775  16.579  0.00  0.00    +0.000 OA
ATOM     27  H   UNL     1       3.833   8.551  15.998  0.00  0.00    +0.000 HD
ENDBRANCH  25  26
ENDBRANCH  24  25
ENDBRANCH   7  14
BRANCH  12  28
ATOM     28  C   UNL     1      -2.541  12.944  23.279  0.00  0.00    +0.000 A 
ATOM     29  C   UNL     1      -3.926  12.799  23.374  0.00  0.00    +0.000 A 
ATOM     30  C   UNL     1      -4.729  13.897  23.696  0.00  0.00    +0.000 A 
ATOM     31  C   UNL     1      -4.135  15.080  24.113  0.00  0.00    +0.000 A 
ATOM     32  C   UNL     1      -2.757  15.168  24.256  0.00  0.00    +0.000 A 
ATOM     33  C   UNL     1      -1.959  14.107  23.829  0.00  0.00    +0.000 A 
BRANCH  31  34
ATOM     34  O   UNL     1      -4.875  16.188  24.396  0.00  0.00    +0.000 OA
ATOM     35  H   UNL     1      -5.812  15.988  24.227  0.00  0.00    +0.000 HD
ENDBRANCH  31  34
BRANCH  33  36
ATOM     36  O   UNL     1      -0.605  14.250  23.957  0.00  0.00    +0.000 OA
ATOM     37  H   UNL     1      -0.297  13.670  24.680  0.00  0.00    +0.000 HD
ENDBRANCH  33  36
ENDBRANCH  12  28
TORSDOF 6
ENDMDL
MODEL 9
REMARK VINA RESULT:      -7.6      4.022     10.421
REMARK  Name = 
REMARK  7 active torsions:
REMARK  status: ('A' for Active; 'I' for Inactive)
REMARK    1  A    between atoms: C_1  and  C_2
REMARK    2  A    between atoms: C_7  and  C_8
REMARK    3  A    between atoms: C_18  and  C_19
REMARK    4  A    between atoms: C_19  and  O_20
REMARK    5  A    between atoms: C_25  and  C_27
REMARK    6  A    between atoms: C_30  and  O_31
REMARK    7  A    between atoms: C_33  and  O_34
REMARK                            x       y       z     vdW  Elec       q    Type
REMARK                         _______ _______ _______ _____ _____    ______ ____
ROOT
ATOM      1  C   UNL     1       3.681   5.773  17.450  0.00  0.00    +0.000 C 
ATOM      2  C   UNL     1       3.178   6.907  18.363  0.00  0.00    +0.000 C 
ATOM      3  C   UNL     1       2.755   7.983  17.352  0.00  0.00    +0.000 C 
ATOM      4  C   UNL     1       2.483   9.283  18.034  0.00  0.00    +0.000 C 
ATOM      5  C   UNL     1       1.485   9.080  19.123  0.00  0.00    +0.000 A 
ATOM      6  C   UNL     1       0.729  10.227  19.456  0.00  0.00    +0.000 A 
ATOM      7  C   UNL     1      -0.110  10.287  20.566  0.00  0.00    +0.000 A 
ATOM      8  C   UNL     1      -0.262   9.087  21.260  0.00  0.00    +0.000 A 
ATOM      9  C   UNL     1       0.428   7.912  20.886  0.00  0.00    +0.000 A 
ATOM     10  C   UNL     1       1.345   7.864  19.821  0.00  0.00    +0.000 A 
ATOM     11  N   UNL     1       2.105   6.644  19.419  0.00  0.00    +0.000 N 
ATOM     12  C   UNL     1       1.923   5.436  20.186  0.00  0.00    +0.000 C 
ATOM     13  O   UNL     1       1.219   5.336  21.200  0.00  0.00    +0.000 OA
ENDROOT
BRANCH   7  14
ATOM     14  C   UNL     1      -0.796  11.531  20.999  0.00  0.00    +0.000 A 
ATOM     15  N   UNL     1      -1.535  11.371  22.136  0.00  0.00    +0.000 NA
ATOM     16  C   UNL     1      -2.200  12.413  22.656  0.00  0.00    +0.000 A 
ATOM     17  C   UNL     1      -2.935  12.251  23.825  0.00  0.00    +0.000 A 
ATOM     18  C   UNL     1      -3.646  13.309  24.402  0.00  0.00    +0.000 A 
ATOM     19  C   UNL     1      -3.632  14.557  23.791  0.00  0.00    +0.000 A 
ATOM     20 CL   UNL     1      -4.509  15.866  24.478  0.00  0.00    +0.000 Cl
ATOM     21  C   UNL     1      -2.898  14.752  22.626  0.00  0.00    +0.000 A 
ATOM     22  C   UNL     1      -2.181  13.683  22.061  0.00  0.00    +0.000 A 
ATOM     23  C   UNL     1      -1.424  13.844  20.902  0.00  0.00    +0.000 A 
ATOM     24  C   UNL     1      -0.694  12.777  20.356  0.00  0.00    +0.000 A 
BRANCH  24  25
ATOM     25  C   UNL     1       0.125  13.008  19.111  0.00  0.00    +0.000 C 
BRANCH  25  26
ATOM     26  O   UNL     1      -0.686  13.115  17.944  0.00  0.00    +0.000 OA
ATOM     27  H   UNL     1      -1.575  13.372  18.238  0.00  0.00    +0.000 HD
ENDBRANCH  25  26
ENDBRANCH  24  25
ENDBRANCH   7  14
BRANCH  12  28
ATOM     28  C   UNL     1       2.572   4.143  19.859  0.00  0.00    +0.000 A 
ATOM     29  C   UNL     1       3.927   3.956  20.143  0.00  0.00    +0.000 A 
ATOM     30  C   UNL     1       4.587   2.806  19.700  0.00  0.00    +0.000 A 
ATOM     31  C   UNL     1       3.853   1.765  19.150  0.00  0.00    +0.000 A 
ATOM     32  C   UNL     1       2.468   1.835  19.079  0.00  0.00    +0.000 A 
ATOM     33  C   UNL     1       1.829   3.026  19.421  0.00  0.00    +0.000 A 
BRANCH  31  34
ATOM     34  O   UNL     1       4.458   0.645  18.667  0.00  0.00    +0.000 OA
ATOM     35  H   UNL     1       4.381   0.642  17.698  0.00  0.00    +0.000 HD
ENDBRANCH  31  34
BRANCH  33  36
ATOM     36  O   UNL     1       0.467   3.062  19.303  0.00  0.00    +0.000 OA
ATOM     37  H   UNL     1       0.096   2.266  19.731  0.00  0.00    +0.000 HD
ENDBRANCH  33  36
ENDBRANCH  12  28
TORSDOF 6
ENDMDL
