MODEL 1
REMARK VINA RESULT:      -7.8      0.000      0.000
REMARK  Name = 
REMARK  2 active torsions:
REMARK  status: ('A' for Active; 'I' for Inactive)
REMARK    1  A    between atoms: C_5  and  C_6
REMARK    2  A    between atoms: C_12  and  C_13
REMARK                            x       y       z     vdW  Elec       q    Type
REMARK                         _______ _______ _______ _____ _____    ______ ____
ROOT
ATOM      1  C   UNL     1       4.511   4.129  18.381  0.00  0.00    +0.000 A 
ATOM      2  C   UNL     1       4.362   3.025  19.214  0.00  0.00    +0.000 A 
ATOM      3  N   UNL     1       3.455   3.252  20.222  0.00  0.00    +0.000 NA
ATOM      4  C   UNL     1       3.038   4.474  20.003  0.00  0.00    +0.000 A 
ATOM      5  C   UNL     1       2.085   5.242  20.755  0.00  0.00    +0.000 A 
ATOM      6  N   UNL     1       1.746   6.456  20.405  0.00  0.00    +0.000 NA
ATOM      7  C   UNL     1       2.321   6.993  19.257  0.00  0.00    +0.000 A 
ATOM      8  C   UNL     1       3.209   6.308  18.503  0.00  0.00    +0.000 A 
ATOM      9  N   UNL     1       3.603   5.041  18.893  0.00  0.00    +0.000 N 
ENDROOT
BRANCH   1  14
ATOM     10  C   UNL     1       5.785   4.388  14.827  0.00  0.00    +0.000 A 
ATOM     11  C   UNL     1       7.110   4.676  15.096  0.00  0.00    +0.000 A 
ATOM     12  N   UNL     1       7.602   4.811  16.343  0.00  0.00    +0.000 NA
ATOM     13  C   UNL     1       6.731   4.633  17.368  0.00  0.00    +0.000 A 
ATOM     14  C   UNL     1       5.380   4.324  17.216  0.00  0.00    +0.000 A 
ATOM     15  C   UNL     1       4.911   4.232  15.901  0.00  0.00    +0.000 A 
ENDBRANCH   1  14
BRANCH   7  16
ATOM     16  C   UNL     1       1.905   8.326  18.936  0.00  0.00    +0.000 A 
ATOM     17  C   UNL     1       1.165   9.235  19.726  0.00  0.00    +0.000 A 
ATOM     18  N   UNL     1       0.958  10.403  19.108  0.00  0.00    +0.000 NA
ATOM     19  N   UNL     1       1.563  10.245  17.922  0.00  0.00    +0.000 N 
ATOM     20  C   UNL     1       2.156   9.024  17.773  0.00  0.00    +0.000 A 
ATOM     21  H   UNL     1       1.534  11.012  17.259  0.00  0.00    +0.000 HD
ENDBRANCH   7  16
TORSDOF 2
ENDMDL
MODEL 2
REMARK VINA RESULT:      -7.2      3.381      6.526
REMARK  Name = 
REMARK  2 active torsions:
REMARK  status: ('A' for Active; 'I' for Inactive)
REMARK    1  A    between atoms: C_5  and  C_6
REMARK    2  A    between atoms: C_12  and  C_13
REMARK                            x       y       z     vdW  Elec       q    Type
REMARK                         _______ _______ _______ _____ _____    ______ ____
ROOT
ATOM      1  C   UNL     1       4.515   4.535  18.476  0.00  0.00    +0.000 A 
ATOM      2  C   UNL     1       5.178   5.285  19.441  0.00  0.00    +0.000 A 
ATOM      3  N   UNL     1       6.343   5.836  18.962  0.00  0.00    +0.000 NA
ATOM      4  C   UNL     1       6.388   5.444  17.713  0.00  0.00    +0.000 A 
ATOM      5  C   UNL     1       7.395   5.716  16.726  0.00  0.00    +0.000 A 
ATOM      6  N   UNL     1       7.298   5.272  15.499  0.00  0.00    +0.000 NA
ATOM      7  C   UNL     1       6.170   4.533  15.156  0.00  0.00    +0.000 A 
ATOM      8  C   UNL     1       5.184   4.262  16.040  0.00  0.00    +0.000 A 
ATOM      9  N   UNL     1       5.303   4.693  17.349  0.00  0.00    +0.000 N 
ENDROOT
BRANCH   1  14
ATOM     10  C   UNL     1       1.957   1.888  19.361  0.00  0.00    +0.000 A 
ATOM     11  C   UNL     1       0.884   2.381  18.643  0.00  0.00    +0.000 A 
ATOM     12  N   UNL     1       0.934   3.516  17.917  0.00  0.00    +0.000 NA
ATOM     13  C   UNL     1       2.118   4.178  17.897  0.00  0.00    +0.000 A 
ATOM     14  C   UNL     1       3.268   3.767  18.568  0.00  0.00    +0.000 A 
ATOM     15  C   UNL     1       3.153   2.604  19.337  0.00  0.00    +0.000 A 
ENDBRANCH   1  14
BRANCH   7  16
ATOM     16  C   UNL     1       6.133   4.077  13.798  0.00  0.00    +0.000 A 
ATOM     17  C   UNL     1       5.050   3.519  13.082  0.00  0.00    +0.000 A 
ATOM     18  N   UNL     1       5.373   3.207  11.822  0.00  0.00    +0.000 NA
ATOM     19  N   UNL     1       6.662   3.562  11.728  0.00  0.00    +0.000 N 
ATOM     20  C   UNL     1       7.163   4.100  12.879  0.00  0.00    +0.000 A 
ATOM     21  H   UNL     1       7.142   3.411  10.847  0.00  0.00    +0.000 HD
ENDBRANCH   7  16
TORSDOF 2
ENDMDL
MODEL 3
REMARK VINA RESULT:      -7.2      1.146      5.873
REMARK  Name = 
REMARK  2 active torsions:
REMARK  status: ('A' for Active; 'I' for Inactive)
REMARK    1  A    between atoms: C_5  and  C_6
REMARK    2  A    between atoms: C_12  and  C_13
REMARK                            x       y       z     vdW  Elec       q    Type
REMARK                         _______ _______ _______ _____ _____    ______ ____
ROOT
ATOM      1  C   UNL     1       2.320   6.264  19.788  0.00  0.00    +0.000 A 
ATOM      2  C   UNL     1       1.843   5.459  20.817  0.00  0.00    +0.000 A 
ATOM      3  N   UNL     1       2.423   4.213  20.815  0.00  0.00    +0.000 NA
ATOM      4  C   UNL     1       3.260   4.255  19.809  0.00  0.00    +0.000 A 
ATOM      5  C   UNL     1       4.136   3.223  19.330  0.00  0.00    +0.000 A 
ATOM      6  N   UNL     1       4.941   3.415  18.316  0.00  0.00    +0.000 NA
ATOM      7  C   UNL     1       4.947   4.668  17.711  0.00  0.00    +0.000 A 
ATOM      8  C   UNL     1       4.158   5.680  18.133  0.00  0.00    +0.000 A 
ATOM      9  N   UNL     1       3.274   5.469  19.176  0.00  0.00    +0.000 N 
ENDROOT
BRANCH   1  14
ATOM     10  C   UNL     1       1.822   9.464  17.830  0.00  0.00    +0.000 A 
ATOM     11  C   UNL     1       1.269  10.242  18.830  0.00  0.00    +0.000 A 
ATOM     12  N   UNL     1       1.031   9.790  20.077  0.00  0.00    +0.000 NA
ATOM     13  C   UNL     1       1.378   8.505  20.338  0.00  0.00    +0.000 A 
ATOM     14  C   UNL     1       1.957   7.635  19.415  0.00  0.00    +0.000 A 
ATOM     15  C   UNL     1       2.148   8.142  18.125  0.00  0.00    +0.000 A 
ENDBRANCH   1  14
BRANCH   7  16
ATOM     16  C   UNL     1       5.850   4.804  16.607  0.00  0.00    +0.000 A 
ATOM     17  C   UNL     1       5.852   4.111  15.376  0.00  0.00    +0.000 A 
ATOM     18  N   UNL     1       6.846   4.498  14.568  0.00  0.00    +0.000 NA
ATOM     19  N   UNL     1       7.484   5.438  15.281  0.00  0.00    +0.000 N 
ATOM     20  C   UNL     1       6.921   5.669  16.504  0.00  0.00    +0.000 A 
ATOM     21  H   UNL     1       8.298   5.884  14.872  0.00  0.00    +0.000 HD
ENDBRANCH   7  16
TORSDOF 2
ENDMDL
MODEL 4
REMARK VINA RESULT:      -7.2      3.478      6.479
REMARK  Name = 
REMARK  2 active torsions:
REMARK  status: ('A' for Active; 'I' for Inactive)
REMARK    1  A    between atoms: C_5  and  C_6
REMARK    2  A    between atoms: C_12  and  C_13
REMARK                            x       y       z     vdW  Elec       q    Type
REMARK                         _______ _______ _______ _____ _____    ______ ____
ROOT
ATOM      1  C   UNL     1       4.611   4.229  18.619  0.00  0.00    +0.000 A 
ATOM      2  C   UNL     1       5.359   4.794  19.646  0.00  0.00    +0.000 A 
ATOM      3  N   UNL     1       6.591   5.226  19.215  0.00  0.00    +0.000 NA
ATOM      4  C   UNL     1       6.595   4.946  17.936  0.00  0.00    +0.000 A 
ATOM      5  C   UNL     1       7.639   5.169  16.975  0.00  0.00    +0.000 A 
ATOM      6  N   UNL     1       7.495   4.854  15.713  0.00  0.00    +0.000 NA
ATOM      7  C   UNL     1       6.282   4.305  15.308  0.00  0.00    +0.000 A 
ATOM      8  C   UNL     1       5.261   4.090  16.166  0.00  0.00    +0.000 A 
ATOM      9  N   UNL     1       5.423   4.382  17.508  0.00  0.00    +0.000 N 
ENDROOT
BRANCH   1  14
ATOM     10  C   UNL     1       0.896   3.660  18.169  0.00  0.00    +0.000 A 
ATOM     11  C   UNL     1       0.795   2.423  18.777  0.00  0.00    +0.000 A 
ATOM     12  N   UNL     1       1.848   1.762  19.297  0.00  0.00    +0.000 NA
ATOM     13  C   UNL     1       3.055   2.377  19.219  0.00  0.00    +0.000 A 
ATOM     14  C   UNL     1       3.273   3.628  18.644  0.00  0.00    +0.000 A 
ATOM     15  C   UNL     1       2.154   4.255  18.086  0.00  0.00    +0.000 A 
ENDBRANCH   1  14
BRANCH   7  16
ATOM     16  C   UNL     1       6.197   3.983  13.914  0.00  0.00    +0.000 A 
ATOM     17  C   UNL     1       5.101   3.457  13.193  0.00  0.00    +0.000 A 
ATOM     18  N   UNL     1       5.375   3.282  11.896  0.00  0.00    +0.000 NA
ATOM     19  N   UNL     1       6.646   3.693  11.783  0.00  0.00    +0.000 N 
ATOM     20  C   UNL     1       7.182   4.134  12.958  0.00  0.00    +0.000 A 
ATOM     21  H   UNL     1       7.089   3.647  10.871  0.00  0.00    +0.000 HD
ENDBRANCH   7  16
TORSDOF 2
ENDMDL
MODEL 5
REMARK VINA RESULT:      -7.1      0.630      1.080
REMARK  Name = 
REMARK  2 active torsions:
REMARK  status: ('A' for Active; 'I' for Inactive)
REMARK    1  A    between atoms: C_5  and  C_6
REMARK    2  A    between atoms: C_12  and  C_13
REMARK                            x       y       z     vdW  Elec       q    Type
REMARK                         _______ _______ _______ _____ _____    ______ ____
ROOT
ATOM      1  C   UNL     1       4.430   4.083  18.553  0.00  0.00    +0.000 A 
ATOM      2  C   UNL     1       4.242   2.992  19.395  0.00  0.00    +0.000 A 
ATOM      3  N   UNL     1       3.312   3.245  20.375  0.00  0.00    +0.000 NA
ATOM      4  C   UNL     1       2.919   4.470  20.130  0.00  0.00    +0.000 A 
ATOM      5  C   UNL     1       1.958   5.261  20.846  0.00  0.00    +0.000 A 
ATOM      6  N   UNL     1       1.646   6.476  20.472  0.00  0.00    +0.000 NA
ATOM      7  C   UNL     1       2.261   6.990  19.334  0.00  0.00    +0.000 A 
ATOM      8  C   UNL     1       3.158   6.283  18.613  0.00  0.00    +0.000 A 
ATOM      9  N   UNL     1       3.523   5.015  19.029  0.00  0.00    +0.000 N 
ENDROOT
BRANCH   1  14
ATOM     10  C   UNL     1       7.484   4.800  16.435  0.00  0.00    +0.000 A 
ATOM     11  C   UNL     1       6.937   4.571  15.187  0.00  0.00    +0.000 A 
ATOM     12  N   UNL     1       5.660   4.182  14.996  0.00  0.00    +0.000 NA
ATOM     13  C   UNL     1       4.894   4.031  16.105  0.00  0.00    +0.000 A 
ATOM     14  C   UNL     1       5.334   4.251  17.410  0.00  0.00    +0.000 A 
ATOM     15  C   UNL     1       6.676   4.617  17.556  0.00  0.00    +0.000 A 
ENDBRANCH   1  14
BRANCH   7  16
ATOM     16  C   UNL     1       1.874   8.325  18.986  0.00  0.00    +0.000 A 
ATOM     17  C   UNL     1       1.169   9.272  19.763  0.00  0.00    +0.000 A 
ATOM     18  N   UNL     1       0.982  10.429  19.119  0.00  0.00    +0.000 NA
ATOM     19  N   UNL     1       1.565  10.226  17.929  0.00  0.00    +0.000 N 
ATOM     20  C   UNL     1       2.125   8.987  17.802  0.00  0.00    +0.000 A 
ATOM     21  H   UNL     1       1.546  10.978  17.247  0.00  0.00    +0.000 HD
ENDBRANCH   7  16
TORSDOF 2
ENDMDL
MODEL 6
REMARK VINA RESULT:      -7.1      1.130      5.877
REMARK  Name = 
REMARK  2 active torsions:
REMARK  status: ('A' for Active; 'I' for Inactive)
REMARK    1  A    between atoms: C_5  and  C_6
REMARK    2  A    between atoms: C_12  and  C_13
REMARK                            x       y       z     vdW  Elec       q    Type
REMARK                         _______ _______ _______ _____ _____    ______ ____
ROOT
ATOM      1  C   UNL     1       2.270   6.502  19.767  0.00  0.00    +0.000 A 
ATOM      2  C   UNL     1       1.767   5.725  20.804  0.00  0.00    +0.000 A 
ATOM      3  N   UNL     1       2.337   4.474  20.841  0.00  0.00    +0.000 NA
ATOM      4  C   UNL     1       3.192   4.487  19.849  0.00  0.00    +0.000 A 
ATOM      5  C   UNL     1       4.067   3.436  19.409  0.00  0.00    +0.000 A 
ATOM      6  N   UNL     1       4.891   3.599  18.406  0.00  0.00    +0.000 NA
ATOM      7  C   UNL     1       4.920   4.838  17.773  0.00  0.00    +0.000 A 
ATOM      8  C   UNL     1       4.132   5.866  18.158  0.00  0.00    +0.000 A 
ATOM      9  N   UNL     1       3.229   5.686  19.190  0.00  0.00    +0.000 N 
ENDROOT
BRANCH   1  14
ATOM     10  C   UNL     1       0.941  10.047  19.757  0.00  0.00    +0.000 A 
ATOM     11  C   UNL     1       1.298  10.404  18.470  0.00  0.00    +0.000 A 
ATOM     12  N   UNL     1       1.954   9.583  17.626  0.00  0.00    +0.000 NA
ATOM     13  C   UNL     1       2.251   8.342  18.086  0.00  0.00    +0.000 A 
ATOM     14  C   UNL     1       1.927   7.868  19.356  0.00  0.00    +0.000 A 
ATOM     15  C   UNL     1       1.280   8.771  20.207  0.00  0.00    +0.000 A 
ENDBRANCH   1  14
BRANCH   7  16
ATOM     16  C   UNL     1       5.844   4.942  16.683  0.00  0.00    +0.000 A 
ATOM     17  C   UNL     1       5.608   5.392  15.364  0.00  0.00    +0.000 A 
ATOM     18  N   UNL     1       6.709   5.360  14.605  0.00  0.00    +0.000 NA
ATOM     19  N   UNL     1       7.651   4.887  15.434  0.00  0.00    +0.000 N 
ATOM     20  C   UNL     1       7.189   4.632  16.693  0.00  0.00    +0.000 A 
ATOM     21  H   UNL     1       8.592   4.763  15.075  0.00  0.00    +0.000 HD
ENDBRANCH   7  16
TORSDOF 2
ENDMDL
MODEL 7
REMARK VINA RESULT:      -6.9      3.220      4.698
REMARK  Name = 
REMARK  2 active torsions:
REMARK  status: ('A' for Active; 'I' for Inactive)
REMARK    1  A    between atoms: C_5  and  C_6
REMARK    2  A    between atoms: C_12  and  C_13
REMARK                            x       y       z     vdW  Elec       q    Type
REMARK                         _______ _______ _______ _____ _____    ______ ____
ROOT
ATOM      1  C   UNL     1       6.585   5.358  16.032  0.00  0.00    +0.000 A 
ATOM      2  C   UNL     1       7.453   6.256  16.643  0.00  0.00    +0.000 A 
ATOM      3  N   UNL     1       7.104   6.513  17.947  0.00  0.00    +0.000 NA
ATOM      4  C   UNL     1       6.044   5.769  18.143  0.00  0.00    +0.000 A 
ATOM      5  C   UNL     1       5.247   5.644  19.331  0.00  0.00    +0.000 A 
ATOM      6  N   UNL     1       4.217   4.839  19.390  0.00  0.00    +0.000 NA
ATOM      7  C   UNL     1       3.914   4.077  18.266  0.00  0.00    +0.000 A 
ATOM      8  C   UNL     1       4.641   4.142  17.129  0.00  0.00    +0.000 A 
ATOM      9  N   UNL     1       5.704   5.023  17.047  0.00  0.00    +0.000 N 
ENDROOT
BRANCH   1  14
ATOM     10  C   UNL     1       5.636   3.472  12.891  0.00  0.00    +0.000 A 
ATOM     11  C   UNL     1       6.671   3.887  12.073  0.00  0.00    +0.000 A 
ATOM     12  N   UNL     1       7.631   4.746  12.468  0.00  0.00    +0.000 NA
ATOM     13  C   UNL     1       7.560   5.198  13.745  0.00  0.00    +0.000 A 
ATOM     14  C   UNL     1       6.575   4.835  14.661  0.00  0.00    +0.000 A 
ATOM     15  C   UNL     1       5.581   3.971  14.191  0.00  0.00    +0.000 A 
ENDBRANCH   1  14
BRANCH   7  16
ATOM     16  C   UNL     1       2.773   3.221  18.402  0.00  0.00    +0.000 A 
ATOM     17  C   UNL     1       1.403   3.547  18.277  0.00  0.00    +0.000 A 
ATOM     18  N   UNL     1       0.604   2.491  18.465  0.00  0.00    +0.000 NA
ATOM     19  N   UNL     1       1.458   1.488  18.713  0.00  0.00    +0.000 N 
ATOM     20  C   UNL     1       2.769   1.868  18.675  0.00  0.00    +0.000 A 
ATOM     21  H   UNL     1       1.079   0.565  18.900  0.00  0.00    +0.000 HD
ENDBRANCH   7  16
TORSDOF 2
ENDMDL
MODEL 8
REMARK VINA RESULT:      -6.9      1.210      5.876
REMARK  Name = 
REMARK  2 active torsions:
REMARK  status: ('A' for Active; 'I' for Inactive)
REMARK    1  A    between atoms: C_5  and  C_6
REMARK    2  A    between atoms: C_12  and  C_13
REMARK                            x       y       z     vdW  Elec       q    Type
REMARK                         _______ _______ _______ _____ _____    ______ ____
ROOT
ATOM      1  C   UNL     1       2.130   5.999  20.214  0.00  0.00    +0.000 A 
ATOM      2  C   UNL     1       1.576   4.978  20.978  0.00  0.00    +0.000 A 
ATOM      3  N   UNL     1       2.225   3.780  20.796  0.00  0.00    +0.000 NA
ATOM      4  C   UNL     1       3.178   4.064  19.944  0.00  0.00    +0.000 A 
ATOM      5  C   UNL     1       4.167   3.186  19.383  0.00  0.00    +0.000 A 
ATOM      6  N   UNL     1       5.081   3.616  18.551  0.00  0.00    +0.000 NA
ATOM      7  C   UNL     1       5.089   4.969  18.227  0.00  0.00    +0.000 A 
ATOM      8  C   UNL     1       4.193   5.843  18.739  0.00  0.00    +0.000 A 
ATOM      9  N   UNL     1       3.200   5.385  19.585  0.00  0.00    +0.000 N 
ENDROOT
BRANCH   1  14
ATOM     10  C   UNL     1       0.795   9.460  20.971  0.00  0.00    +0.000 A 
ATOM     11  C   UNL     1       1.000  10.042  19.734  0.00  0.00    +0.000 A 
ATOM     12  N   UNL     1       1.557   9.394  18.691  0.00  0.00    +0.000 NA
ATOM     13  C   UNL     1       1.910   8.100  18.892  0.00  0.00    +0.000 A 
ATOM     14  C   UNL     1       1.736   7.407  20.089  0.00  0.00    +0.000 A 
ATOM     15  C   UNL     1       1.189   8.135  21.151  0.00  0.00    +0.000 A 
ENDBRANCH   1  14
BRANCH   7  16
ATOM     16  C   UNL     1       6.114   5.367  17.309  0.00  0.00    +0.000 A 
ATOM     17  C   UNL     1       6.926   6.524  17.337  0.00  0.00    +0.000 A 
ATOM     18  N   UNL     1       7.789   6.572  16.316  0.00  0.00    +0.000 NA
ATOM     19  N   UNL     1       7.530   5.450  15.630  0.00  0.00    +0.000 N 
ATOM     20  C   UNL     1       6.545   4.686  16.188  0.00  0.00    +0.000 A 
ATOM     21  H   UNL     1       8.064   5.264  14.788  0.00  0.00    +0.000 HD
ENDBRANCH   7  16
TORSDOF 2
ENDMDL
MODEL 9
REMARK VINA RESULT:      -6.8      2.558      7.303
REMARK  Name = 
REMARK  2 active torsions:
REMARK  status: ('A' for Active; 'I' for Inactive)
REMARK    1  A    between atoms: C_5  and  C_6
REMARK    2  A    between atoms: C_12  and  C_13
REMARK                            x       y       z     vdW  Elec       q    Type
REMARK                         _______ _______ _______ _____ _____    ______ ____
ROOT
ATOM      1  C   UNL     1       1.423   9.089  19.504  0.00  0.00    +0.000 A 
ATOM      2  C   UNL     1       1.684   9.769  18.319  0.00  0.00    +0.000 A 
ATOM      3  N   UNL     1       2.409   9.011  17.431  0.00  0.00    +0.000 NA
ATOM      4  C   UNL     1       2.578   7.871  18.054  0.00  0.00    +0.000 A 
ATOM      5  C   UNL     1       3.277   6.700  17.603  0.00  0.00    +0.000 A 
ATOM      6  N   UNL     1       3.350   5.615  18.330  0.00  0.00    +0.000 NA
ATOM      7  C   UNL     1       2.709   5.609  19.565  0.00  0.00    +0.000 A 
ATOM      8  C   UNL     1       2.022   6.676  20.031  0.00  0.00    +0.000 A 
ATOM      9  N   UNL     1       1.979   7.840  19.285  0.00  0.00    +0.000 N 
ENDROOT
BRANCH   1  14
ATOM     10  C   UNL     1       0.258   9.428  23.089  0.00  0.00    +0.000 A 
ATOM     11  C   UNL     1      -0.705  10.403  22.909  0.00  0.00    +0.000 A 
ATOM     12  N   UNL     1      -0.979  10.965  21.714  0.00  0.00    +0.000 NA
ATOM     13  C   UNL     1      -0.267  10.517  20.650  0.00  0.00    +0.000 A 
ATOM     14  C   UNL     1       0.714   9.528  20.710  0.00  0.00    +0.000 A 
ATOM     15  C   UNL     1       0.987   9.005  21.979  0.00  0.00    +0.000 A 
ENDBRANCH   1  14
BRANCH   7  16
ATOM     16  C   UNL     1       2.833   4.390  20.308  0.00  0.00    +0.000 A 
ATOM     17  C   UNL     1       2.162   4.003  21.490  0.00  0.00    +0.000 A 
ATOM     18  N   UNL     1       2.521   2.784  21.909  0.00  0.00    +0.000 NA
ATOM     19  N   UNL     1       3.423   2.389  20.999  0.00  0.00    +0.000 N 
ATOM     20  C   UNL     1       3.637   3.308  20.012  0.00  0.00    +0.000 A 
ATOM     21  H   UNL     1       3.855   1.478  21.111  0.00  0.00    +0.000 HD
ENDBRANCH   7  16
TORSDOF 2
ENDMDL
