MODEL 1
REMARK VINA RESULT:      -8.1      0.000      0.000
REMARK  Name = 
REMARK  8 active torsions:
REMARK  status: ('A' for Active; 'I' for Inactive)
REMARK    1  A    between atoms: C_1  and  C_2
REMARK    2  A    between atoms: C_7  and  C_8
REMARK    3  A    between atoms: C_10  and  C_11
REMARK    4  A    between atoms: C_11  and  N_12
REMARK    5  A    between atoms: N_15  and  S_16
REMARK    6  A    between atoms: S_16  and  C_17
REMARK    7  A    between atoms: C_24  and  N_25
REMARK    8  A    between atoms: N_25  and  C_26
REMARK                            x       y       z     vdW  Elec       q    Type
REMARK                         _______ _______ _______ _____ _____    ______ ____
ROOT
ATOM      1  C   UNL     1       2.664   6.202  19.555  0.00  0.00    +0.000 A 
ATOM      2  C   UNL     1       2.167   7.210  20.417  0.00  0.00    +0.000 A 
ATOM      3  C   UNL     1       1.839   8.491  19.975  0.00  0.00    +0.000 A 
ATOM      4  C   UNL     1       2.050   8.734  18.636  0.00  0.00    +0.000 A 
ATOM      5  N   UNL     1       2.519   7.804  17.767  0.00  0.00    +0.000 NA
ATOM      6  C   UNL     1       2.806   6.545  18.202  0.00  0.00    +0.000 A 
ENDROOT
BRANCH   1  13
ATOM      7  C   UNL     1       1.124   2.516  22.200  0.00  0.00    +0.000 C 
ATOM      8  C   UNL     1       2.183   3.128  21.340  0.00  0.00    +0.000 A 
ATOM      9  N   UNL     1       3.206   2.365  20.951  0.00  0.00    +0.000 NA
ATOM     10  C   UNL     1       4.082   2.952  20.152  0.00  0.00    +0.000 A 
ATOM     11  N   UNL     1       5.093   2.150  19.662  0.00  0.00    +0.000 N 
ATOM     12  N   UNL     1       4.017   4.205  19.721  0.00  0.00    +0.000 NA
ATOM     13  C   UNL     1       2.951   4.884  20.144  0.00  0.00    +0.000 A 
ATOM     14  N   UNL     1       2.021   4.393  20.971  0.00  0.00    +0.000 NA
ATOM     15  H   UNL     1       4.816   1.180  19.757  0.00  0.00    +0.000 HD
ATOM     16  H   UNL     1       5.346   2.445  18.729  0.00  0.00    +0.000 HD
ENDBRANCH   1  13
BRANCH   6  17
ATOM     17  N   UNL     1       3.218   5.611  17.232  0.00  0.00    +0.000 N 
ATOM     18  H   UNL     1       2.475   5.052  16.825  0.00  0.00    +0.000 HD
BRANCH  17  19
ATOM     19  C   UNL     1       4.505   5.401  16.720  0.00  0.00    +0.000 A 
ATOM     20  C   UNL     1       4.932   4.171  16.243  0.00  0.00    +0.000 A 
ATOM     21  N   UNL     1       6.183   3.897  15.792  0.00  0.00    +0.000 NA
ATOM     22  C   UNL     1       7.053   4.918  15.849  0.00  0.00    +0.000 A 
ATOM     23  N   UNL     1       6.782   6.151  16.291  0.00  0.00    +0.000 NA
ATOM     24  C   UNL     1       5.514   6.351  16.727  0.00  0.00    +0.000 A 
ENDBRANCH  17  19
ENDBRANCH   6  17
BRANCH   3  25
ATOM     25  C   UNL     1       1.201   9.498  20.907  0.00  0.00    +0.000 C 
BRANCH  25  26
ATOM     26  N   UNL     1      -0.263   9.365  20.961  0.00  0.00    +0.000 NA
ATOM     27  C   UNL     1      -0.794   9.335  22.335  0.00  0.00    +0.000 C 
ATOM     28  C   UNL     1      -0.854  10.691  23.061  0.00  0.00    +0.000 C 
ATOM     29  N   UNL     1      -1.470  11.755  22.236  0.00  0.00    +0.000 NA
ATOM     30  C   UNL     1      -1.070  11.797  20.811  0.00  0.00    +0.000 C 
ATOM     31  C   UNL     1      -0.972  10.394  20.183  0.00  0.00    +0.000 C 
BRANCH  29  32
ATOM     32  S   UNL     1      -2.925  12.448  22.708  0.00  0.00    +0.000 S 
ATOM     33  C   UNL     1      -2.402  14.063  23.233  0.00  0.00    +0.000 C 
ATOM     34  O   UNL     1      -3.758  12.609  21.535  0.00  0.00    +0.000 OA
ATOM     35  O   UNL     1      -3.403  11.737  23.875  0.00  0.00    +0.000 OA
ENDBRANCH  29  32
ENDBRANCH  25  26
ENDBRANCH   3  25
TORSDOF 6
ENDMDL
MODEL 2
REMARK VINA RESULT:      -8.0      1.652      2.352
REMARK  Name = 
REMARK  8 active torsions:
REMARK  status: ('A' for Active; 'I' for Inactive)
REMARK    1  A    between atoms: C_1  and  C_2
REMARK    2  A    between atoms: C_7  and  C_8
REMARK    3  A    between atoms: C_10  and  C_11
REMARK    4  A    between atoms: C_11  and  N_12
REMARK    5  A    between atoms: N_15  and  S_16
REMARK    6  A    between atoms: S_16  and  C_17
REMARK    7  A    between atoms: C_24  and  N_25
REMARK    8  A    between atoms: N_25  and  C_26
REMARK                            x       y       z     vdW  Elec       q    Type
REMARK                         _______ _______ _______ _____ _____    ______ ____
ROOT
ATOM      1  C   UNL     1       3.439   5.626  18.501  0.00  0.00    +0.000 A 
ATOM      2  C   UNL     1       2.391   6.548  18.734  0.00  0.00    +0.000 A 
ATOM      3  C   UNL     1       2.394   7.845  18.221  0.00  0.00    +0.000 A 
ATOM      4  C   UNL     1       3.503   8.193  17.482  0.00  0.00    +0.000 A 
ATOM      5  N   UNL     1       4.531   7.348  17.226  0.00  0.00    +0.000 NA
ATOM      6  C   UNL     1       4.505   6.072  17.704  0.00  0.00    +0.000 A 
ENDROOT
BRANCH   1  13
ATOM      7  C   UNL     1       1.294   2.786  21.708  0.00  0.00    +0.000 C 
ATOM      8  C   UNL     1       2.234   2.945  20.556  0.00  0.00    +0.000 A 
ATOM      9  N   UNL     1       2.702   1.846  19.962  0.00  0.00    +0.000 NA
ATOM     10  C   UNL     1       3.489   2.055  18.920  0.00  0.00    +0.000 A 
ATOM     11  N   UNL     1       3.904   0.931  18.234  0.00  0.00    +0.000 N 
ATOM     12  N   UNL     1       3.834   3.241  18.436  0.00  0.00    +0.000 NA
ATOM     13  C   UNL     1       3.303   4.280  19.081  0.00  0.00    +0.000 A 
ATOM     14  N   UNL     1       2.516   4.179  20.158  0.00  0.00    +0.000 NA
ATOM     15  H   UNL     1       3.288   0.161  18.466  0.00  0.00    +0.000 HD
ATOM     16  H   UNL     1       3.993   1.141  17.249  0.00  0.00    +0.000 HD
ENDBRANCH   1  13
BRANCH   6  17
ATOM     17  N   UNL     1       5.570   5.228  17.337  0.00  0.00    +0.000 N 
ATOM     18  H   UNL     1       6.027   4.746  18.104  0.00  0.00    +0.000 HD
BRANCH  17  19
ATOM     19  C   UNL     1       6.035   4.928  16.049  0.00  0.00    +0.000 A 
ATOM     20  C   UNL     1       7.238   5.409  15.555  0.00  0.00    +0.000 A 
ATOM     21  N   UNL     1       7.709   5.199  14.299  0.00  0.00    +0.000 NA
ATOM     22  C   UNL     1       6.906   4.484  13.494  0.00  0.00    +0.000 A 
ATOM     23  N   UNL     1       5.720   3.967  13.833  0.00  0.00    +0.000 NA
ATOM     24  C   UNL     1       5.314   4.219  15.102  0.00  0.00    +0.000 A 
ENDBRANCH  17  19
ENDBRANCH   6  17
BRANCH   3  25
ATOM     25  C   UNL     1       1.198   8.756  18.396  0.00  0.00    +0.000 C 
BRANCH  25  26
ATOM     26  N   UNL     1       1.493   9.911  19.257  0.00  0.00    +0.000 NA
ATOM     27  C   UNL     1       0.953  11.179  18.735  0.00  0.00    +0.000 C 
ATOM     28  C   UNL     1      -0.561  11.387  18.911  0.00  0.00    +0.000 C 
ATOM     29  N   UNL     1      -1.021  11.097  20.288  0.00  0.00    +0.000 NA
ATOM     30  C   UNL     1      -0.451   9.893  20.933  0.00  0.00    +0.000 C 
ATOM     31  C   UNL     1       1.054   9.728  20.650  0.00  0.00    +0.000 C 
BRANCH  29  32
ATOM     32  S   UNL     1      -1.645  12.330  21.243  0.00  0.00    +0.000 S 
ATOM     33  C   UNL     1      -1.565  11.608  22.864  0.00  0.00    +0.000 C 
ATOM     34  O   UNL     1      -0.726  13.448  21.208  0.00  0.00    +0.000 OA
ATOM     35  O   UNL     1      -3.042  12.499  20.903  0.00  0.00    +0.000 OA
ENDBRANCH  29  32
ENDBRANCH  25  26
ENDBRANCH   3  25
TORSDOF 6
ENDMDL
MODEL 3
REMARK VINA RESULT:      -8.0      1.440      1.882
REMARK  Name = 
REMARK  8 active torsions:
REMARK  status: ('A' for Active; 'I' for Inactive)
REMARK    1  A    between atoms: C_1  and  C_2
REMARK    2  A    between atoms: C_7  and  C_8
REMARK    3  A    between atoms: C_10  and  C_11
REMARK    4  A    between atoms: C_11  and  N_12
REMARK    5  A    between atoms: N_15  and  S_16
REMARK    6  A    between atoms: S_16  and  C_17
REMARK    7  A    between atoms: C_24  and  N_25
REMARK    8  A    between atoms: N_25  and  C_26
REMARK                            x       y       z     vdW  Elec       q    Type
REMARK                         _______ _______ _______ _____ _____    ______ ____
ROOT
ATOM      1  C   UNL     1       3.474   5.742  18.914  0.00  0.00    +0.000 A 
ATOM      2  C   UNL     1       2.492   6.718  19.210  0.00  0.00    +0.000 A 
ATOM      3  C   UNL     1       2.353   7.899  18.482  0.00  0.00    +0.000 A 
ATOM      4  C   UNL     1       3.254   8.078  17.455  0.00  0.00    +0.000 A 
ATOM      5  N   UNL     1       4.210   7.174  17.127  0.00  0.00    +0.000 NA
ATOM      6  C   UNL     1       4.317   6.008  17.824  0.00  0.00    +0.000 A 
ENDROOT
BRANCH   1  13
ATOM      7  C   UNL     1       1.129   2.808  21.888  0.00  0.00    +0.000 C 
ATOM      8  C   UNL     1       2.357   3.123  21.095  0.00  0.00    +0.000 A 
ATOM      9  N   UNL     1       3.300   2.186  20.985  0.00  0.00    +0.000 NA
ATOM     10  C   UNL     1       4.337   2.509  20.231  0.00  0.00    +0.000 A 
ATOM     11  N   UNL     1       5.276   1.518  20.027  0.00  0.00    +0.000 N 
ATOM     12  N   UNL     1       4.502   3.662  19.595  0.00  0.00    +0.000 NA
ATOM     13  C   UNL     1       3.501   4.529  19.746  0.00  0.00    +0.000 A 
ATOM     14  N   UNL     1       2.420   4.310  20.504  0.00  0.00    +0.000 NA
ATOM     15  H   UNL     1       4.855   0.621  20.241  0.00  0.00    +0.000 HD
ATOM     16  H   UNL     1       5.676   1.606  19.103  0.00  0.00    +0.000 HD
ENDBRANCH   1  13
BRANCH   6  17
ATOM     17  N   UNL     1       5.283   5.084  17.381  0.00  0.00    +0.000 N 
ATOM     18  H   UNL     1       5.551   4.377  18.058  0.00  0.00    +0.000 HD
BRANCH  17  19
ATOM     19  C   UNL     1       5.871   4.985  16.113  0.00  0.00    +0.000 A 
ATOM     20  C   UNL     1       5.289   4.280  15.070  0.00  0.00    +0.000 A 
ATOM     21  N   UNL     1       5.839   4.102  13.841  0.00  0.00    +0.000 NA
ATOM     22  C   UNL     1       7.054   4.647  13.670  0.00  0.00    +0.000 A 
ATOM     23  N   UNL     1       7.735   5.344  14.587  0.00  0.00    +0.000 NA
ATOM     24  C   UNL     1       7.124   5.479  15.790  0.00  0.00    +0.000 A 
ENDBRANCH  17  19
ENDBRANCH   6  17
BRANCH   3  25
ATOM     25  C   UNL     1       1.215   8.857  18.759  0.00  0.00    +0.000 C 
BRANCH  25  26
ATOM     26  N   UNL     1       1.548   9.837  19.803  0.00  0.00    +0.000 NA
ATOM     27  C   UNL     1       1.193  11.220  19.436  0.00  0.00    +0.000 C 
ATOM     28  C   UNL     1      -0.301  11.577  19.525  0.00  0.00    +0.000 C 
ATOM     29  N   UNL     1      -0.915  11.153  20.804  0.00  0.00    +0.000 NA
ATOM     30  C   UNL     1      -0.535   9.812  21.303  0.00  0.00    +0.000 C 
ATOM     31  C   UNL     1       0.964   9.514  21.116  0.00  0.00    +0.000 C 
BRANCH  29  32
ATOM     32  S   UNL     1      -1.492  12.304  21.882  0.00  0.00    +0.000 S 
ATOM     33  C   UNL     1      -0.780  13.797  21.233  0.00  0.00    +0.000 C 
ATOM     34  O   UNL     1      -2.929  12.394  21.732  0.00  0.00    +0.000 OA
ATOM     35  O   UNL     1      -0.888  12.052  23.174  0.00  0.00    +0.000 OA
ENDBRANCH  29  32
ENDBRANCH  25  26
ENDBRANCH   3  25
TORSDOF 6
ENDMDL
MODEL 4
REMARK VINA RESULT:      -7.9      1.756      2.166
REMARK  Name = 
REMARK  8 active torsions:
REMARK  status: ('A' for Active; 'I' for Inactive)
REMARK    1  A    between atoms: C_1  and  C_2
REMARK    2  A    between atoms: C_7  and  C_8
REMARK    3  A    between atoms: C_10  and  C_11
REMARK    4  A    between atoms: C_11  and  N_12
REMARK    5  A    between atoms: N_15  and  S_16
REMARK    6  A    between atoms: S_16  and  C_17
REMARK    7  A    between atoms: C_24  and  N_25
REMARK    8  A    between atoms: N_25  and  C_26
REMARK                            x       y       z     vdW  Elec       q    Type
REMARK                         _______ _______ _______ _____ _____    ______ ____
ROOT
ATOM      1  C   UNL     1       3.032   5.755  19.142  0.00  0.00    +0.000 A 
ATOM      2  C   UNL     1       2.399   6.850  19.778  0.00  0.00    +0.000 A 
ATOM      3  C   UNL     1       2.155   8.063  19.134  0.00  0.00    +0.000 A 
ATOM      4  C   UNL     1       2.592   8.147  17.831  0.00  0.00    +0.000 A 
ATOM      5  N   UNL     1       3.199   7.128  17.174  0.00  0.00    +0.000 NA
ATOM      6  C   UNL     1       3.404   5.935  17.801  0.00  0.00    +0.000 A 
ENDROOT
BRANCH   1  13
ATOM      7  C   UNL     1       1.131   2.551  22.154  0.00  0.00    +0.000 C 
ATOM      8  C   UNL     1       2.274   2.989  21.295  0.00  0.00    +0.000 A 
ATOM      9  N   UNL     1       3.277   2.134  21.090  0.00  0.00    +0.000 NA
ATOM     10  C   UNL     1       4.233   2.563  20.282  0.00  0.00    +0.000 A 
ATOM     11  N   UNL     1       5.230   1.657  19.982  0.00  0.00    +0.000 N 
ATOM     12  N   UNL     1       4.263   3.744  19.678  0.00  0.00    +0.000 NA
ATOM     13  C   UNL     1       3.210   4.523  19.926  0.00  0.00    +0.000 A 
ATOM     14  N   UNL     1       2.203   4.195  20.745  0.00  0.00    +0.000 NA
ATOM     15  H   UNL     1       4.896   0.723  20.190  0.00  0.00    +0.000 HD
ATOM     16  H   UNL     1       5.558   1.806  19.037  0.00  0.00    +0.000 HD
ENDBRANCH   1  13
BRANCH   6  17
ATOM     17  N   UNL     1       3.972   4.898  17.035  0.00  0.00    +0.000 N 
ATOM     18  H   UNL     1       3.436   4.038  17.005  0.00  0.00    +0.000 HD
BRANCH  17  19
ATOM     19  C   UNL     1       5.144   4.929  16.268  0.00  0.00    +0.000 A 
ATOM     20  C   UNL     1       6.271   5.642  16.647  0.00  0.00    +0.000 A 
ATOM     21  N   UNL     1       7.410   5.754  15.917  0.00  0.00    +0.000 NA
ATOM     22  C   UNL     1       7.397   5.130  14.729  0.00  0.00    +0.000 A 
ATOM     23  N   UNL     1       6.380   4.414  14.233  0.00  0.00    +0.000 NA
ATOM     24  C   UNL     1       5.276   4.348  15.017  0.00  0.00    +0.000 A 
ENDBRANCH  17  19
ENDBRANCH   6  17
BRANCH   3  25
ATOM     25  C   UNL     1       1.371   9.163  19.815  0.00  0.00    +0.000 C 
BRANCH  25  26
ATOM     26  N   UNL     1       0.772  10.103  18.855  0.00  0.00    +0.000 NA
ATOM     27  C   UNL     1      -0.646  10.394  19.133  0.00  0.00    +0.000 C 
ATOM     28  C   UNL     1      -0.917  11.357  20.302  0.00  0.00    +0.000 C 
ATOM     29  N   UNL     1      -0.088  12.582  20.238  0.00  0.00    +0.000 NA
ATOM     30  C   UNL     1       1.333  12.395  19.865  0.00  0.00    +0.000 C 
ATOM     31  C   UNL     1       1.517  11.368  18.733  0.00  0.00    +0.000 C 
BRANCH  29  32
ATOM     32  S   UNL     1      -0.814  14.078  20.008  0.00  0.00    +0.000 S 
ATOM     33  C   UNL     1      -0.032  15.058  21.267  0.00  0.00    +0.000 C 
ATOM     34  O   UNL     1      -0.402  14.596  18.720  0.00  0.00    +0.000 OA
ATOM     35  O   UNL     1      -2.216  13.954  20.351  0.00  0.00    +0.000 OA
ENDBRANCH  29  32
ENDBRANCH  25  26
ENDBRANCH   3  25
TORSDOF 6
ENDMDL
MODEL 5
REMARK VINA RESULT:      -7.8      1.649      2.248
REMARK  Name = 
REMARK  8 active torsions:
REMARK  status: ('A' for Active; 'I' for Inactive)
REMARK    1  A    between atoms: C_1  and  C_2
REMARK    2  A    between atoms: C_7  and  C_8
REMARK    3  A    between atoms: C_10  and  C_11
REMARK    4  A    between atoms: C_11  and  N_12
REMARK    5  A    between atoms: N_15  and  S_16
REMARK    6  A    between atoms: S_16  and  C_17
REMARK    7  A    between atoms: C_24  and  N_25
REMARK    8  A    between atoms: N_25  and  C_26
REMARK                            x       y       z     vdW  Elec       q    Type
REMARK                         _______ _______ _______ _____ _____    ______ ____
ROOT
ATOM      1  C   UNL     1       3.270   5.924  18.472  0.00  0.00    +0.000 A 
ATOM      2  C   UNL     1       2.194   6.829  18.634  0.00  0.00    +0.000 A 
ATOM      3  C   UNL     1       2.221   8.134  18.143  0.00  0.00    +0.000 A 
ATOM      4  C   UNL     1       3.381   8.508  17.502  0.00  0.00    +0.000 A 
ATOM      5  N   UNL     1       4.438   7.680  17.316  0.00  0.00    +0.000 NA
ATOM      6  C   UNL     1       4.390   6.396  17.771  0.00  0.00    +0.000 A 
ENDROOT
BRANCH   1  13
ATOM      7  C   UNL     1       0.491   2.050  18.953  0.00  0.00    +0.000 C 
ATOM      8  C   UNL     1       1.806   2.726  19.178  0.00  0.00    +0.000 A 
ATOM      9  N   UNL     1       2.826   1.996  19.630  0.00  0.00    +0.000 NA
ATOM     10  C   UNL     1       3.973   2.641  19.762  0.00  0.00    +0.000 A 
ATOM     11  N   UNL     1       5.062   1.880  20.136  0.00  0.00    +0.000 N 
ATOM     12  N   UNL     1       4.176   3.922  19.483  0.00  0.00    +0.000 NA
ATOM     13  C   UNL     1       3.106   4.567  19.018  0.00  0.00    +0.000 A 
ATOM     14  N   UNL     1       1.896   4.014  18.870  0.00  0.00    +0.000 NA
ATOM     15  H   UNL     1       4.858   0.905  19.950  0.00  0.00    +0.000 HD
ATOM     16  H   UNL     1       5.902   2.243  19.705  0.00  0.00    +0.000 HD
ENDBRANCH   1  13
BRANCH   6  17
ATOM     17  N   UNL     1       5.493   5.571  17.477  0.00  0.00    +0.000 N 
ATOM     18  H   UNL     1       5.990   5.207  18.282  0.00  0.00    +0.000 HD
BRANCH  17  19
ATOM     19  C   UNL     1       5.948   5.145  16.221  0.00  0.00    +0.000 A 
ATOM     20  C   UNL     1       7.180   5.517  15.704  0.00  0.00    +0.000 A 
ATOM     21  N   UNL     1       7.645   5.184  14.473  0.00  0.00    +0.000 NA
ATOM     22  C   UNL     1       6.808   4.455  13.718  0.00  0.00    +0.000 A 
ATOM     23  N   UNL     1       5.592   4.034  14.083  0.00  0.00    +0.000 NA
ATOM     24  C   UNL     1       5.193   4.406  15.325  0.00  0.00    +0.000 A 
ENDBRANCH  17  19
ENDBRANCH   6  17
BRANCH   3  25
ATOM     25  C   UNL     1       1.004   9.028  18.236  0.00  0.00    +0.000 C 
BRANCH  25  26
ATOM     26  N   UNL     1       1.278  10.278  18.960  0.00  0.00    +0.000 NA
ATOM     27  C   UNL     1       0.262  11.320  18.726  0.00  0.00    +0.000 C 
ATOM     28  C   UNL     1      -1.072  11.138  19.472  0.00  0.00    +0.000 C 
ATOM     29  N   UNL     1      -0.887  10.837  20.910  0.00  0.00    +0.000 NA
ATOM     30  C   UNL     1       0.185   9.872  21.247  0.00  0.00    +0.000 C 
ATOM     31  C   UNL     1       1.459  10.086  20.409  0.00  0.00    +0.000 C 
BRANCH  29  32
ATOM     32  S   UNL     1      -1.413  11.929  22.072  0.00  0.00    +0.000 S 
ATOM     33  C   UNL     1      -0.290  13.284  21.830  0.00  0.00    +0.000 C 
ATOM     34  O   UNL     1      -2.740  12.380  21.710  0.00  0.00    +0.000 OA
ATOM     35  O   UNL     1      -1.145  11.360  23.376  0.00  0.00    +0.000 OA
ENDBRANCH  29  32
ENDBRANCH  25  26
ENDBRANCH   3  25
TORSDOF 6
ENDMDL
MODEL 6
REMARK VINA RESULT:      -7.8      0.630      1.690
REMARK  Name = 
REMARK  8 active torsions:
REMARK  status: ('A' for Active; 'I' for Inactive)
REMARK    1  A    between atoms: C_1  and  C_2
REMARK    2  A    between atoms: C_7  and  C_8
REMARK    3  A    between atoms: C_10  and  C_11
REMARK    4  A    between atoms: C_11  and  N_12
REMARK    5  A    between atoms: N_15  and  S_16
REMARK    6  A    between atoms: S_16  and  C_17
REMARK    7  A    between atoms: C_24  and  N_25
REMARK    8  A    between atoms: N_25  and  C_26
REMARK                            x       y       z     vdW  Elec       q    Type
REMARK                         _______ _______ _______ _____ _____    ______ ____
ROOT
ATOM      1  C   UNL     1       2.413   5.913  19.621  0.00  0.00    +0.000 A 
ATOM      2  C   UNL     1       1.951   6.923  20.499  0.00  0.00    +0.000 A 
ATOM      3  C   UNL     1       1.839   8.261  20.122  0.00  0.00    +0.000 A 
ATOM      4  C   UNL     1       2.230   8.555  18.835  0.00  0.00    +0.000 A 
ATOM      5  N   UNL     1       2.675   7.626  17.954  0.00  0.00    +0.000 NA
ATOM      6  C   UNL     1       2.751   6.316  18.320  0.00  0.00    +0.000 A 
ENDROOT
BRANCH   1  13
ATOM      7  C   UNL     1       4.935   1.877  20.179  0.00  0.00    +0.000 C 
ATOM      8  C   UNL     1       3.691   2.664  20.445  0.00  0.00    +0.000 A 
ATOM      9  N   UNL     1       2.812   2.184  21.325  0.00  0.00    +0.000 NA
ATOM     10  C   UNL     1       1.758   2.951  21.552  0.00  0.00    +0.000 A 
ATOM     11  N   UNL     1       0.887   2.517  22.530  0.00  0.00    +0.000 N 
ATOM     12  N   UNL     1       1.521   4.127  20.986  0.00  0.00    +0.000 NA
ATOM     13  C   UNL     1       2.463   4.535  20.135  0.00  0.00    +0.000 A 
ATOM     14  N   UNL     1       3.553   3.827  19.819  0.00  0.00    +0.000 NA
ATOM     15  H   UNL     1       1.364   1.842  23.116  0.00  0.00    +0.000 HD
ATOM     16  H   UNL     1       0.484   3.310  23.012  0.00  0.00    +0.000 HD
ENDBRANCH   1  13
BRANCH   6  17
ATOM     17  N   UNL     1       3.150   5.396  17.331  0.00  0.00    +0.000 N 
ATOM     18  H   UNL     1       2.405   4.834  16.935  0.00  0.00    +0.000 HD
BRANCH  17  19
ATOM     19  C   UNL     1       4.428   5.206  16.789  0.00  0.00    +0.000 A 
ATOM     20  C   UNL     1       5.274   6.259  16.474  0.00  0.00    +0.000 A 
ATOM     21  N   UNL     1       6.496   6.136  15.895  0.00  0.00    +0.000 NA
ATOM     22  C   UNL     1       6.869   4.882  15.596  0.00  0.00    +0.000 A 
ATOM     23  N   UNL     1       6.154   3.777  15.834  0.00  0.00    +0.000 NA
ATOM     24  C   UNL     1       4.944   3.976  16.413  0.00  0.00    +0.000 A 
ENDBRANCH  17  19
ENDBRANCH   6  17
BRANCH   3  25
ATOM     25  C   UNL     1       1.229   9.285  21.055  0.00  0.00    +0.000 C 
BRANCH  25  26
ATOM     26  N   UNL     1      -0.240   9.217  21.082  0.00  0.00    +0.000 NA
ATOM     27  C   UNL     1      -0.799   9.262  22.445  0.00  0.00    +0.000 C 
ATOM     28  C   UNL     1      -0.814  10.645  23.119  0.00  0.00    +0.000 C 
ATOM     29  N   UNL     1      -1.367  11.702  22.242  0.00  0.00    +0.000 NA
ATOM     30  C   UNL     1      -0.936  11.674  20.826  0.00  0.00    +0.000 C 
ATOM     31  C   UNL     1      -0.888  10.246  20.252  0.00  0.00    +0.000 C 
BRANCH  29  32
ATOM     32  S   UNL     1      -2.799  12.475  22.657  0.00  0.00    +0.000 S 
ATOM     33  C   UNL     1      -2.209  14.051  23.225  0.00  0.00    +0.000 C 
ATOM     34  O   UNL     1      -3.568  12.695  21.450  0.00  0.00    +0.000 OA
ATOM     35  O   UNL     1      -3.371  11.781  23.792  0.00  0.00    +0.000 OA
ENDBRANCH  29  32
ENDBRANCH  25  26
ENDBRANCH   3  25
TORSDOF 6
ENDMDL
MODEL 7
REMARK VINA RESULT:      -7.8      1.762      2.437
REMARK  Name = 
REMARK  8 active torsions:
REMARK  status: ('A' for Active; 'I' for Inactive)
REMARK    1  A    between atoms: C_1  and  C_2
REMARK    2  A    between atoms: C_7  and  C_8
REMARK    3  A    between atoms: C_10  and  C_11
REMARK    4  A    between atoms: C_11  and  N_12
REMARK    5  A    between atoms: N_15  and  S_16
REMARK    6  A    between atoms: S_16  and  C_17
REMARK    7  A    between atoms: C_24  and  N_25
REMARK    8  A    between atoms: N_25  and  C_26
REMARK                            x       y       z     vdW  Elec       q    Type
REMARK                         _______ _______ _______ _____ _____    ______ ____
ROOT
ATOM      1  C   UNL     1       2.274   6.865  18.664  0.00  0.00    +0.000 A 
ATOM      2  C   UNL     1       1.270   7.777  19.068  0.00  0.00    +0.000 A 
ATOM      3  C   UNL     1       1.264   9.117  18.681  0.00  0.00    +0.000 A 
ATOM      4  C   UNL     1       2.318   9.517  17.890  0.00  0.00    +0.000 A 
ATOM      5  N   UNL     1       3.303   8.683  17.472  0.00  0.00    +0.000 NA
ATOM      6  C   UNL     1       3.283   7.367  17.829  0.00  0.00    +0.000 A 
ENDROOT
BRANCH   1  13
ATOM      7  C   UNL     1       2.526   2.201  17.596  0.00  0.00    +0.000 C 
ATOM      8  C   UNL     1       2.339   3.279  18.615  0.00  0.00    +0.000 A 
ATOM      9  N   UNL     1       2.321   2.937  19.904  0.00  0.00    +0.000 NA
ATOM     10  C   UNL     1       2.202   3.941  20.757  0.00  0.00    +0.000 A 
ATOM     11  N   UNL     1       2.279   3.617  22.096  0.00  0.00    +0.000 N 
ATOM     12  N   UNL     1       2.105   5.224  20.433  0.00  0.00    +0.000 NA
ATOM     13  C   UNL     1       2.153   5.472  19.124  0.00  0.00    +0.000 A 
ATOM     14  N   UNL     1       2.247   4.529  18.179  0.00  0.00    +0.000 NA
ATOM     15  H   UNL     1       2.716   2.707  22.187  0.00  0.00    +0.000 HD
ATOM     16  H   UNL     1       2.718   4.369  22.610  0.00  0.00    +0.000 HD
ENDBRANCH   1  13
BRANCH   6  17
ATOM     17  N   UNL     1       4.295   6.545  17.297  0.00  0.00    +0.000 N 
ATOM     18  H   UNL     1       4.099   6.152  16.383  0.00  0.00    +0.000 HD
BRANCH  17  19
ATOM     19  C   UNL     1       5.552   6.254  17.843  0.00  0.00    +0.000 A 
ATOM     20  C   UNL     1       5.738   5.301  18.833  0.00  0.00    +0.000 A 
ATOM     21  N   UNL     1       6.920   5.019  19.438  0.00  0.00    +0.000 NA
ATOM     22  C   UNL     1       7.965   5.759  19.035  0.00  0.00    +0.000 A 
ATOM     23  N   UNL     1       7.930   6.715  18.099  0.00  0.00    +0.000 NA
ATOM     24  C   UNL     1       6.716   6.942  17.540  0.00  0.00    +0.000 A 
ENDBRANCH  17  19
ENDBRANCH   6  17
BRANCH   3  25
ATOM     25  C   UNL     1       0.109  10.027  19.039  0.00  0.00    +0.000 C 
BRANCH  25  26
ATOM     26  N   UNL     1       0.529  11.173  19.859  0.00  0.00    +0.000 NA
ATOM     27  C   UNL     1      -0.317  12.365  19.669  0.00  0.00    +0.000 C 
ATOM     28  C   UNL     1      -1.693  12.329  20.358  0.00  0.00    +0.000 C 
ATOM     29  N   UNL     1      -1.611  11.909  21.776  0.00  0.00    +0.000 NA
ATOM     30  C   UNL     1      -0.703  10.778  22.075  0.00  0.00    +0.000 C 
ATOM     31  C   UNL     1       0.621  10.861  21.295  0.00  0.00    +0.000 C 
BRANCH  29  32
ATOM     32  S   UNL     1      -2.023  12.986  22.996  0.00  0.00    +0.000 S 
ATOM     33  C   UNL     1      -2.788  14.300  22.077  0.00  0.00    +0.000 C 
ATOM     34  O   UNL     1      -3.040  12.373  23.826  0.00  0.00    +0.000 OA
ATOM     35  O   UNL     1      -0.799  13.502  23.571  0.00  0.00    +0.000 OA
ENDBRANCH  29  32
ENDBRANCH  25  26
ENDBRANCH   3  25
TORSDOF 6
ENDMDL
MODEL 8
REMARK VINA RESULT:      -7.8      1.898      2.406
REMARK  Name = 
REMARK  8 active torsions:
REMARK  status: ('A' for Active; 'I' for Inactive)
REMARK    1  A    between atoms: C_1  and  C_2
REMARK    2  A    between atoms: C_7  and  C_8
REMARK    3  A    between atoms: C_10  and  C_11
REMARK    4  A    between atoms: C_11  and  N_12
REMARK    5  A    between atoms: N_15  and  S_16
REMARK    6  A    between atoms: S_16  and  C_17
REMARK    7  A    between atoms: C_24  and  N_25
REMARK    8  A    between atoms: N_25  and  C_26
REMARK                            x       y       z     vdW  Elec       q    Type
REMARK                         _______ _______ _______ _____ _____    ______ ____
ROOT
ATOM      1  C   UNL     1       2.328   6.508  18.884  0.00  0.00    +0.000 A 
ATOM      2  C   UNL     1       1.483   7.474  19.480  0.00  0.00    +0.000 A 
ATOM      3  C   UNL     1       1.512   8.824  19.133  0.00  0.00    +0.000 A 
ATOM      4  C   UNL     1       2.440   9.176  18.178  0.00  0.00    +0.000 A 
ATOM      5  N   UNL     1       3.269   8.291  17.573  0.00  0.00    +0.000 NA
ATOM      6  C   UNL     1       3.211   6.967  17.896  0.00  0.00    +0.000 A 
ENDROOT
BRANCH   1  13
ATOM      7  C   UNL     1       2.570   1.854  17.772  0.00  0.00    +0.000 C 
ATOM      8  C   UNL     1       2.363   2.922  18.798  0.00  0.00    +0.000 A 
ATOM      9  N   UNL     1       2.306   2.567  20.082  0.00  0.00    +0.000 NA
ATOM     10  C   UNL     1       2.172   3.563  20.942  0.00  0.00    +0.000 A 
ATOM     11  N   UNL     1       2.208   3.223  22.280  0.00  0.00    +0.000 N 
ATOM     12  N   UNL     1       2.094   4.850  20.629  0.00  0.00    +0.000 NA
ATOM     13  C   UNL     1       2.181   5.111  19.325  0.00  0.00    +0.000 A 
ATOM     14  N   UNL     1       2.294   4.178  18.373  0.00  0.00    +0.000 NA
ATOM     15  H   UNL     1       2.635   2.309  22.373  0.00  0.00    +0.000 HD
ATOM     16  H   UNL     1       2.639   3.966  22.813  0.00  0.00    +0.000 HD
ENDBRANCH   1  13
BRANCH   6  17
ATOM     17  N   UNL     1       4.049   6.095  17.174  0.00  0.00    +0.000 N 
ATOM     18  H   UNL     1       3.676   5.770  16.289  0.00  0.00    +0.000 HD
BRANCH  17  19
ATOM     19  C   UNL     1       5.345   5.672  17.498  0.00  0.00    +0.000 A 
ATOM     20  C   UNL     1       6.282   5.323  16.537  0.00  0.00    +0.000 A 
ATOM     21  N   UNL     1       7.529   4.852  16.793  0.00  0.00    +0.000 NA
ATOM     22  C   UNL     1       7.833   4.704  18.092  0.00  0.00    +0.000 A 
ATOM     23  N   UNL     1       7.028   4.992  19.121  0.00  0.00    +0.000 NA
ATOM     24  C   UNL     1       5.798   5.456  18.789  0.00  0.00    +0.000 A 
ENDBRANCH  17  19
ENDBRANCH   6  17
BRANCH   3  25
ATOM     25  C   UNL     1       0.510   9.801  19.710  0.00  0.00    +0.000 C 
BRANCH  25  26
ATOM     26  N   UNL     1       1.038  10.523  20.877  0.00  0.00    +0.000 NA
ATOM     27  C   UNL     1       1.412  11.917  20.579  0.00  0.00    +0.000 C 
ATOM     28  C   UNL     1       0.245  12.911  20.444  0.00  0.00    +0.000 C 
ATOM     29  N   UNL     1      -0.724  12.809  21.559  0.00  0.00    +0.000 NA
ATOM     30  C   UNL     1      -1.082  11.440  21.995  0.00  0.00    +0.000 C 
ATOM     31  C   UNL     1       0.133  10.496  22.039  0.00  0.00    +0.000 C 
BRANCH  29  32
ATOM     32  S   UNL     1      -0.923  14.095  22.620  0.00  0.00    +0.000 S 
ATOM     33  C   UNL     1      -2.011  15.158  21.701  0.00  0.00    +0.000 C 
ATOM     34  O   UNL     1      -1.642  13.622  23.785  0.00  0.00    +0.000 OA
ATOM     35  O   UNL     1       0.350  14.772  22.750  0.00  0.00    +0.000 OA
ENDBRANCH  29  32
ENDBRANCH  25  26
ENDBRANCH   3  25
TORSDOF 6
ENDMDL
MODEL 9
REMARK VINA RESULT:      -7.7      1.648      2.389
REMARK  Name = 
REMARK  8 active torsions:
REMARK  status: ('A' for Active; 'I' for Inactive)
REMARK    1  A    between atoms: C_1  and  C_2
REMARK    2  A    between atoms: C_7  and  C_8
REMARK    3  A    between atoms: C_10  and  C_11
REMARK    4  A    between atoms: C_11  and  N_12
REMARK    5  A    between atoms: N_15  and  S_16
REMARK    6  A    between atoms: S_16  and  C_17
REMARK    7  A    between atoms: C_24  and  N_25
REMARK    8  A    between atoms: N_25  and  C_26
REMARK                            x       y       z     vdW  Elec       q    Type
REMARK                         _______ _______ _______ _____ _____    ______ ____
ROOT
ATOM      1  C   UNL     1       3.027   5.935  18.582  0.00  0.00    +0.000 A 
ATOM      2  C   UNL     1       2.041   6.932  18.777  0.00  0.00    +0.000 A 
ATOM      3  C   UNL     1       2.142   8.213  18.235  0.00  0.00    +0.000 A 
ATOM      4  C   UNL     1       3.282   8.467  17.506  0.00  0.00    +0.000 A 
ATOM      5  N   UNL     1       4.253   7.547  17.285  0.00  0.00    +0.000 NA
ATOM      6  C   UNL     1       4.131   6.287  17.792  0.00  0.00    +0.000 A 
ENDROOT
BRANCH   1  13
ATOM      7  C   UNL     1       3.604   1.185  18.328  0.00  0.00    +0.000 C 
ATOM      8  C   UNL     1       3.128   2.384  19.084  0.00  0.00    +0.000 A 
ATOM      9  N   UNL     1       2.748   2.226  20.352  0.00  0.00    +0.000 NA
ATOM     10  C   UNL     1       2.385   3.333  20.980  0.00  0.00    +0.000 A 
ATOM     11  N   UNL     1       2.081   3.202  22.320  0.00  0.00    +0.000 N 
ATOM     12  N   UNL     1       2.374   4.551  20.455  0.00  0.00    +0.000 NA
ATOM     13  C   UNL     1       2.789   4.616  19.190  0.00  0.00    +0.000 A 
ATOM     14  N   UNL     1       3.154   3.556  18.459  0.00  0.00    +0.000 NA
ATOM     15  H   UNL     1       2.482   2.337  22.662  0.00  0.00    +0.000 HD
ATOM     16  H   UNL     1       2.352   4.039  22.818  0.00  0.00    +0.000 HD
ENDBRANCH   1  13
BRANCH   6  17
ATOM     17  N   UNL     1       5.141   5.363  17.461  0.00  0.00    +0.000 N 
ATOM     18  H   UNL     1       5.427   4.744  18.212  0.00  0.00    +0.000 HD
BRANCH  17  19
ATOM     19  C   UNL     1       5.752   5.155  16.217  0.00  0.00    +0.000 A 
ATOM     20  C   UNL     1       5.183   4.372  15.223  0.00  0.00    +0.000 A 
ATOM     21  N   UNL     1       5.756   4.089  14.025  0.00  0.00    +0.000 NA
ATOM     22  C   UNL     1       6.978   4.608  13.834  0.00  0.00    +0.000 A 
ATOM     23  N   UNL     1       7.648   5.372  14.704  0.00  0.00    +0.000 NA
ATOM     24  C   UNL     1       7.016   5.611  15.879  0.00  0.00    +0.000 A 
ENDBRANCH  17  19
ENDBRANCH   6  17
BRANCH   3  25
ATOM     25  C   UNL     1       1.010   9.208  18.371  0.00  0.00    +0.000 C 
BRANCH  25  26
ATOM     26  N   UNL     1       1.343  10.318  19.276  0.00  0.00    +0.000 NA
ATOM     27  C   UNL     1       0.808  11.616  18.827  0.00  0.00    +0.000 C 
ATOM     28  C   UNL     1      -0.699  11.835  19.052  0.00  0.00    +0.000 C 
ATOM     29  N   UNL     1      -1.128  11.488  20.426  0.00  0.00    +0.000 NA
ATOM     30  C   UNL     1      -0.559  10.247  20.999  0.00  0.00    +0.000 C 
ATOM     31  C   UNL     1       0.936  10.076  20.671  0.00  0.00    +0.000 C 
BRANCH  29  32
ATOM     32  S   UNL     1      -1.710  12.683  21.452  0.00  0.00    +0.000 S 
ATOM     33  C   UNL     1      -1.487  14.145  20.468  0.00  0.00    +0.000 C 
ATOM     34  O   UNL     1      -3.132  12.481  21.634  0.00  0.00    +0.000 OA
ATOM     35  O   UNL     1      -0.815  12.774  22.587  0.00  0.00    +0.000 OA
ENDBRANCH  29  32
ENDBRANCH  25  26
ENDBRANCH   3  25
TORSDOF 6
ENDMDL
