MODEL 1
REMARK VINA RESULT:      -7.9      0.000      0.000
REMARK  Name = 
REMARK  7 active torsions:
REMARK  status: ('A' for Active; 'I' for Inactive)
REMARK    1  A    between atoms: C_1  and  C_2
REMARK    2  A    between atoms: C_2  and  O_3
REMARK    3  A    between atoms: C_7  and  C_9
REMARK    4  A    between atoms: C_9  and  C_10
REMARK    5  A    between atoms: C_10  and  C_11
REMARK    6  A    between atoms: C_14  and  C_15
REMARK    7  A    between atoms: C_24  and  O_25
REMARK                            x       y       z     vdW  Elec       q    Type
REMARK                         _______ _______ _______ _____ _____    ______ ____
ROOT
ATOM      1  C   UNL     1       2.537   6.533  18.182  0.00  0.00    +0.000 C 
ENDROOT
BRANCH   1   7
ATOM      2  C   UNL     1       7.226   5.011  14.326  0.00  0.00    +0.000 C 
ATOM      3  C   UNL     1       6.621   4.843  15.724  0.00  0.00    +0.000 C 
ATOM      4  C   UNL     1       5.511   3.774  15.681  0.00  0.00    +0.000 C 
ATOM      5  C   UNL     1       4.759   3.663  17.005  0.00  0.00    +0.000 C 
ATOM      6  N   UNL     1       4.288   4.972  17.445  0.00  0.00    +0.000 N 
ATOM      7  C   UNL     1       2.942   5.138  17.766  0.00  0.00    +0.000 C 
ATOM      8  O   UNL     1       2.122   4.224  17.682  0.00  0.00    +0.000 OA
ATOM      9  C   UNL     1       5.332   6.004  17.585  0.00  0.00    +0.000 C 
ATOM     10  C   UNL     1       6.077   6.193  16.256  0.00  0.00    +0.000 C 
BRANCH   3  11
ATOM     11  O   UNL     1       7.696   4.382  16.559  0.00  0.00    +0.000 OA
ATOM     12  H   UNL     1       7.359   3.759  17.224  0.00  0.00    +0.000 HD
ENDBRANCH   3  11
BRANCH  10  13
ATOM     13  O   UNL     1       5.182   6.811  15.322  0.00  0.00    +0.000 OA
ATOM     14  H   UNL     1       4.695   7.508  15.799  0.00  0.00    +0.000 HD
ENDBRANCH  10  13
ENDBRANCH   1   7
BRANCH   1  15
ATOM     15  C   UNL     1       2.532   6.757  19.692  0.00  0.00    +0.000 C 
BRANCH  15  16
ATOM     16  C   UNL     1       1.665   7.927  20.109  0.00  0.00    +0.000 A 
ATOM     17  C   UNL     1       1.380   8.997  19.252  0.00  0.00    +0.000 A 
ATOM     18  C   UNL     1       0.577  10.063  19.666  0.00  0.00    +0.000 A 
ATOM     19  C   UNL     1      -0.013  10.086  20.938  0.00  0.00    +0.000 A 
ATOM     20  C   UNL     1       0.254   8.991  21.779  0.00  0.00    +0.000 A 
ATOM     21  C   UNL     1       1.081   7.933  21.378  0.00  0.00    +0.000 A 
BRANCH  19  22
ATOM     22  C   UNL     1      -0.890  11.204  21.363  0.00  0.00    +0.000 A 
ATOM     23  C   UNL     1      -1.437  12.107  20.430  0.00  0.00    +0.000 A 
ATOM     24  C   UNL     1      -2.283  13.147  20.826  0.00  0.00    +0.000 A 
ATOM     25  C   UNL     1      -2.613  13.303  22.166  0.00  0.00    +0.000 A 
ATOM     26  C   UNL     1      -2.084  12.431  23.112  0.00  0.00    +0.000 A 
ATOM     27  C   UNL     1      -1.225  11.402  22.714  0.00  0.00    +0.000 A 
ENDBRANCH  19  22
ENDBRANCH  15  16
ENDBRANCH   1  15
TORSDOF 6
ENDMDL
MODEL 2
REMARK VINA RESULT:      -7.9      0.661      1.237
REMARK  Name = 
REMARK  7 active torsions:
REMARK  status: ('A' for Active; 'I' for Inactive)
REMARK    1  A    between atoms: C_1  and  C_2
REMARK    2  A    between atoms: C_2  and  O_3
REMARK    3  A    between atoms: C_7  and  C_9
REMARK    4  A    between atoms: C_9  and  C_10
REMARK    5  A    between atoms: C_10  and  C_11
REMARK    6  A    between atoms: C_14  and  C_15
REMARK    7  A    between atoms: C_24  and  O_25
REMARK                            x       y       z     vdW  Elec       q    Type
REMARK                         _______ _______ _______ _____ _____    ______ ____
ROOT
ATOM      1  C   UNL     1       3.078   6.474  18.984  0.00  0.00    +0.000 C 
ENDROOT
BRANCH   1   7
ATOM      2  C   UNL     1       7.312   5.130  14.575  0.00  0.00    +0.000 C 
ATOM      3  C   UNL     1       6.756   4.774  15.959  0.00  0.00    +0.000 C 
ATOM      4  C   UNL     1       5.503   3.890  15.799  0.00  0.00    +0.000 C 
ATOM      5  C   UNL     1       4.807   3.622  17.132  0.00  0.00    +0.000 C 
ATOM      6  N   UNL     1       4.550   4.871  17.842  0.00  0.00    +0.000 N 
ATOM      7  C   UNL     1       3.258   5.146  18.287  0.00  0.00    +0.000 C 
ATOM      8  O   UNL     1       2.313   4.383  18.095  0.00  0.00    +0.000 OA
ATOM      9  C   UNL     1       5.737   5.709  18.093  0.00  0.00    +0.000 C 
ATOM     10  C   UNL     1       6.437   6.054  16.772  0.00  0.00    +0.000 C 
BRANCH   3  11
ATOM     11  O   UNL     1       7.792   4.021  16.611  0.00  0.00    +0.000 OA
ATOM     12  H   UNL     1       7.799   4.217  17.562  0.00  0.00    +0.000 HD
ENDBRANCH   3  11
BRANCH  10  13
ATOM     13  O   UNL     1       5.596   6.955  16.038  0.00  0.00    +0.000 OA
ATOM     14  H   UNL     1       6.138   7.727  15.792  0.00  0.00    +0.000 HD
ENDBRANCH  10  13
ENDBRANCH   1   7
BRANCH   1  15
ATOM     15  C   UNL     1       2.568   7.592  18.079  0.00  0.00    +0.000 C 
BRANCH  15  16
ATOM     16  C   UNL     1       1.677   8.577  18.806  0.00  0.00    +0.000 A 
ATOM     17  C   UNL     1       1.024   9.628  18.151  0.00  0.00    +0.000 A 
ATOM     18  C   UNL     1       0.208  10.523  18.851  0.00  0.00    +0.000 A 
ATOM     19  C   UNL     1      -0.026  10.380  20.226  0.00  0.00    +0.000 A 
ATOM     20  C   UNL     1       0.610   9.302  20.868  0.00  0.00    +0.000 A 
ATOM     21  C   UNL     1       1.450   8.419  20.175  0.00  0.00    +0.000 A 
BRANCH  19  22
ATOM     22  C   UNL     1      -0.917  11.312  20.960  0.00  0.00    +0.000 A 
ATOM     23  C   UNL     1      -0.881  11.413  22.364  0.00  0.00    +0.000 A 
ATOM     24  C   UNL     1      -1.703  12.308  23.056  0.00  0.00    +0.000 A 
ATOM     25  C   UNL     1      -2.576  13.133  22.357  0.00  0.00    +0.000 A 
ATOM     26  C   UNL     1      -2.639  13.051  20.970  0.00  0.00    +0.000 A 
ATOM     27  C   UNL     1      -1.827  12.143  20.283  0.00  0.00    +0.000 A 
ENDBRANCH  19  22
ENDBRANCH  15  16
ENDBRANCH   1  15
TORSDOF 6
ENDMDL
MODEL 3
REMARK VINA RESULT:      -7.8      0.077      1.358
REMARK  Name = 
REMARK  7 active torsions:
REMARK  status: ('A' for Active; 'I' for Inactive)
REMARK    1  A    between atoms: C_1  and  C_2
REMARK    2  A    between atoms: C_2  and  O_3
REMARK    3  A    between atoms: C_7  and  C_9
REMARK    4  A    between atoms: C_9  and  C_10
REMARK    5  A    between atoms: C_10  and  C_11
REMARK    6  A    between atoms: C_14  and  C_15
REMARK    7  A    between atoms: C_24  and  O_25
REMARK                            x       y       z     vdW  Elec       q    Type
REMARK                         _______ _______ _______ _____ _____    ______ ____
ROOT
ATOM      1  C   UNL     1       2.522   6.514  18.235  0.00  0.00    +0.000 C 
ENDROOT
BRANCH   1   7
ATOM      2  C   UNL     1       7.207   5.002  14.370  0.00  0.00    +0.000 C 
ATOM      3  C   UNL     1       6.615   4.849  15.776  0.00  0.00    +0.000 C 
ATOM      4  C   UNL     1       5.522   3.762  15.758  0.00  0.00    +0.000 C 
ATOM      5  C   UNL     1       4.782   3.661  17.090  0.00  0.00    +0.000 C 
ATOM      6  N   UNL     1       4.293   4.970  17.512  0.00  0.00    +0.000 N 
ATOM      7  C   UNL     1       2.946   5.119  17.839  0.00  0.00    +0.000 C 
ATOM      8  O   UNL     1       2.141   4.192  17.777  0.00  0.00    +0.000 OA
ATOM      9  C   UNL     1       5.321   6.021  17.626  0.00  0.00    +0.000 C 
ATOM     10  C   UNL     1       6.053   6.199  16.288  0.00  0.00    +0.000 C 
BRANCH   3  11
ATOM     11  O   UNL     1       7.703   4.419  16.610  0.00  0.00    +0.000 OA
ATOM     12  H   UNL     1       8.257   3.779  16.133  0.00  0.00    +0.000 HD
ENDBRANCH   3  11
BRANCH  10  13
ATOM     13  O   UNL     1       5.141   6.787  15.350  0.00  0.00    +0.000 OA
ATOM     14  H   UNL     1       5.635   7.454  14.840  0.00  0.00    +0.000 HD
ENDBRANCH  10  13
ENDBRANCH   1   7
BRANCH   1  15
ATOM     15  C   UNL     1       2.585   6.784  19.736  0.00  0.00    +0.000 C 
BRANCH  15  16
ATOM     16  C   UNL     1       1.670   7.912  20.168  0.00  0.00    +0.000 A 
ATOM     17  C   UNL     1       1.102   7.973  21.446  0.00  0.00    +0.000 A 
ATOM     18  C   UNL     1       0.260   9.026  21.816  0.00  0.00    +0.000 A 
ATOM     19  C   UNL     1      -0.014  10.087  20.941  0.00  0.00    +0.000 A 
ATOM     20  C   UNL     1       0.588  10.032  19.671  0.00  0.00    +0.000 A 
ATOM     21  C   UNL     1       1.410   8.964  19.287  0.00  0.00    +0.000 A 
BRANCH  19  22
ATOM     22  C   UNL     1      -0.882  11.220  21.347  0.00  0.00    +0.000 A 
ATOM     23  C   UNL     1      -1.241  11.426  22.693  0.00  0.00    +0.000 A 
ATOM     24  C   UNL     1      -2.040  12.506  23.081  0.00  0.00    +0.000 A 
ATOM     25  C   UNL     1      -2.490  13.415  22.131  0.00  0.00    +0.000 A 
ATOM     26  C   UNL     1      -2.157  13.234  20.793  0.00  0.00    +0.000 A 
ATOM     27  C   UNL     1      -1.372  12.143  20.407  0.00  0.00    +0.000 A 
ENDBRANCH  19  22
ENDBRANCH  15  16
ENDBRANCH   1  15
TORSDOF 6
ENDMDL
MODEL 4
REMARK VINA RESULT:      -7.8      0.677      1.247
REMARK  Name = 
REMARK  7 active torsions:
REMARK  status: ('A' for Active; 'I' for Inactive)
REMARK    1  A    between atoms: C_1  and  C_2
REMARK    2  A    between atoms: C_2  and  O_3
REMARK    3  A    between atoms: C_7  and  C_9
REMARK    4  A    between atoms: C_9  and  C_10
REMARK    5  A    between atoms: C_10  and  C_11
REMARK    6  A    between atoms: C_14  and  C_15
REMARK    7  A    between atoms: C_24  and  O_25
REMARK                            x       y       z     vdW  Elec       q    Type
REMARK                         _______ _______ _______ _____ _____    ______ ____
ROOT
ATOM      1  C   UNL     1       3.156   6.655  18.946  0.00  0.00    +0.000 C 
ENDROOT
BRANCH   1   7
ATOM      2  C   UNL     1       7.247   5.049  14.490  0.00  0.00    +0.000 C 
ATOM      3  C   UNL     1       6.713   4.752  15.896  0.00  0.00    +0.000 C 
ATOM      4  C   UNL     1       5.432   3.902  15.791  0.00  0.00    +0.000 C 
ATOM      5  C   UNL     1       4.759   3.696  17.147  0.00  0.00    +0.000 C 
ATOM      6  N   UNL     1       4.555   4.973  17.823  0.00  0.00    +0.000 N 
ATOM      7  C   UNL     1       3.281   5.302  18.287  0.00  0.00    +0.000 C 
ATOM      8  O   UNL     1       2.310   4.561  18.140  0.00  0.00    +0.000 OA
ATOM      9  C   UNL     1       5.771   5.783  18.022  0.00  0.00    +0.000 C 
ATOM     10  C   UNL     1       6.451   6.066  16.675  0.00  0.00    +0.000 C 
BRANCH   3  11
ATOM     11  O   UNL     1       7.741   3.989  16.548  0.00  0.00    +0.000 OA
ATOM     12  H   UNL     1       7.365   3.178  16.928  0.00  0.00    +0.000 HD
ENDBRANCH   3  11
BRANCH  10  13
ATOM     13  O   UNL     1       5.620   6.969  15.932  0.00  0.00    +0.000 OA
ATOM     14  H   UNL     1       5.162   7.542  16.574  0.00  0.00    +0.000 HD
ENDBRANCH  10  13
ENDBRANCH   1   7
BRANCH   1  15
ATOM     15  C   UNL     1       2.524   7.725  18.061  0.00  0.00    +0.000 C 
BRANCH  15  16
ATOM     16  C   UNL     1       1.600   8.650  18.826  0.00  0.00    +0.000 A 
ATOM     17  C   UNL     1       1.408   8.547  20.209  0.00  0.00    +0.000 A 
ATOM     18  C   UNL     1       0.548   9.415  20.888  0.00  0.00    +0.000 A 
ATOM     19  C   UNL     1      -0.122  10.452  20.224  0.00  0.00    +0.000 A 
ATOM     20  C   UNL     1       0.103  10.567  18.840  0.00  0.00    +0.000 A 
ATOM     21  C   UNL     1       0.944   9.681  18.151  0.00  0.00    +0.000 A 
BRANCH  19  22
ATOM     22  C   UNL     1      -1.009  11.392  20.952  0.00  0.00    +0.000 A 
ATOM     23  C   UNL     1      -1.948  12.194  20.274  0.00  0.00    +0.000 A 
ATOM     24  C   UNL     1      -2.802  13.063  20.961  0.00  0.00    +0.000 A 
ATOM     25  C   UNL     1      -2.745  13.142  22.346  0.00  0.00    +0.000 A 
ATOM     26  C   UNL     1      -1.824  12.367  23.044  0.00  0.00    +0.000 A 
ATOM     27  C   UNL     1      -0.961  11.511  22.352  0.00  0.00    +0.000 A 
ENDBRANCH  19  22
ENDBRANCH  15  16
ENDBRANCH   1  15
TORSDOF 6
ENDMDL
MODEL 5
REMARK VINA RESULT:      -7.6      4.336     10.223
REMARK  Name = 
REMARK  7 active torsions:
REMARK  status: ('A' for Active; 'I' for Inactive)
REMARK    1  A    between atoms: C_1  and  C_2
REMARK    2  A    between atoms: C_2  and  O_3
REMARK    3  A    between atoms: C_7  and  C_9
REMARK    4  A    between atoms: C_9  and  C_10
REMARK    5  A    between atoms: C_10  and  C_11
REMARK    6  A    between atoms: C_14  and  C_15
REMARK    7  A    between atoms: C_24  and  O_25
REMARK                            x       y       z     vdW  Elec       q    Type
REMARK                         _______ _______ _______ _____ _____    ______ ____
ROOT
ATOM      1  C   UNL     1       0.021  11.385  19.822  0.00  0.00    +0.000 C 
ENDROOT
BRANCH   1   7
ATOM      2  C   UNL     1      -4.073  12.549  24.411  0.00  0.00    +0.000 C 
ATOM      3  C   UNL     1      -3.352  13.101  23.177  0.00  0.00    +0.000 C 
ATOM      4  C   UNL     1      -4.081  12.633  21.902  0.00  0.00    +0.000 C 
ATOM      5  C   UNL     1      -3.331  13.019  20.629  0.00  0.00    +0.000 C 
ATOM      6  N   UNL     1      -1.940  12.584  20.695  0.00  0.00    +0.000 N 
ATOM      7  C   UNL     1      -1.418  11.816  19.655  0.00  0.00    +0.000 C 
ATOM      8  O   UNL     1      -2.086  11.474  18.681  0.00  0.00    +0.000 OA
ATOM      9  C   UNL     1      -1.178  13.080  21.856  0.00  0.00    +0.000 C 
ATOM     10  C   UNL     1      -1.865  12.664  23.164  0.00  0.00    +0.000 C 
BRANCH   3  11
ATOM     11  O   UNL     1      -3.444  14.531  23.282  0.00  0.00    +0.000 OA
ATOM     12  H   UNL     1      -2.683  14.948  22.845  0.00  0.00    +0.000 HD
ENDBRANCH   3  11
BRANCH  10  13
ATOM     13  O   UNL     1      -1.727  11.244  23.312  0.00  0.00    +0.000 OA
ATOM     14  H   UNL     1      -2.559  10.906  23.692  0.00  0.00    +0.000 HD
ENDBRANCH  10  13
ENDBRANCH   1   7
BRANCH   1  15
ATOM     15  C   UNL     1       0.194  10.057  20.556  0.00  0.00    +0.000 C 
BRANCH  15  16
ATOM     16  C   UNL     1       1.093   9.090  19.815  0.00  0.00    +0.000 A 
ATOM     17  C   UNL     1       1.535   7.888  20.380  0.00  0.00    +0.000 A 
ATOM     18  C   UNL     1       2.365   7.015  19.671  0.00  0.00    +0.000 A 
ATOM     19  C   UNL     1       2.754   7.283  18.350  0.00  0.00    +0.000 A 
ATOM     20  C   UNL     1       2.278   8.478  17.781  0.00  0.00    +0.000 A 
ATOM     21  C   UNL     1       1.468   9.369  18.498  0.00  0.00    +0.000 A 
BRANCH  19  22
ATOM     22  C   UNL     1       3.609   6.340  17.589  0.00  0.00    +0.000 A 
ATOM     23  C   UNL     1       3.406   4.947  17.652  0.00  0.00    +0.000 A 
ATOM     24  C   UNL     1       4.196   4.058  16.917  0.00  0.00    +0.000 A 
ATOM     25  C   UNL     1       5.203   4.541  16.091  0.00  0.00    +0.000 A 
ATOM     26  C   UNL     1       5.432   5.911  16.013  0.00  0.00    +0.000 A 
ATOM     27  C   UNL     1       4.650   6.797  16.763  0.00  0.00    +0.000 A 
ENDBRANCH  19  22
ENDBRANCH  15  16
ENDBRANCH   1  15
TORSDOF 6
ENDMDL
MODEL 6
REMARK VINA RESULT:      -7.6      2.210      2.566
REMARK  Name = 
REMARK  7 active torsions:
REMARK  status: ('A' for Active; 'I' for Inactive)
REMARK    1  A    between atoms: C_1  and  C_2
REMARK    2  A    between atoms: C_2  and  O_3
REMARK    3  A    between atoms: C_7  and  C_9
REMARK    4  A    between atoms: C_9  and  C_10
REMARK    5  A    between atoms: C_10  and  C_11
REMARK    6  A    between atoms: C_14  and  C_15
REMARK    7  A    between atoms: C_24  and  O_25
REMARK                            x       y       z     vdW  Elec       q    Type
REMARK                         _______ _______ _______ _____ _____    ______ ____
ROOT
ATOM      1  C   UNL     1       3.090   4.681  19.069  0.00  0.00    +0.000 C 
ENDROOT
BRANCH   1   7
ATOM      2  C   UNL     1       7.280   4.892  14.425  0.00  0.00    +0.000 C 
ATOM      3  C   UNL     1       6.907   5.384  15.828  0.00  0.00    +0.000 C 
ATOM      4  C   UNL     1       7.301   4.318  16.869  0.00  0.00    +0.000 C 
ATOM      5  C   UNL     1       6.821   4.674  18.275  0.00  0.00    +0.000 C 
ATOM      6  N   UNL     1       5.396   4.984  18.272  0.00  0.00    +0.000 N 
ATOM      7  C   UNL     1       4.553   4.319  19.162  0.00  0.00    +0.000 C 
ATOM      8  O   UNL     1       4.960   3.466  19.949  0.00  0.00    +0.000 OA
ATOM      9  C   UNL     1       4.986   6.061  17.351  0.00  0.00    +0.000 C 
ATOM     10  C   UNL     1       5.396   5.718  15.912  0.00  0.00    +0.000 C 
BRANCH   3  11
ATOM     11  O   UNL     1       7.687   6.572  16.041  0.00  0.00    +0.000 OA
ATOM     12  H   UNL     1       7.302   7.099  16.761  0.00  0.00    +0.000 HD
ENDBRANCH   3  11
BRANCH  10  13
ATOM     13  O   UNL     1       4.584   4.625  15.461  0.00  0.00    +0.000 OA
ATOM     14  H   UNL     1       3.711   4.713  15.886  0.00  0.00    +0.000 HD
ENDBRANCH  10  13
ENDBRANCH   1   7
BRANCH   1  15
ATOM     15  C   UNL     1       2.558   5.451  20.275  0.00  0.00    +0.000 C 
BRANCH  15  16
ATOM     16  C   UNL     1       2.091   6.848  19.921  0.00  0.00    +0.000 A 
ATOM     17  C   UNL     1       2.247   7.392  18.641  0.00  0.00    +0.000 A 
ATOM     18  C   UNL     1       1.806   8.685  18.344  0.00  0.00    +0.000 A 
ATOM     19  C   UNL     1       1.149   9.474  19.300  0.00  0.00    +0.000 A 
ATOM     20  C   UNL     1       0.969   8.904  20.574  0.00  0.00    +0.000 A 
ATOM     21  C   UNL     1       1.434   7.619  20.883  0.00  0.00    +0.000 A 
BRANCH  19  22
ATOM     22  C   UNL     1       0.654  10.833  18.974  0.00  0.00    +0.000 A 
ATOM     23  C   UNL     1       1.511  11.951  18.983  0.00  0.00    +0.000 A 
ATOM     24  C   UNL     1       1.051  13.230  18.652  0.00  0.00    +0.000 A 
ATOM     25  C   UNL     1      -0.277  13.419  18.293  0.00  0.00    +0.000 A 
ATOM     26  C   UNL     1      -1.150  12.336  18.280  0.00  0.00    +0.000 A 
ATOM     27  C   UNL     1      -0.690  11.061  18.627  0.00  0.00    +0.000 A 
ENDBRANCH  19  22
ENDBRANCH  15  16
ENDBRANCH   1  15
TORSDOF 6
ENDMDL
MODEL 7
REMARK VINA RESULT:      -7.6      5.128      7.950
REMARK  Name = 
REMARK  7 active torsions:
REMARK  status: ('A' for Active; 'I' for Inactive)
REMARK    1  A    between atoms: C_1  and  C_2
REMARK    2  A    between atoms: C_2  and  O_3
REMARK    3  A    between atoms: C_7  and  C_9
REMARK    4  A    between atoms: C_9  and  C_10
REMARK    5  A    between atoms: C_10  and  C_11
REMARK    6  A    between atoms: C_14  and  C_15
REMARK    7  A    between atoms: C_24  and  O_25
REMARK                            x       y       z     vdW  Elec       q    Type
REMARK                         _______ _______ _______ _____ _____    ______ ____
ROOT
ATOM      1  C   UNL     1       4.975   5.558  17.138  0.00  0.00    +0.000 C 
ENDROOT
BRANCH   1   7
ATOM      2  C   UNL     1       1.663   2.846  21.704  0.00  0.00    +0.000 C 
ATOM      3  C   UNL     1       1.645   3.405  20.277  0.00  0.00    +0.000 C 
ATOM      4  C   UNL     1       2.197   2.347  19.302  0.00  0.00    +0.000 C 
ATOM      5  C   UNL     1       2.352   2.889  17.882  0.00  0.00    +0.000 C 
ATOM      6  N   UNL     1       3.115   4.132  17.883  0.00  0.00    +0.000 N 
ATOM      7  C   UNL     1       4.227   4.248  17.049  0.00  0.00    +0.000 C 
ATOM      8  O   UNL     1       4.603   3.336  16.314  0.00  0.00    +0.000 OA
ATOM      9  C   UNL     1       2.574   5.205  18.738  0.00  0.00    +0.000 C 
ATOM     10  C   UNL     1       2.456   4.723  20.190  0.00  0.00    +0.000 C 
BRANCH   3  11
ATOM     11  O   UNL     1       0.263   3.657  19.977  0.00  0.00    +0.000 OA
ATOM     12  H   UNL     1      -0.305   3.047  20.477  0.00  0.00    +0.000 HD
ENDBRANCH   3  11
BRANCH  10  13
ATOM     13  O   UNL     1       3.779   4.569  20.722  0.00  0.00    +0.000 OA
ATOM     14  H   UNL     1       4.373   4.362  19.977  0.00  0.00    +0.000 HD
ENDBRANCH  10  13
ENDBRANCH   1   7
BRANCH   1  15
ATOM     15  C   UNL     1       6.493   5.408  17.192  0.00  0.00    +0.000 C 
BRANCH  15  16
ATOM     16  C   UNL     1       7.190   6.663  17.673  0.00  0.00    +0.000 A 
ATOM     17  C   UNL     1       8.103   6.658  18.734  0.00  0.00    +0.000 A 
ATOM     18  C   UNL     1       8.730   7.834  19.157  0.00  0.00    +0.000 A 
ATOM     19  C   UNL     1       8.507   9.058  18.509  0.00  0.00    +0.000 A 
ATOM     20  C   UNL     1       7.612   9.045  17.424  0.00  0.00    +0.000 A 
ATOM     21  C   UNL     1       6.961   7.874  17.015  0.00  0.00    +0.000 A 
BRANCH  19  22
ATOM     22  C   UNL     1       9.198  10.297  18.940  0.00  0.00    +0.000 A 
ATOM     23  C   UNL     1       9.659  11.246  18.006  0.00  0.00    +0.000 A 
ATOM     24  C   UNL     1      10.289  12.427  18.410  0.00  0.00    +0.000 A 
ATOM     25  C   UNL     1      10.464  12.693  19.762  0.00  0.00    +0.000 A 
ATOM     26  C   UNL     1      10.026  11.773  20.709  0.00  0.00    +0.000 A 
ATOM     27  C   UNL     1       9.410  10.586  20.299  0.00  0.00    +0.000 A 
ENDBRANCH  19  22
ENDBRANCH  15  16
ENDBRANCH   1  15
TORSDOF 6
ENDMDL
MODEL 8
REMARK VINA RESULT:      -7.6      2.178      2.714
REMARK  Name = 
REMARK  7 active torsions:
REMARK  status: ('A' for Active; 'I' for Inactive)
REMARK    1  A    between atoms: C_1  and  C_2
REMARK    2  A    between atoms: C_2  and  O_3
REMARK    3  A    between atoms: C_7  and  C_9
REMARK    4  A    between atoms: C_9  and  C_10
REMARK    5  A    between atoms: C_10  and  C_11
REMARK    6  A    between atoms: C_14  and  C_15
REMARK    7  A    between atoms: C_24  and  O_25
REMARK                            x       y       z     vdW  Elec       q    Type
REMARK                         _______ _______ _______ _____ _____    ______ ____
ROOT
ATOM      1  C   UNL     1       3.114   4.671  19.037  0.00  0.00    +0.000 C 
ENDROOT
BRANCH   1   7
ATOM      2  C   UNL     1       7.261   4.876  14.353  0.00  0.00    +0.000 C 
ATOM      3  C   UNL     1       6.910   5.357  15.766  0.00  0.00    +0.000 C 
ATOM      4  C   UNL     1       7.298   4.272  16.790  0.00  0.00    +0.000 C 
ATOM      5  C   UNL     1       6.838   4.618  18.205  0.00  0.00    +0.000 C 
ATOM      6  N   UNL     1       5.417   4.950  18.220  0.00  0.00    +0.000 N 
ATOM      7  C   UNL     1       4.573   4.286  19.111  0.00  0.00    +0.000 C 
ATOM      8  O   UNL     1       4.975   3.417  19.883  0.00  0.00    +0.000 OA
ATOM      9  C   UNL     1       5.014   6.043  17.317  0.00  0.00    +0.000 C 
ATOM     10  C   UNL     1       5.405   5.712  15.870  0.00  0.00    +0.000 C 
BRANCH   3  11
ATOM     11  O   UNL     1       7.709   6.530  15.986  0.00  0.00    +0.000 OA
ATOM     12  H   UNL     1       7.191   7.329  15.790  0.00  0.00    +0.000 HD
ENDBRANCH   3  11
BRANCH  10  13
ATOM     13  O   UNL     1       4.572   4.637  15.413  0.00  0.00    +0.000 OA
ATOM     14  H   UNL     1       5.047   3.804  15.587  0.00  0.00    +0.000 HD
ENDBRANCH  10  13
ENDBRANCH   1   7
BRANCH   1  15
ATOM     15  C   UNL     1       2.603   5.420  20.265  0.00  0.00    +0.000 C 
BRANCH  15  16
ATOM     16  C   UNL     1       2.087   6.806  19.935  0.00  0.00    +0.000 A 
ATOM     17  C   UNL     1       1.411   7.600  20.868  0.00  0.00    +0.000 A 
ATOM     18  C   UNL     1       0.946   8.875  20.533  0.00  0.00    +0.000 A 
ATOM     19  C   UNL     1       1.175   9.430  19.266  0.00  0.00    +0.000 A 
ATOM     20  C   UNL     1       1.884   8.636  18.347  0.00  0.00    +0.000 A 
ATOM     21  C   UNL     1       2.328   7.347  18.669  0.00  0.00    +0.000 A 
BRANCH  19  22
ATOM     22  C   UNL     1       0.708  10.796  18.924  0.00  0.00    +0.000 A 
ATOM     23  C   UNL     1      -0.656  11.076  18.713  0.00  0.00    +0.000 A 
ATOM     24  C   UNL     1      -1.101  12.367  18.413  0.00  0.00    +0.000 A 
ATOM     25  C   UNL     1      -0.192  13.414  18.329  0.00  0.00    +0.000 A 
ATOM     26  C   UNL     1       1.163  13.168  18.527  0.00  0.00    +0.000 A 
ATOM     27  C   UNL     1       1.606  11.872  18.810  0.00  0.00    +0.000 A 
ENDBRANCH  19  22
ENDBRANCH  15  16
ENDBRANCH   1  15
TORSDOF 6
ENDMDL
MODEL 9
REMARK VINA RESULT:      -7.6      3.703      9.110
REMARK  Name = 
REMARK  7 active torsions:
REMARK  status: ('A' for Active; 'I' for Inactive)
REMARK    1  A    between atoms: C_1  and  C_2
REMARK    2  A    between atoms: C_2  and  O_3
REMARK    3  A    between atoms: C_7  and  C_9
REMARK    4  A    between atoms: C_9  and  C_10
REMARK    5  A    between atoms: C_10  and  C_11
REMARK    6  A    between atoms: C_14  and  C_15
REMARK    7  A    between atoms: C_24  and  O_25
REMARK                            x       y       z     vdW  Elec       q    Type
REMARK                         _______ _______ _______ _____ _____    ______ ____
ROOT
ATOM      1  C   UNL     1       1.331   9.146  21.195  0.00  0.00    +0.000 C 
ENDROOT
BRANCH   1   7
ATOM      2  C   UNL     1       0.146  14.764  18.703  0.00  0.00    +0.000 C 
ATOM      3  C   UNL     1      -0.261  13.287  18.768  0.00  0.00    +0.000 C 
ATOM      4  C   UNL     1      -1.136  13.048  20.014  0.00  0.00    +0.000 C 
ATOM      5  C   UNL     1      -1.452  11.570  20.228  0.00  0.00    +0.000 C 
ATOM      6  N   UNL     1      -0.231  10.771  20.214  0.00  0.00    +0.000 N 
ATOM      7  C   UNL     1       0.030   9.910  21.279  0.00  0.00    +0.000 C 
ATOM      8  O   UNL     1      -0.724   9.800  22.244  0.00  0.00    +0.000 OA
ATOM      9  C   UNL     1       0.595  10.903  19.000  0.00  0.00    +0.000 C 
ATOM     10  C   UNL     1       0.988  12.370  18.777  0.00  0.00    +0.000 C 
BRANCH   3  11
ATOM     11  O   UNL     1      -1.040  13.047  17.584  0.00  0.00    +0.000 OA
ATOM     12  H   UNL     1      -0.775  13.662  16.880  0.00  0.00    +0.000 HD
ENDBRANCH   3  11
BRANCH  10  13
ATOM     13  O   UNL     1       1.918  12.747  19.802  0.00  0.00    +0.000 OA
ATOM     14  H   UNL     1       2.707  12.183  19.705  0.00  0.00    +0.000 HD
ENDBRANCH  10  13
ENDBRANCH   1   7
BRANCH   1  15
ATOM     15  C   UNL     1       1.161   7.637  21.037  0.00  0.00    +0.000 C 
BRANCH  15  16
ATOM     16  C   UNL     1       2.034   7.060  19.943  0.00  0.00    +0.000 A 
ATOM     17  C   UNL     1       2.405   7.792  18.809  0.00  0.00    +0.000 A 
ATOM     18  C   UNL     1       3.212   7.231  17.815  0.00  0.00    +0.000 A 
ATOM     19  C   UNL     1       3.720   5.929  17.931  0.00  0.00    +0.000 A 
ATOM     20  C   UNL     1       3.367   5.213  19.090  0.00  0.00    +0.000 A 
ATOM     21  C   UNL     1       2.536   5.763  20.076  0.00  0.00    +0.000 A 
BRANCH  19  22
ATOM     22  C   UNL     1       4.602   5.347  16.890  0.00  0.00    +0.000 A 
ATOM     23  C   UNL     1       4.905   3.972  16.867  0.00  0.00    +0.000 A 
ATOM     24  C   UNL     1       5.716   3.417  15.872  0.00  0.00    +0.000 A 
ATOM     25  C   UNL     1       6.236   4.224  14.868  0.00  0.00    +0.000 A 
ATOM     26  C   UNL     1       5.960   5.588  14.868  0.00  0.00    +0.000 A 
ATOM     27  C   UNL     1       5.161   6.142  15.874  0.00  0.00    +0.000 A 
ENDBRANCH  19  22
ENDBRANCH  15  16
ENDBRANCH   1  15
TORSDOF 6
ENDMDL
