MODEL 1
REMARK VINA RESULT:      -7.2      0.000      0.000
REMARK  Name = 
REMARK  6 active torsions:
REMARK  status: ('A' for Active; 'I' for Inactive)
REMARK    1  A    between atoms: C_1  and  C_2
REMARK    2  A    between atoms: C_2  and  C_3
REMARK    3  A    between atoms: C_3  and  O_4
REMARK    4  A    between atoms: C_11  and  N_12
REMARK    5  A    between atoms: N_12  and  C_13
REMARK    6  A    between atoms: C_13  and  C_14
REMARK                            x       y       z     vdW  Elec       q    Type
REMARK                         _______ _______ _______ _____ _____    ______ ____
ROOT
ATOM      1  C   UNL     1      -1.392  12.347  19.856  0.00  0.00    +0.000 C 
ATOM      2  C   UNL     1      -0.879  13.773  20.300  0.00  0.00    +0.000 C 
ATOM      3  O   UNL     1      -1.155  14.373  21.335  0.00  0.00    +0.000 OA
ATOM      4  O   UNL     1       0.159  14.186  19.540  0.00  0.00    +0.000 OA
ATOM      5  C   UNL     1       1.259  13.536  20.143  0.00  0.00    +0.000 C 
ATOM      6  C   UNL     1       1.061  12.055  20.039  0.00  0.00    +0.000 A 
ATOM      7  C   UNL     1      -0.108  11.385  20.332  0.00  0.00    +0.000 A 
ATOM      8  C   UNL     1       0.191   9.840  20.339  0.00  0.00    +0.000 A 
ATOM      9  C   UNL     1       1.093   9.338  19.426  0.00  0.00    +0.000 A 
ATOM     10  N   UNL     1       1.619  10.242  18.520  0.00  0.00    +0.000 N 
ATOM     11  C   UNL     1       1.705  11.577  18.762  0.00  0.00    +0.000 A 
ATOM     12  O   UNL     1       2.296  12.343  18.014  0.00  0.00    +0.000 OA
ATOM     13  C   UNL     1       2.422   9.651  17.476  0.00  0.00    +0.000 C 
ATOM     14  C   UNL     1       2.593   8.270  17.967  0.00  0.00    +0.000 A 
ATOM     15  C   UNL     1       3.464   7.339  17.433  0.00  0.00    +0.000 A 
ATOM     16  C   UNL     1       3.665   6.166  18.144  0.00  0.00    +0.000 A 
ATOM     17  C   UNL     1       4.566   5.213  17.616  0.00  0.00    +0.000 A 
ATOM     18  C   UNL     1       4.854   4.054  18.320  0.00  0.00    +0.000 A 
ATOM     19  C   UNL     1       4.261   3.864  19.560  0.00  0.00    +0.000 A 
ATOM     20  C   UNL     1       3.350   4.822  20.071  0.00  0.00    +0.000 A 
ATOM     21  C   UNL     1       2.993   5.998  19.383  0.00  0.00    +0.000 A 
ATOM     22  N   UNL     1       2.077   6.933  19.879  0.00  0.00    +0.000 NA
ATOM     23  C   UNL     1       1.867   8.046  19.138  0.00  0.00    +0.000 A 
ENDROOT
BRANCH   1  25
ATOM     24  C   UNL     1      -4.072  12.073  19.039  0.00  0.00    +0.000 C 
ATOM     25  C   UNL     1      -2.983  12.567  20.030  0.00  0.00    +0.000 C 
ENDBRANCH   1  25
BRANCH   1  26
ATOM     26  O   UNL     1      -1.315  12.122  18.412  0.00  0.00    +0.000 OA
ATOM     27  H   UNL     1      -0.833  11.294  18.244  0.00  0.00    +0.000 HD
ENDBRANCH   1  26
BRANCH   8  28
ATOM     28  N   UNL     1      -0.160   9.067  21.478  0.00  0.00    +0.000 N 
ATOM     29  H   UNL     1       0.487   8.268  21.502  0.00  0.00    +0.000 HD
BRANCH  28  30
ATOM     30  C   UNL     1       0.015   9.677  22.836  0.00  0.00    +0.000 C 
BRANCH  30  31
ATOM     31  C   UNL     1      -1.208  10.498  23.291  0.00  0.00    +0.000 C 
ATOM     32  F   UNL     1      -0.903  11.825  23.287  0.00  0.00    +0.000 F 
ENDBRANCH  30  31
ENDBRANCH  28  30
ENDBRANCH   8  28
TORSDOF 5
ENDMDL
MODEL 2
REMARK VINA RESULT:      -7.0      3.160      5.574
REMARK  Name = 
REMARK  6 active torsions:
REMARK  status: ('A' for Active; 'I' for Inactive)
REMARK    1  A    between atoms: C_1  and  C_2
REMARK    2  A    between atoms: C_2  and  C_3
REMARK    3  A    between atoms: C_3  and  O_4
REMARK    4  A    between atoms: C_11  and  N_12
REMARK    5  A    between atoms: N_12  and  C_13
REMARK    6  A    between atoms: C_13  and  C_14
REMARK                            x       y       z     vdW  Elec       q    Type
REMARK                         _______ _______ _______ _____ _____    ______ ____
ROOT
ATOM      1  C   UNL     1      -3.005  15.625  22.767  0.00  0.00    +0.000 C 
ATOM      2  C   UNL     1      -4.553  15.613  23.082  0.00  0.00    +0.000 C 
ATOM      3  O   UNL     1      -5.425  16.291  22.547  0.00  0.00    +0.000 OA
ATOM      4  O   UNL     1      -4.898  14.546  23.836  0.00  0.00    +0.000 OA
ATOM      5  C   UNL     1      -5.024  13.519  22.874  0.00  0.00    +0.000 C 
ATOM      6  C   UNL     1      -3.697  13.313  22.209  0.00  0.00    +0.000 A 
ATOM      7  C   UNL     1      -2.882  14.317  21.731  0.00  0.00    +0.000 A 
ATOM      8  C   UNL     1      -1.725  13.662  20.889  0.00  0.00    +0.000 A 
ATOM      9  C   UNL     1      -1.205  12.456  21.307  0.00  0.00    +0.000 A 
ATOM     10  N   UNL     1      -1.707  11.949  22.493  0.00  0.00    +0.000 N 
ATOM     11  C   UNL     1      -2.940  12.259  22.975  0.00  0.00    +0.000 A 
ATOM     12  O   UNL     1      -3.424  11.698  23.949  0.00  0.00    +0.000 OA
ATOM     13  C   UNL     1      -1.019  10.779  22.987  0.00  0.00    +0.000 C 
ATOM     14  C   UNL     1      -0.176  10.411  21.833  0.00  0.00    +0.000 A 
ATOM     15  C   UNL     1       0.531   9.229  21.711  0.00  0.00    +0.000 A 
ATOM     16  C   UNL     1       1.092   8.941  20.476  0.00  0.00    +0.000 A 
ATOM     17  C   UNL     1       1.803   7.728  20.333  0.00  0.00    +0.000 A 
ATOM     18  C   UNL     1       2.326   7.361  19.103  0.00  0.00    +0.000 A 
ATOM     19  C   UNL     1       2.114   8.194  18.015  0.00  0.00    +0.000 A 
ATOM     20  C   UNL     1       1.409   9.414  18.175  0.00  0.00    +0.000 A 
ATOM     21  C   UNL     1       0.889   9.854  19.408  0.00  0.00    +0.000 A 
ATOM     22  N   UNL     1       0.212  11.069  19.569  0.00  0.00    +0.000 NA
ATOM     23  C   UNL     1      -0.284  11.342  20.799  0.00  0.00    +0.000 A 
ENDROOT
BRANCH   1  25
ATOM     24  C   UNL     1      -1.353  17.846  23.285  0.00  0.00    +0.000 C 
ATOM     25  C   UNL     1      -2.716  17.210  22.897  0.00  0.00    +0.000 C 
ENDBRANCH   1  25
BRANCH   1  26
ATOM     26  O   UNL     1      -2.181  15.118  23.865  0.00  0.00    +0.000 OA
ATOM     27  H   UNL     1      -1.260  15.400  23.729  0.00  0.00    +0.000 HD
ENDBRANCH   1  26
BRANCH   8  28
ATOM     28  N   UNL     1      -1.499  14.099  19.556  0.00  0.00    +0.000 N 
ATOM     29  H   UNL     1      -2.216  14.805  19.352  0.00  0.00    +0.000 HD
BRANCH  28  30
ATOM     30  C   UNL     1      -0.222  14.824  19.250  0.00  0.00    +0.000 C 
BRANCH  30  31
ATOM     31  C   UNL     1       0.079  15.962  20.244  0.00  0.00    +0.000 C 
ATOM     32  F   UNL     1      -0.793  16.990  20.049  0.00  0.00    +0.000 F 
ENDBRANCH  30  31
ENDBRANCH  28  30
ENDBRANCH   8  28
TORSDOF 5
ENDMDL
MODEL 3
REMARK VINA RESULT:      -6.8      3.420      8.117
REMARK  Name = 
REMARK  6 active torsions:
REMARK  status: ('A' for Active; 'I' for Inactive)
REMARK    1  A    between atoms: C_1  and  C_2
REMARK    2  A    between atoms: C_2  and  C_3
REMARK    3  A    between atoms: C_3  and  O_4
REMARK    4  A    between atoms: C_11  and  N_12
REMARK    5  A    between atoms: N_12  and  C_13
REMARK    6  A    between atoms: C_13  and  C_14
REMARK                            x       y       z     vdW  Elec       q    Type
REMARK                         _______ _______ _______ _____ _____    ______ ____
ROOT
ATOM      1  C   UNL     1       1.422  11.828  18.823  0.00  0.00    +0.000 C 
ATOM      2  C   UNL     1       2.527  12.943  18.650  0.00  0.00    +0.000 C 
ATOM      3  O   UNL     1       2.921  13.442  17.600  0.00  0.00    +0.000 OA
ATOM      4  O   UNL     1       2.827  13.533  19.829  0.00  0.00    +0.000 OA
ATOM      5  C   UNL     1       1.797  14.490  19.964  0.00  0.00    +0.000 C 
ATOM      6  C   UNL     1       0.480  13.777  20.028  0.00  0.00    +0.000 A 
ATOM      7  C   UNL     1       0.082  12.763  19.183  0.00  0.00    +0.000 A 
ATOM      8  C   UNL     1      -1.447  12.481  19.430  0.00  0.00    +0.000 A 
ATOM      9  C   UNL     1      -1.937  12.575  20.714  0.00  0.00    +0.000 A 
ATOM     10  N   UNL     1      -1.012  12.849  21.706  0.00  0.00    +0.000 N 
ATOM     11  C   UNL     1       0.164  13.492  21.474  0.00  0.00    +0.000 A 
ATOM     12  O   UNL     1       0.906  13.851  22.378  0.00  0.00    +0.000 OA
ATOM     13  C   UNL     1      -1.530  12.769  23.051  0.00  0.00    +0.000 C 
ATOM     14  C   UNL     1      -2.984  12.681  22.815  0.00  0.00    +0.000 A 
ATOM     15  C   UNL     1      -3.956  12.794  23.791  0.00  0.00    +0.000 A 
ATOM     16  C   UNL     1      -5.273  12.910  23.375  0.00  0.00    +0.000 A 
ATOM     17  C   UNL     1      -6.275  13.043  24.363  0.00  0.00    +0.000 A 
ATOM     18  C   UNL     1      -7.600  13.230  23.999  0.00  0.00    +0.000 A 
ATOM     19  C   UNL     1      -7.914  13.310  22.650  0.00  0.00    +0.000 A 
ATOM     20  C   UNL     1      -6.901  13.164  21.669  0.00  0.00    +0.000 A 
ATOM     21  C   UNL     1      -5.546  12.935  21.982  0.00  0.00    +0.000 A 
ATOM     22  N   UNL     1      -4.550  12.769  21.012  0.00  0.00    +0.000 NA
ATOM     23  C   UNL     1      -3.280  12.610  21.452  0.00  0.00    +0.000 A 
ENDROOT
BRANCH   1  25
ATOM     24  C   UNL     1       1.938   9.183  18.009  0.00  0.00    +0.000 C 
ATOM     25  C   UNL     1       1.993  10.721  17.795  0.00  0.00    +0.000 C 
ENDBRANCH   1  25
BRANCH   1  26
ATOM     26  O   UNL     1       1.525  11.094  20.084  0.00  0.00    +0.000 OA
ATOM     27  H   UNL     1       2.462  10.906  20.267  0.00  0.00    +0.000 HD
ENDBRANCH   1  26
BRANCH   8  28
ATOM     28  N   UNL     1      -2.348  12.507  18.331  0.00  0.00    +0.000 N 
ATOM     29  H   UNL     1      -1.831  12.903  17.536  0.00  0.00    +0.000 HD
BRANCH  28  30
ATOM     30  C   UNL     1      -2.848  11.202  17.787  0.00  0.00    +0.000 C 
BRANCH  30  31
ATOM     31  C   UNL     1      -1.908  10.020  18.093  0.00  0.00    +0.000 C 
ATOM     32  F   UNL     1      -1.162   9.724  16.994  0.00  0.00    +0.000 F 
ENDBRANCH  30  31
ENDBRANCH  28  30
ENDBRANCH   8  28
TORSDOF 5
ENDMDL
MODEL 4
REMARK VINA RESULT:      -6.8      1.332      1.510
REMARK  Name = 
REMARK  6 active torsions:
REMARK  status: ('A' for Active; 'I' for Inactive)
REMARK    1  A    between atoms: C_1  and  C_2
REMARK    2  A    between atoms: C_2  and  C_3
REMARK    3  A    between atoms: C_3  and  O_4
REMARK    4  A    between atoms: C_11  and  N_12
REMARK    5  A    between atoms: N_12  and  C_13
REMARK    6  A    between atoms: C_13  and  C_14
REMARK                            x       y       z     vdW  Elec       q    Type
REMARK                         _______ _______ _______ _____ _____    ______ ____
ROOT
ATOM      1  C   UNL     1      -0.582  13.811  20.618  0.00  0.00    +0.000 C 
ATOM      2  C   UNL     1       0.314  15.109  20.705  0.00  0.00    +0.000 C 
ATOM      3  O   UNL     1       0.467  15.842  21.678  0.00  0.00    +0.000 OA
ATOM      4  O   UNL     1       1.160  15.199  19.655  0.00  0.00    +0.000 OA
ATOM      5  C   UNL     1       2.228  14.362  20.047  0.00  0.00    +0.000 C 
ATOM      6  C   UNL     1       1.710  12.965  20.213  0.00  0.00    +0.000 A 
ATOM      7  C   UNL     1       0.559  12.618  20.888  0.00  0.00    +0.000 A 
ATOM      8  C   UNL     1       0.526  11.052  21.043  0.00  0.00    +0.000 A 
ATOM      9  C   UNL     1       1.015  10.276  20.015  0.00  0.00    +0.000 A 
ATOM     10  N   UNL     1       1.439  10.950  18.883  0.00  0.00    +0.000 N 
ATOM     11  C   UNL     1       1.860  12.243  18.899  0.00  0.00    +0.000 A 
ATOM     12  O   UNL     1       2.362  12.782  17.922  0.00  0.00    +0.000 OA
ATOM     13  C   UNL     1       1.780  10.101  17.767  0.00  0.00    +0.000 C 
ATOM     14  C   UNL     1       1.796   8.765  18.394  0.00  0.00    +0.000 A 
ATOM     15  C   UNL     1       2.274   7.613  17.797  0.00  0.00    +0.000 A 
ATOM     16  C   UNL     1       2.422   6.490  18.597  0.00  0.00    +0.000 A 
ATOM     17  C   UNL     1       2.926   5.310  18.003  0.00  0.00    +0.000 A 
ATOM     18  C   UNL     1       3.157   4.180  18.771  0.00  0.00    +0.000 A 
ATOM     19  C   UNL     1       2.908   4.241  20.135  0.00  0.00    +0.000 A 
ATOM     20  C   UNL     1       2.392   5.427  20.716  0.00  0.00    +0.000 A 
ATOM     21  C   UNL     1       2.104   6.591  19.977  0.00  0.00    +0.000 A 
ATOM     22  N   UNL     1       1.574   7.754  20.548  0.00  0.00    +0.000 NA
ATOM     23  C   UNL     1       1.397   8.819  19.730  0.00  0.00    +0.000 A 
ENDROOT
BRANCH   1  25
ATOM     24  C   UNL     1      -3.391  13.870  20.797  0.00  0.00    +0.000 C 
ATOM     25  C   UNL     1      -1.981  14.414  21.156  0.00  0.00    +0.000 C 
ENDBRANCH   1  25
BRANCH   1  26
ATOM     26  O   UNL     1      -0.960  13.453  19.250  0.00  0.00    +0.000 OA
ATOM     27  H   UNL     1      -0.361  13.899  18.627  0.00  0.00    +0.000 HD
ENDBRANCH   1  26
BRANCH   8  28
ATOM     28  N   UNL     1       0.359  10.482  22.334  0.00  0.00    +0.000 N 
ATOM     29  H   UNL     1       0.809  11.123  22.999  0.00  0.00    +0.000 HD
BRANCH  28  30
ATOM     30  C   UNL     1      -1.031  10.354  22.883  0.00  0.00    +0.000 C 
BRANCH  30  31
ATOM     31  C   UNL     1      -1.628  11.701  23.333  0.00  0.00    +0.000 C 
ATOM     32  F   UNL     1      -2.987  11.646  23.282  0.00  0.00    +0.000 F 
ENDBRANCH  30  31
ENDBRANCH  28  30
ENDBRANCH   8  28
TORSDOF 5
ENDMDL
MODEL 5
REMARK VINA RESULT:      -6.7      2.784      4.875
REMARK  Name = 
REMARK  6 active torsions:
REMARK  status: ('A' for Active; 'I' for Inactive)
REMARK    1  A    between atoms: C_1  and  C_2
REMARK    2  A    between atoms: C_2  and  C_3
REMARK    3  A    between atoms: C_3  and  O_4
REMARK    4  A    between atoms: C_11  and  N_12
REMARK    5  A    between atoms: N_12  and  C_13
REMARK    6  A    between atoms: C_13  and  C_14
REMARK                            x       y       z     vdW  Elec       q    Type
REMARK                         _______ _______ _______ _____ _____    ______ ____
ROOT
ATOM      1  C   UNL     1      -1.440  15.246  22.667  0.00  0.00    +0.000 C 
ATOM      2  C   UNL     1      -2.985  15.518  22.854  0.00  0.00    +0.000 C 
ATOM      3  O   UNL     1      -3.665  16.365  22.280  0.00  0.00    +0.000 OA
ATOM      4  O   UNL     1      -3.588  14.513  23.526  0.00  0.00    +0.000 OA
ATOM      5  C   UNL     1      -3.817  13.559  22.510  0.00  0.00    +0.000 C 
ATOM      6  C   UNL     1      -2.498  13.125  21.948  0.00  0.00    +0.000 A 
ATOM      7  C   UNL     1      -1.471  13.971  21.585  0.00  0.00    +0.000 A 
ATOM      8  C   UNL     1      -0.386  13.133  20.810  0.00  0.00    +0.000 A 
ATOM      9  C   UNL     1      -0.139  11.839  21.214  0.00  0.00    +0.000 A 
ATOM     10  N   UNL     1      -0.830  11.400  22.330  0.00  0.00    +0.000 N 
ATOM     11  C   UNL     1      -2.021  11.924  22.724  0.00  0.00    +0.000 A 
ATOM     12  O   UNL     1      -2.686  11.436  23.627  0.00  0.00    +0.000 OA
ATOM     13  C   UNL     1      -0.419  10.108  22.823  0.00  0.00    +0.000 C 
ATOM     14  C   UNL     1       0.441   9.621  21.727  0.00  0.00    +0.000 A 
ATOM     15  C   UNL     1       0.923   8.331  21.608  0.00  0.00    +0.000 A 
ATOM     16  C   UNL     1       1.528   7.979  20.411  0.00  0.00    +0.000 A 
ATOM     17  C   UNL     1       2.011   6.658  20.271  0.00  0.00    +0.000 A 
ATOM     18  C   UNL     1       2.564   6.236  19.072  0.00  0.00    +0.000 A 
ATOM     19  C   UNL     1       2.608   7.127  18.010  0.00  0.00    +0.000 A 
ATOM     20  C   UNL     1       2.131   8.453  18.168  0.00  0.00    +0.000 A 
ATOM     21  C   UNL     1       1.595   8.945  19.374  0.00  0.00    +0.000 A 
ATOM     22  N   UNL     1       1.144  10.261  19.535  0.00  0.00    +0.000 NA
ATOM     23  C   UNL     1       0.601  10.586  20.731  0.00  0.00    +0.000 A 
ENDROOT
BRANCH   1  25
ATOM     24  C   UNL     1      -0.338  17.679  21.776  0.00  0.00    +0.000 C 
ATOM     25  C   UNL     1      -0.874  16.743  22.893  0.00  0.00    +0.000 C 
ENDBRANCH   1  25
BRANCH   1  26
ATOM     26  O   UNL     1      -0.826  14.559  23.803  0.00  0.00    +0.000 OA
ATOM     27  H   UNL     1      -1.174  14.937  24.630  0.00  0.00    +0.000 HD
ENDBRANCH   1  26
BRANCH   8  28
ATOM     28  N   UNL     1       0.036  13.560  19.522  0.00  0.00    +0.000 N 
ATOM     29  H   UNL     1      -0.735  14.114  19.129  0.00  0.00    +0.000 HD
BRANCH  28  30
ATOM     30  C   UNL     1       1.202  14.497  19.428  0.00  0.00    +0.000 C 
BRANCH  30  31
ATOM     31  C   UNL     1       2.439  13.857  18.770  0.00  0.00    +0.000 C 
ATOM     32  F   UNL     1       2.050  12.899  17.884  0.00  0.00    +0.000 F 
ENDBRANCH  30  31
ENDBRANCH  28  30
ENDBRANCH   8  28
TORSDOF 5
ENDMDL
MODEL 6
REMARK VINA RESULT:      -6.7      1.133      1.241
REMARK  Name = 
REMARK  6 active torsions:
REMARK  status: ('A' for Active; 'I' for Inactive)
REMARK    1  A    between atoms: C_1  and  C_2
REMARK    2  A    between atoms: C_2  and  C_3
REMARK    3  A    between atoms: C_3  and  O_4
REMARK    4  A    between atoms: C_11  and  N_12
REMARK    5  A    between atoms: N_12  and  C_13
REMARK    6  A    between atoms: C_13  and  C_14
REMARK                            x       y       z     vdW  Elec       q    Type
REMARK                         _______ _______ _______ _____ _____    ______ ____
ROOT
ATOM      1  C   UNL     1      -1.784  13.070  20.217  0.00  0.00    +0.000 C 
ATOM      2  C   UNL     1      -1.249  14.435  20.805  0.00  0.00    +0.000 C 
ATOM      3  O   UNL     1      -1.560  14.957  21.872  0.00  0.00    +0.000 OA
ATOM      4  O   UNL     1      -0.160  14.872  20.135  0.00  0.00    +0.000 OA
ATOM      5  C   UNL     1       0.885  14.134  20.735  0.00  0.00    +0.000 C 
ATOM      6  C   UNL     1       0.645  12.674  20.496  0.00  0.00    +0.000 A 
ATOM      7  C   UNL     1      -0.559  12.026  20.673  0.00  0.00    +0.000 A 
ATOM      8  C   UNL     1      -0.311  10.476  20.564  0.00  0.00    +0.000 A 
ATOM      9  C   UNL     1       0.621  10.018  19.658  0.00  0.00    +0.000 A 
ATOM     10  N   UNL     1       1.223  10.974  18.859  0.00  0.00    +0.000 N 
ATOM     11  C   UNL     1       1.339  12.281  19.218  0.00  0.00    +0.000 A 
ATOM     12  O   UNL     1       1.994  13.084  18.567  0.00  0.00    +0.000 OA
ATOM     13  C   UNL     1       2.060  10.443  17.810  0.00  0.00    +0.000 C 
ATOM     14  C   UNL     1       2.160   9.020  18.190  0.00  0.00    +0.000 A 
ATOM     15  C   UNL     1       3.027   8.106  17.623  0.00  0.00    +0.000 A 
ATOM     16  C   UNL     1       3.153   6.871  18.242  0.00  0.00    +0.000 A 
ATOM     17  C   UNL     1       4.049   5.932  17.681  0.00  0.00    +0.000 A 
ATOM     18  C   UNL     1       4.262   4.709  18.298  0.00  0.00    +0.000 A 
ATOM     19  C   UNL     1       3.598   4.439  19.486  0.00  0.00    +0.000 A 
ATOM     20  C   UNL     1       2.693   5.385  20.030  0.00  0.00    +0.000 A 
ATOM     21  C   UNL     1       2.411   6.626  19.427  0.00  0.00    +0.000 A 
ATOM     22  N   UNL     1       1.501   7.550  19.954  0.00  0.00    +0.000 NA
ATOM     23  C   UNL     1       1.366   8.728  19.301  0.00  0.00    +0.000 A 
ENDROOT
BRANCH   1  25
ATOM     24  C   UNL     1      -4.302  12.769  21.440  0.00  0.00    +0.000 C 
ATOM     25  C   UNL     1      -3.374  13.334  20.330  0.00  0.00    +0.000 C 
ENDBRANCH   1  25
BRANCH   1  26
ATOM     26  O   UNL     1      -1.639  12.963  18.765  0.00  0.00    +0.000 OA
ATOM     27  H   UNL     1      -0.745  13.253  18.512  0.00  0.00    +0.000 HD
ENDBRANCH   1  26
BRANCH   8  28
ATOM     28  N   UNL     1      -0.746   9.624  21.615  0.00  0.00    +0.000 N 
ATOM     29  H   UNL     1      -0.192   8.762  21.544  0.00  0.00    +0.000 HD
BRANCH  28  30
ATOM     30  C   UNL     1      -0.506  10.057  23.030  0.00  0.00    +0.000 C 
BRANCH  30  31
ATOM     31  C   UNL     1       0.635   9.280  23.714  0.00  0.00    +0.000 C 
ATOM     32  F   UNL     1       1.726   9.248  22.902  0.00  0.00    +0.000 F 
ENDBRANCH  30  31
ENDBRANCH  28  30
ENDBRANCH   8  28
TORSDOF 5
ENDMDL
MODEL 7
REMARK VINA RESULT:      -6.7      1.862      2.355
REMARK  Name = 
REMARK  6 active torsions:
REMARK  status: ('A' for Active; 'I' for Inactive)
REMARK    1  A    between atoms: C_1  and  C_2
REMARK    2  A    between atoms: C_2  and  C_3
REMARK    3  A    between atoms: C_3  and  O_4
REMARK    4  A    between atoms: C_11  and  N_12
REMARK    5  A    between atoms: N_12  and  C_13
REMARK    6  A    between atoms: C_13  and  C_14
REMARK                            x       y       z     vdW  Elec       q    Type
REMARK                         _______ _______ _______ _____ _____    ______ ____
ROOT
ATOM      1  C   UNL     1      -0.564  14.947  20.202  0.00  0.00    +0.000 C 
ATOM      2  C   UNL     1       0.379  16.174  20.519  0.00  0.00    +0.000 C 
ATOM      3  O   UNL     1       0.368  16.879  21.525  0.00  0.00    +0.000 OA
ATOM      4  O   UNL     1       1.435  16.219  19.678  0.00  0.00    +0.000 OA
ATOM      5  C   UNL     1       2.334  15.299  20.263  0.00  0.00    +0.000 C 
ATOM      6  C   UNL     1       1.699  13.942  20.271  0.00  0.00    +0.000 A 
ATOM      7  C   UNL     1       0.408  13.669  20.672  0.00  0.00    +0.000 A 
ATOM      8  C   UNL     1       0.236  12.108  20.768  0.00  0.00    +0.000 A 
ATOM      9  C   UNL     1       0.881  11.314  19.845  0.00  0.00    +0.000 A 
ATOM     10  N   UNL     1       1.584  11.973  18.852  0.00  0.00    +0.000 N 
ATOM     11  C   UNL     1       2.079  13.232  18.997  0.00  0.00    +0.000 A 
ATOM     12  O   UNL     1       2.815  13.748  18.168  0.00  0.00    +0.000 OA
ATOM     13  C   UNL     1       2.099  11.119  17.809  0.00  0.00    +0.000 C 
ATOM     14  C   UNL     1       1.888   9.775  18.382  0.00  0.00    +0.000 A 
ATOM     15  C   UNL     1       2.404   8.601  17.867  0.00  0.00    +0.000 A 
ATOM     16  C   UNL     1       2.299   7.458  18.644  0.00  0.00    +0.000 A 
ATOM     17  C   UNL     1       2.838   6.254  18.135  0.00  0.00    +0.000 A 
ATOM     18  C   UNL     1       2.820   5.098  18.900  0.00  0.00    +0.000 A 
ATOM     19  C   UNL     1       2.287   5.155  20.180  0.00  0.00    +0.000 A 
ATOM     20  C   UNL     1       1.740   6.367  20.673  0.00  0.00    +0.000 A 
ATOM     21  C   UNL     1       1.699   7.560  19.926  0.00  0.00    +0.000 A 
ATOM     22  N   UNL     1       1.138   8.750  20.407  0.00  0.00    +0.000 NA
ATOM     23  C   UNL     1       1.215   9.838  19.604  0.00  0.00    +0.000 A 
ENDROOT
BRANCH   1  25
ATOM     24  C   UNL     1      -3.022  15.234  21.545  0.00  0.00    +0.000 C 
ATOM     25  C   UNL     1      -2.002  15.642  20.446  0.00  0.00    +0.000 C 
ENDBRANCH   1  25
BRANCH   1  26
ATOM     26  O   UNL     1      -0.661  14.639  18.775  0.00  0.00    +0.000 OA
ATOM     27  H   UNL     1      -1.262  13.883  18.652  0.00  0.00    +0.000 HD
ENDBRANCH   1  26
BRANCH   8  28
ATOM     28  N   UNL     1      -0.244  11.532  21.975  0.00  0.00    +0.000 N 
ATOM     29  H   UNL     1       0.582  11.280  22.531  0.00  0.00    +0.000 HD
BRANCH  28  30
ATOM     30  C   UNL     1      -1.028  12.397  22.916  0.00  0.00    +0.000 C 
BRANCH  30  31
ATOM     31  C   UNL     1      -2.430  11.837  23.226  0.00  0.00    +0.000 C 
ATOM     32  F   UNL     1      -3.176  12.782  23.860  0.00  0.00    +0.000 F 
ENDBRANCH  30  31
ENDBRANCH  28  30
ENDBRANCH   8  28
TORSDOF 5
ENDMDL
MODEL 8
REMARK VINA RESULT:      -6.6      2.248      4.050
REMARK  Name = 
REMARK  6 active torsions:
REMARK  status: ('A' for Active; 'I' for Inactive)
REMARK    1  A    between atoms: C_1  and  C_2
REMARK    2  A    between atoms: C_2  and  C_3
REMARK    3  A    between atoms: C_3  and  O_4
REMARK    4  A    between atoms: C_11  and  N_12
REMARK    5  A    between atoms: N_12  and  C_13
REMARK    6  A    between atoms: C_13  and  C_14
REMARK                            x       y       z     vdW  Elec       q    Type
REMARK                         _______ _______ _______ _____ _____    ______ ____
ROOT
ATOM      1  C   UNL     1       0.038  14.447  21.156  0.00  0.00    +0.000 C 
ATOM      2  C   UNL     1      -1.448  14.940  21.368  0.00  0.00    +0.000 C 
ATOM      3  O   UNL     1      -2.069  15.745  20.680  0.00  0.00    +0.000 OA
ATOM      4  O   UNL     1      -2.108  14.159  22.251  0.00  0.00    +0.000 OA
ATOM      5  C   UNL     1      -2.520  13.070  21.450  0.00  0.00    +0.000 C 
ATOM      6  C   UNL     1      -1.303  12.380  20.912  0.00  0.00    +0.000 A 
ATOM      7  C   UNL     1      -0.218  13.009  20.341  0.00  0.00    +0.000 A 
ATOM      8  C   UNL     1       0.704  11.914  19.685  0.00  0.00    +0.000 A 
ATOM      9  C   UNL     1       0.834  10.696  20.315  0.00  0.00    +0.000 A 
ATOM     10  N   UNL     1       0.183  10.559  21.529  0.00  0.00    +0.000 N 
ATOM     11  C   UNL     1      -0.909  11.291  21.877  0.00  0.00    +0.000 A 
ATOM     12  O   UNL     1      -1.555  11.064  22.891  0.00  0.00    +0.000 OA
ATOM     13  C   UNL     1       0.481   9.338  22.239  0.00  0.00    +0.000 C 
ATOM     14  C   UNL     1       1.196   8.555  21.212  0.00  0.00    +0.000 A 
ATOM     15  C   UNL     1       1.519   7.215  21.317  0.00  0.00    +0.000 A 
ATOM     16  C   UNL     1       1.990   6.577  20.179  0.00  0.00    +0.000 A 
ATOM     17  C   UNL     1       2.308   5.202  20.269  0.00  0.00    +0.000 A 
ATOM     18  C   UNL     1       2.718   4.501  19.146  0.00  0.00    +0.000 A 
ATOM     19  C   UNL     1       2.783   5.170  17.932  0.00  0.00    +0.000 A 
ATOM     20  C   UNL     1       2.472   6.551  17.859  0.00  0.00    +0.000 A 
ATOM     21  C   UNL     1       2.087   7.320  18.974  0.00  0.00    +0.000 A 
ATOM     22  N   UNL     1       1.801   8.689  18.904  0.00  0.00    +0.000 NA
ATOM     23  C   UNL     1       1.389   9.293  20.043  0.00  0.00    +0.000 A 
ENDROOT
BRANCH   1  25
ATOM     24  C   UNL     1       2.148  16.224  21.720  0.00  0.00    +0.000 C 
ATOM     25  C   UNL     1       0.785  15.877  21.062  0.00  0.00    +0.000 C 
ENDBRANCH   1  25
BRANCH   1  26
ATOM     26  O   UNL     1       0.654  13.909  22.369  0.00  0.00    +0.000 OA
ATOM     27  H   UNL     1       1.447  13.401  22.126  0.00  0.00    +0.000 HD
ENDBRANCH   1  26
BRANCH   8  28
ATOM     28  N   UNL     1       1.074  12.041  18.319  0.00  0.00    +0.000 N 
ATOM     29  H   UNL     1       0.542  12.835  17.942  0.00  0.00    +0.000 HD
BRANCH  28  30
ATOM     30  C   UNL     1       2.492  12.408  17.995  0.00  0.00    +0.000 C 
BRANCH  30  31
ATOM     31  C   UNL     1       2.839  13.862  18.365  0.00  0.00    +0.000 C 
ATOM     32  F   UNL     1       3.340  13.912  19.630  0.00  0.00    +0.000 F 
ENDBRANCH  30  31
ENDBRANCH  28  30
ENDBRANCH   8  28
TORSDOF 5
ENDMDL
MODEL 9
REMARK VINA RESULT:      -6.6      3.090      5.378
REMARK  Name = 
REMARK  6 active torsions:
REMARK  status: ('A' for Active; 'I' for Inactive)
REMARK    1  A    between atoms: C_1  and  C_2
REMARK    2  A    between atoms: C_2  and  C_3
REMARK    3  A    between atoms: C_3  and  O_4
REMARK    4  A    between atoms: C_11  and  N_12
REMARK    5  A    between atoms: N_12  and  C_13
REMARK    6  A    between atoms: C_13  and  C_14
REMARK                            x       y       z     vdW  Elec       q    Type
REMARK                         _______ _______ _______ _____ _____    ______ ____
ROOT
ATOM      1  C   UNL     1      -1.773  15.411  23.339  0.00  0.00    +0.000 C 
ATOM      2  C   UNL     1      -3.327  15.627  23.528  0.00  0.00    +0.000 C 
ATOM      3  O   UNL     1      -4.017  16.522  23.048  0.00  0.00    +0.000 OA
ATOM      4  O   UNL     1      -3.918  14.536  24.065  0.00  0.00    +0.000 OA
ATOM      5  C   UNL     1      -4.109  13.706  22.938  0.00  0.00    +0.000 C 
ATOM      6  C   UNL     1      -2.771  13.371  22.352  0.00  0.00    +0.000 A 
ATOM      7  C   UNL     1      -1.758  14.274  22.112  0.00  0.00    +0.000 A 
ATOM      8  C   UNL     1      -0.643  13.558  21.263  0.00  0.00    +0.000 A 
ATOM      9  C   UNL     1      -0.373  12.230  21.513  0.00  0.00    +0.000 A 
ATOM     10  N   UNL     1      -1.071  11.647  22.556  0.00  0.00    +0.000 N 
ATOM     11  C   UNL     1      -2.280  12.095  22.987  0.00  0.00    +0.000 A 
ATOM     12  O   UNL     1      -2.948  11.489  23.813  0.00  0.00    +0.000 OA
ATOM     13  C   UNL     1      -0.639  10.313  22.899  0.00  0.00    +0.000 C 
ATOM     14  C   UNL     1       0.249   9.979  21.768  0.00  0.00    +0.000 A 
ATOM     15  C   UNL     1       0.762   8.723  21.505  0.00  0.00    +0.000 A 
ATOM     16  C   UNL     1       1.394   8.530  20.285  0.00  0.00    +0.000 A 
ATOM     17  C   UNL     1       1.909   7.245  19.997  0.00  0.00    +0.000 A 
ATOM     18  C   UNL     1       2.490   6.981  18.767  0.00  0.00    +0.000 A 
ATOM     19  C   UNL     1       2.531   7.994  17.820  0.00  0.00    +0.000 A 
ATOM     20  C   UNL     1       2.021   9.281  18.126  0.00  0.00    +0.000 A 
ATOM     21  C   UNL     1       1.455   9.615  19.372  0.00  0.00    +0.000 A 
ATOM     22  N   UNL     1       0.972  10.892  19.681  0.00  0.00    +0.000 NA
ATOM     23  C   UNL     1       0.402  11.060  20.898  0.00  0.00    +0.000 A 
ENDROOT
BRANCH   1  25
ATOM     24  C   UNL     1      -1.443  17.549  25.141  0.00  0.00    +0.000 C 
ATOM     25  C   UNL     1      -1.245  16.881  23.753  0.00  0.00    +0.000 C 
ENDBRANCH   1  25
BRANCH   1  26
ATOM     26  O   UNL     1      -1.162  14.606  24.396  0.00  0.00    +0.000 OA
ATOM     27  H   UNL     1      -1.669  13.783  24.503  0.00  0.00    +0.000 HD
ENDBRANCH   1  26
BRANCH   8  28
ATOM     28  N   UNL     1      -0.210  14.145  20.043  0.00  0.00    +0.000 N 
ATOM     29  H   UNL     1      -1.010  14.108  19.399  0.00  0.00    +0.000 HD
BRANCH  28  30
ATOM     30  C   UNL     1       0.153  15.600  20.040  0.00  0.00    +0.000 C 
BRANCH  30  31
ATOM     31  C   UNL     1      -0.495  16.381  18.881  0.00  0.00    +0.000 C 
ATOM     32  F   UNL     1      -1.693  16.891  19.278  0.00  0.00    +0.000 F 
ENDBRANCH  30  31
ENDBRANCH  28  30
ENDBRANCH   8  28
TORSDOF 5
ENDMDL
