MODEL 1
REMARK VINA RESULT:      -7.5      0.000      0.000
REMARK  Name = 
REMARK  6 active torsions:
REMARK  status: ('A' for Active; 'I' for Inactive)
REMARK    1  A    between atoms: C_1  and  C_2
REMARK    2  A    between atoms: C_2  and  C_3
REMARK    3  A    between atoms: C_3  and  C_4
REMARK    4  A    between atoms: N_8  and  C_9
REMARK    5  A    between atoms: C_9  and  C_10
REMARK    6  A    between atoms: C_10  and  N_11
REMARK                            x       y       z     vdW  Elec       q    Type
REMARK                         _______ _______ _______ _____ _____    ______ ____
ROOT
ATOM      1  C   UNL     1       4.102   6.980  17.404  0.00  0.00    +0.000 C 
ENDROOT
BRANCH   1   2
ATOM      2  N   UNL     1       3.382   5.897  18.107  0.00  0.00    +0.000 N 
ATOM      3  N   UNL     1       3.126   4.657  17.451  0.00  0.00    +0.000 NA
ATOM      4  C   UNL     1       2.352   4.011  18.275  0.00  0.00    +0.000 A 
ATOM      5  C   UNL     1       1.991   2.554  18.293  0.00  0.00    +0.000 A 
ATOM      6  C   UNL     1       1.790   2.221  19.580  0.00  0.00    +0.000 A 
ATOM      7  C   UNL     1       0.681   2.971  20.304  0.00  0.00    +0.000 A 
ATOM      8  C   UNL     1       1.132   4.215  20.333  0.00  0.00    +0.000 A 
ATOM      9  N   UNL     1       1.936   4.739  19.345  0.00  0.00    +0.000 N 
ATOM     10  C   UNL     1       2.557   5.974  19.252  0.00  0.00    +0.000 A 
ATOM     11  O   UNL     1       2.435   6.937  19.993  0.00  0.00    +0.000 OA
ENDBRANCH   1   2
BRANCH   1  12
ATOM     12  C   UNL     1       5.040   6.817  16.189  0.00  0.00    +0.000 C 
BRANCH  12  17
ATOM     13  C   UNL     1       6.991   5.039  15.796  0.00  0.00    +0.000 A 
ATOM     14  N   UNL     1       7.819   4.410  16.627  0.00  0.00    +0.000 NA
ATOM     15  C   UNL     1       7.589   4.870  17.887  0.00  0.00    +0.000 A 
ATOM     16  C   UNL     1       6.576   5.789  17.866  0.00  0.00    +0.000 A 
ATOM     17  N   UNL     1       6.144   5.876  16.547  0.00  0.00    +0.000 N 
BRANCH  13  18
ATOM     18  C   UNL     1       7.013   4.639  14.326  0.00  0.00    +0.000 C 
BRANCH  18  20
ATOM     19  C   UNL     1       5.881   3.294  12.265  0.00  0.00    +0.000 C 
ATOM     20  C   UNL     1       5.879   3.839  13.677  0.00  0.00    +0.000 C 
ENDBRANCH  18  20
ENDBRANCH  13  18
ENDBRANCH  12  17
ENDBRANCH   1  12
TORSDOF 5
ENDMDL
MODEL 2
REMARK VINA RESULT:      -7.5      2.263      4.278
REMARK  Name = 
REMARK  6 active torsions:
REMARK  status: ('A' for Active; 'I' for Inactive)
REMARK    1  A    between atoms: C_1  and  C_2
REMARK    2  A    between atoms: C_2  and  C_3
REMARK    3  A    between atoms: C_3  and  C_4
REMARK    4  A    between atoms: N_8  and  C_9
REMARK    5  A    between atoms: C_9  and  C_10
REMARK    6  A    between atoms: C_10  and  N_11
REMARK                            x       y       z     vdW  Elec       q    Type
REMARK                         _______ _______ _______ _____ _____    ______ ____
ROOT
ATOM      1  C   UNL     1       3.970   4.455  18.451  0.00  0.00    +0.000 C 
ENDROOT
BRANCH   1   2
ATOM      2  N   UNL     1       3.187   5.691  18.660  0.00  0.00    +0.000 N 
ATOM      3  N   UNL     1       3.395   6.828  17.826  0.00  0.00    +0.000 NA
ATOM      4  C   UNL     1       2.680   7.766  18.376  0.00  0.00    +0.000 A 
ATOM      5  C   UNL     1       2.251   9.088  17.808  0.00  0.00    +0.000 A 
ATOM      6  C   UNL     1       1.063   9.381  18.366  0.00  0.00    +0.000 A 
ATOM      7  C   UNL     1       1.044   9.513  19.882  0.00  0.00    +0.000 A 
ATOM      8  C   UNL     1       1.327   8.286  20.291  0.00  0.00    +0.000 A 
ATOM      9  N   UNL     1       2.133   7.429  19.574  0.00  0.00    +0.000 N 
ATOM     10  C   UNL     1       2.466   6.104  19.805  0.00  0.00    +0.000 A 
ATOM     11  O   UNL     1       2.202   5.419  20.780  0.00  0.00    +0.000 OA
ENDBRANCH   1   2
BRANCH   1  12
ATOM     12  C   UNL     1       5.490   4.288  18.665  0.00  0.00    +0.000 C 
BRANCH  12  17
ATOM     13  C   UNL     1       7.167   5.757  17.199  0.00  0.00    +0.000 A 
ATOM     14  N   UNL     1       7.487   5.742  15.907  0.00  0.00    +0.000 NA
ATOM     15  C   UNL     1       6.823   4.711  15.316  0.00  0.00    +0.000 A 
ATOM     16  C   UNL     1       6.044   4.072  16.241  0.00  0.00    +0.000 A 
ATOM     17  N   UNL     1       6.210   4.755  17.441  0.00  0.00    +0.000 N 
BRANCH  13  18
ATOM     18  C   UNL     1       7.737   6.875  18.063  0.00  0.00    +0.000 C 
BRANCH  18  20
ATOM     19  C   UNL     1       8.527   9.459  18.251  0.00  0.00    +0.000 C 
ATOM     20  C   UNL     1       7.728   8.341  17.618  0.00  0.00    +0.000 C 
ENDBRANCH  18  20
ENDBRANCH  13  18
ENDBRANCH  12  17
ENDBRANCH   1  12
TORSDOF 5
ENDMDL
MODEL 3
REMARK VINA RESULT:      -7.4      1.209      1.687
REMARK  Name = 
REMARK  6 active torsions:
REMARK  status: ('A' for Active; 'I' for Inactive)
REMARK    1  A    between atoms: C_1  and  C_2
REMARK    2  A    between atoms: C_2  and  C_3
REMARK    3  A    between atoms: C_3  and  C_4
REMARK    4  A    between atoms: N_8  and  C_9
REMARK    5  A    between atoms: C_9  and  C_10
REMARK    6  A    between atoms: C_10  and  N_11
REMARK                            x       y       z     vdW  Elec       q    Type
REMARK                         _______ _______ _______ _____ _____    ______ ____
ROOT
ATOM      1  C   UNL     1       4.111   6.933  17.471  0.00  0.00    +0.000 C 
ENDROOT
BRANCH   1   2
ATOM      2  N   UNL     1       3.339   5.832  18.083  0.00  0.00    +0.000 N 
ATOM      3  N   UNL     1       2.904   5.921  19.438  0.00  0.00    +0.000 NA
ATOM      4  C   UNL     1       2.411   4.744  19.696  0.00  0.00    +0.000 A 
ATOM      5  C   UNL     1       1.537   4.311  20.837  0.00  0.00    +0.000 A 
ATOM      6  C   UNL     1       0.756   3.319  20.371  0.00  0.00    +0.000 A 
ATOM      7  C   UNL     1       1.476   2.081  19.857  0.00  0.00    +0.000 A 
ATOM      8  C   UNL     1       2.131   2.534  18.800  0.00  0.00    +0.000 A 
ATOM      9  N   UNL     1       2.604   3.825  18.713  0.00  0.00    +0.000 N 
ATOM     10  C   UNL     1       3.229   4.485  17.667  0.00  0.00    +0.000 A 
ATOM     11  O   UNL     1       3.609   4.022  16.603  0.00  0.00    +0.000 OA
ENDBRANCH   1   2
BRANCH   1  12
ATOM     12  C   UNL     1       5.058   6.822  16.257  0.00  0.00    +0.000 C 
BRANCH  12  17
ATOM     13  C   UNL     1       7.025   5.071  15.824  0.00  0.00    +0.000 A 
ATOM     14  N   UNL     1       7.868   4.441  16.639  0.00  0.00    +0.000 NA
ATOM     15  C   UNL     1       7.644   4.882  17.907  0.00  0.00    +0.000 A 
ATOM     16  C   UNL     1       6.621   5.790  17.907  0.00  0.00    +0.000 A 
ATOM     17  N   UNL     1       6.176   5.889  16.593  0.00  0.00    +0.000 N 
BRANCH  13  18
ATOM     18  C   UNL     1       7.038   4.690  14.349  0.00  0.00    +0.000 C 
BRANCH  18  20
ATOM     19  C   UNL     1       5.942   3.301  12.299  0.00  0.00    +0.000 C 
ATOM     20  C   UNL     1       5.930   3.848  13.710  0.00  0.00    +0.000 C 
ENDBRANCH  18  20
ENDBRANCH  13  18
ENDBRANCH  12  17
ENDBRANCH   1  12
TORSDOF 5
ENDMDL
MODEL 4
REMARK VINA RESULT:      -7.3      2.284      5.866
REMARK  Name = 
REMARK  6 active torsions:
REMARK  status: ('A' for Active; 'I' for Inactive)
REMARK    1  A    between atoms: C_1  and  C_2
REMARK    2  A    between atoms: C_2  and  C_3
REMARK    3  A    between atoms: C_3  and  C_4
REMARK    4  A    between atoms: N_8  and  C_9
REMARK    5  A    between atoms: C_9  and  C_10
REMARK    6  A    between atoms: C_10  and  N_11
REMARK                            x       y       z     vdW  Elec       q    Type
REMARK                         _______ _______ _______ _____ _____    ______ ____
ROOT
ATOM      1  C   UNL     1       3.613   2.178  17.566  0.00  0.00    +0.000 C 
ENDROOT
BRANCH   1   2
ATOM      2  N   UNL     1       4.522   3.335  17.709  0.00  0.00    +0.000 N 
ATOM      3  N   UNL     1       5.048   3.986  16.555  0.00  0.00    +0.000 NA
ATOM      4  C   UNL     1       5.916   4.833  17.031  0.00  0.00    +0.000 A 
ATOM      5  C   UNL     1       6.571   6.002  16.354  0.00  0.00    +0.000 A 
ATOM      6  C   UNL     1       6.801   6.921  17.309  0.00  0.00    +0.000 A 
ATOM      7  C   UNL     1       7.711   6.492  18.451  0.00  0.00    +0.000 A 
ATOM      8  C   UNL     1       7.011   5.540  19.048  0.00  0.00    +0.000 A 
ATOM      9  N   UNL     1       6.142   4.715  18.366  0.00  0.00    +0.000 N 
ATOM     10  C   UNL     1       5.282   3.735  18.833  0.00  0.00    +0.000 A 
ATOM     11  O   UNL     1       5.181   3.297  19.967  0.00  0.00    +0.000 OA
ENDBRANCH   1   2
BRANCH   1  12
ATOM     12  C   UNL     1       2.134   2.117  18.002  0.00  0.00    +0.000 C 
BRANCH  12  17
ATOM     13  C   UNL     1       1.752   4.489  19.166  0.00  0.00    +0.000 A 
ATOM     14  N   UNL     1       1.572   4.853  20.434  0.00  0.00    +0.000 NA
ATOM     15  C   UNL     1       1.534   3.728  21.199  0.00  0.00    +0.000 A 
ATOM     16  C   UNL     1       1.720   2.626  20.411  0.00  0.00    +0.000 A 
ATOM     17  N   UNL     1       1.912   3.091  19.114  0.00  0.00    +0.000 N 
BRANCH  13  18
ATOM     18  C   UNL     1       1.899   5.587  18.121  0.00  0.00    +0.000 C 
BRANCH  18  20
ATOM     19  C   UNL     1       2.722   8.161  17.930  0.00  0.00    +0.000 C 
ATOM     20  C   UNL     1       2.949   6.697  18.240  0.00  0.00    +0.000 C 
ENDBRANCH  18  20
ENDBRANCH  13  18
ENDBRANCH  12  17
ENDBRANCH   1  12
TORSDOF 5
ENDMDL
MODEL 5
REMARK VINA RESULT:      -7.3      1.683      3.038
REMARK  Name = 
REMARK  6 active torsions:
REMARK  status: ('A' for Active; 'I' for Inactive)
REMARK    1  A    between atoms: C_1  and  C_2
REMARK    2  A    between atoms: C_2  and  C_3
REMARK    3  A    between atoms: C_3  and  C_4
REMARK    4  A    between atoms: N_8  and  C_9
REMARK    5  A    between atoms: C_9  and  C_10
REMARK    6  A    between atoms: C_10  and  N_11
REMARK                            x       y       z     vdW  Elec       q    Type
REMARK                         _______ _______ _______ _____ _____    ______ ____
ROOT
ATOM      1  C   UNL     1       3.807   7.143  17.397  0.00  0.00    +0.000 C 
ENDROOT
BRANCH   1   2
ATOM      2  N   UNL     1       3.378   5.905  18.083  0.00  0.00    +0.000 N 
ATOM      3  N   UNL     1       2.062   5.393  17.891  0.00  0.00    +0.000 NA
ATOM      4  C   UNL     1       1.969   4.415  18.746  0.00  0.00    +0.000 A 
ATOM      5  C   UNL     1       0.955   3.311  18.817  0.00  0.00    +0.000 A 
ATOM      6  C   UNL     1       1.584   2.242  19.339  0.00  0.00    +0.000 A 
ATOM      7  C   UNL     1       2.161   2.417  20.736  0.00  0.00    +0.000 A 
ATOM      8  C   UNL     1       3.109   3.323  20.555  0.00  0.00    +0.000 A 
ATOM      9  N   UNL     1       3.022   4.311  19.598  0.00  0.00    +0.000 N 
ATOM     10  C   UNL     1       3.939   5.278  19.220  0.00  0.00    +0.000 A 
ATOM     11  O   UNL     1       5.010   5.547  19.741  0.00  0.00    +0.000 OA
ENDBRANCH   1   2
BRANCH   1  12
ATOM     12  C   UNL     1       4.778   7.236  16.201  0.00  0.00    +0.000 C 
BRANCH  12  17
ATOM     13  C   UNL     1       6.976   6.006  17.084  0.00  0.00    +0.000 A 
ATOM     14  N   UNL     1       7.521   4.823  16.808  0.00  0.00    +0.000 NA
ATOM     15  C   UNL     1       6.698   4.166  15.945  0.00  0.00    +0.000 A 
ATOM     16  C   UNL     1       5.622   4.954  15.642  0.00  0.00    +0.000 A 
ATOM     17  N   UNL     1       5.804   6.155  16.319  0.00  0.00    +0.000 N 
BRANCH  13  18
ATOM     18  C   UNL     1       7.754   6.959  17.982  0.00  0.00    +0.000 C 
BRANCH  18  20
ATOM     19  C   UNL     1       8.649   9.461  18.506  0.00  0.00    +0.000 C 
ATOM     20  C   UNL     1       7.904   8.449  17.662  0.00  0.00    +0.000 C 
ENDBRANCH  18  20
ENDBRANCH  13  18
ENDBRANCH  12  17
ENDBRANCH   1  12
TORSDOF 5
ENDMDL
MODEL 6
REMARK VINA RESULT:      -7.2      2.046      4.013
REMARK  Name = 
REMARK  6 active torsions:
REMARK  status: ('A' for Active; 'I' for Inactive)
REMARK    1  A    between atoms: C_1  and  C_2
REMARK    2  A    between atoms: C_2  and  C_3
REMARK    3  A    between atoms: C_3  and  C_4
REMARK    4  A    between atoms: N_8  and  C_9
REMARK    5  A    between atoms: C_9  and  C_10
REMARK    6  A    between atoms: C_10  and  N_11
REMARK                            x       y       z     vdW  Elec       q    Type
REMARK                         _______ _______ _______ _____ _____    ______ ____
ROOT
ATOM      1  C   UNL     1       4.342   4.423  18.259  0.00  0.00    +0.000 C 
ENDROOT
BRANCH   1   2
ATOM      2  N   UNL     1       3.489   5.605  18.502  0.00  0.00    +0.000 N 
ATOM      3  N   UNL     1       3.622   6.771  17.692  0.00  0.00    +0.000 NA
ATOM      4  C   UNL     1       2.856   7.653  18.268  0.00  0.00    +0.000 A 
ATOM      5  C   UNL     1       2.345   8.959  17.734  0.00  0.00    +0.000 A 
ATOM      6  C   UNL     1       1.146   9.168  18.308  0.00  0.00    +0.000 A 
ATOM      7  C   UNL     1       1.134   9.264  19.826  0.00  0.00    +0.000 A 
ATOM      8  C   UNL     1       1.493   8.048  20.205  0.00  0.00    +0.000 A 
ATOM      9  N   UNL     1       2.342   7.256  19.463  0.00  0.00    +0.000 N 
ATOM     10  C   UNL     1       2.755   5.949  19.661  0.00  0.00    +0.000 A 
ATOM     11  O   UNL     1       2.541   5.228  20.623  0.00  0.00    +0.000 OA
ENDBRANCH   1   2
BRANCH   1  12
ATOM     12  C   UNL     1       4.460   3.637  16.936  0.00  0.00    +0.000 C 
BRANCH  12  17
ATOM     13  C   UNL     1       6.927   4.560  16.507  0.00  0.00    +0.000 A 
ATOM     14  N   UNL     1       7.569   4.942  15.405  0.00  0.00    +0.000 NA
ATOM     15  C   UNL     1       6.749   4.731  14.340  0.00  0.00    +0.000 A 
ATOM     16  C   UNL     1       5.551   4.231  14.771  0.00  0.00    +0.000 A 
ATOM     17  N   UNL     1       5.624   4.161  16.158  0.00  0.00    +0.000 N 
BRANCH  13  18
ATOM     18  C   UNL     1       7.623   4.767  17.847  0.00  0.00    +0.000 C 
BRANCH  18  20
ATOM     19  C   UNL     1       7.640   7.475  17.809  0.00  0.00    +0.000 C 
ATOM     20  C   UNL     1       7.716   6.140  18.519  0.00  0.00    +0.000 C 
ENDBRANCH  18  20
ENDBRANCH  13  18
ENDBRANCH  12  17
ENDBRANCH   1  12
TORSDOF 5
ENDMDL
MODEL 7
REMARK VINA RESULT:      -7.1      2.015      3.351
REMARK  Name = 
REMARK  6 active torsions:
REMARK  status: ('A' for Active; 'I' for Inactive)
REMARK    1  A    between atoms: C_1  and  C_2
REMARK    2  A    between atoms: C_2  and  C_3
REMARK    3  A    between atoms: C_3  and  C_4
REMARK    4  A    between atoms: N_8  and  C_9
REMARK    5  A    between atoms: C_9  and  C_10
REMARK    6  A    between atoms: C_10  and  N_11
REMARK                            x       y       z     vdW  Elec       q    Type
REMARK                         _______ _______ _______ _____ _____    ______ ____
ROOT
ATOM      1  C   UNL     1       3.527   4.132  18.565  0.00  0.00    +0.000 C 
ENDROOT
BRANCH   1   2
ATOM      2  N   UNL     1       2.885   5.451  18.751  0.00  0.00    +0.000 N 
ATOM      3  N   UNL     1       3.186   6.531  17.870  0.00  0.00    +0.000 NA
ATOM      4  C   UNL     1       2.590   7.558  18.405  0.00  0.00    +0.000 A 
ATOM      5  C   UNL     1       2.286   8.898  17.802  0.00  0.00    +0.000 A 
ATOM      6  C   UNL     1       1.152   9.334  18.381  0.00  0.00    +0.000 A 
ATOM      7  C   UNL     1       1.195   9.517  19.892  0.00  0.00    +0.000 A 
ATOM      8  C   UNL     1       1.360   8.281  20.336  0.00  0.00    +0.000 A 
ATOM      9  N   UNL     1       2.049   7.320  19.629  0.00  0.00    +0.000 N 
ATOM     10  C   UNL     1       2.247   5.976  19.899  0.00  0.00    +0.000 A 
ATOM     11  O   UNL     1       1.943   5.355  20.905  0.00  0.00    +0.000 OA
ENDBRANCH   1   2
BRANCH   1  12
ATOM     12  C   UNL     1       4.954   3.741  19.002  0.00  0.00    +0.000 C 
BRANCH  12  17
ATOM     13  C   UNL     1       6.230   4.777  16.899  0.00  0.00    +0.000 A 
ATOM     14  N   UNL     1       7.214   5.666  16.789  0.00  0.00    +0.000 NA
ATOM     15  C   UNL     1       7.523   6.116  18.036  0.00  0.00    +0.000 A 
ATOM     16  C   UNL     1       6.741   5.483  18.963  0.00  0.00    +0.000 A 
ATOM     17  N   UNL     1       5.941   4.586  18.263  0.00  0.00    +0.000 N 
BRANCH  13  18
ATOM     18  C   UNL     1       5.755   4.077  15.632  0.00  0.00    +0.000 C 
BRANCH  18  20
ATOM     19  C   UNL     1       6.047   3.603  12.981  0.00  0.00    +0.000 C 
ATOM     20  C   UNL     1       6.467   4.244  14.287  0.00  0.00    +0.000 C 
ENDBRANCH  18  20
ENDBRANCH  13  18
ENDBRANCH  12  17
ENDBRANCH   1  12
TORSDOF 5
ENDMDL
MODEL 8
REMARK VINA RESULT:      -7.1      1.988      3.319
REMARK  Name = 
REMARK  6 active torsions:
REMARK  status: ('A' for Active; 'I' for Inactive)
REMARK    1  A    between atoms: C_1  and  C_2
REMARK    2  A    between atoms: C_2  and  C_3
REMARK    3  A    between atoms: C_3  and  C_4
REMARK    4  A    between atoms: N_8  and  C_9
REMARK    5  A    between atoms: C_9  and  C_10
REMARK    6  A    between atoms: C_10  and  N_11
REMARK                            x       y       z     vdW  Elec       q    Type
REMARK                         _______ _______ _______ _____ _____    ______ ____
ROOT
ATOM      1  C   UNL     1       4.197   6.677  16.907  0.00  0.00    +0.000 C 
ENDROOT
BRANCH   1   2
ATOM      2  N   UNL     1       3.488   5.731  17.795  0.00  0.00    +0.000 N 
ATOM      3  N   UNL     1       3.188   4.411  17.350  0.00  0.00    +0.000 NA
ATOM      4  C   UNL     1       2.437   3.917  18.291  0.00  0.00    +0.000 A 
ATOM      5  C   UNL     1       2.054   2.488  18.549  0.00  0.00    +0.000 A 
ATOM      6  C   UNL     1       1.896   2.364  19.879  0.00  0.00    +0.000 A 
ATOM      7  C   UNL     1       0.827   3.240  20.515  0.00  0.00    +0.000 A 
ATOM      8  C   UNL     1       1.298   4.464  20.334  0.00  0.00    +0.000 A 
ATOM      9  N   UNL     1       2.073   4.811  19.248  0.00  0.00    +0.000 N 
ATOM     10  C   UNL     1       2.709   6.003  18.943  0.00  0.00    +0.000 A 
ATOM     11  O   UNL     1       2.629   7.072  19.528  0.00  0.00    +0.000 OA
ENDBRANCH   1   2
BRANCH   1  12
ATOM     12  C   UNL     1       5.560   6.442  16.222  0.00  0.00    +0.000 C 
BRANCH  12  17
ATOM     13  C   UNL     1       7.478   7.229  17.903  0.00  0.00    +0.000 A 
ATOM     14  N   UNL     1       8.231   6.574  18.785  0.00  0.00    +0.000 NA
ATOM     15  C   UNL     1       7.833   5.272  18.799  0.00  0.00    +0.000 A 
ATOM     16  C   UNL     1       6.828   5.086  17.892  0.00  0.00    +0.000 A 
ATOM     17  N   UNL     1       6.618   6.313  17.271  0.00  0.00    +0.000 N 
BRANCH  13  18
ATOM     18  C   UNL     1       7.785   8.701  17.657  0.00  0.00    +0.000 C 
BRANCH  18  20
ATOM     19  C   UNL     1       9.323  10.855  18.232  0.00  0.00    +0.000 C 
ATOM     20  C   UNL     1       8.719   9.507  18.564  0.00  0.00    +0.000 C 
ENDBRANCH  18  20
ENDBRANCH  13  18
ENDBRANCH  12  17
ENDBRANCH   1  12
TORSDOF 5
ENDMDL
MODEL 9
REMARK VINA RESULT:      -7.1      1.559      3.129
REMARK  Name = 
REMARK  6 active torsions:
REMARK  status: ('A' for Active; 'I' for Inactive)
REMARK    1  A    between atoms: C_1  and  C_2
REMARK    2  A    between atoms: C_2  and  C_3
REMARK    3  A    between atoms: C_3  and  C_4
REMARK    4  A    between atoms: N_8  and  C_9
REMARK    5  A    between atoms: C_9  and  C_10
REMARK    6  A    between atoms: C_10  and  N_11
REMARK                            x       y       z     vdW  Elec       q    Type
REMARK                         _______ _______ _______ _____ _____    ______ ____
ROOT
ATOM      1  C   UNL     1       4.296   6.848  17.525  0.00  0.00    +0.000 C 
ENDROOT
BRANCH   1   2
ATOM      2  N   UNL     1       3.487   5.783  18.156  0.00  0.00    +0.000 N 
ATOM      3  N   UNL     1       3.005   5.936  19.489  0.00  0.00    +0.000 NA
ATOM      4  C   UNL     1       2.487   4.777  19.779  0.00  0.00    +0.000 A 
ATOM      5  C   UNL     1       1.567   4.405  20.905  0.00  0.00    +0.000 A 
ATOM      6  C   UNL     1       0.791   3.402  20.454  0.00  0.00    +0.000 A 
ATOM      7  C   UNL     1       1.513   2.134  20.022  0.00  0.00    +0.000 A 
ATOM      8  C   UNL     1       2.211   2.533  18.971  0.00  0.00    +0.000 A 
ATOM      9  N   UNL     1       2.704   3.814  18.845  0.00  0.00    +0.000 N 
ATOM     10  C   UNL     1       3.375   4.420  17.795  0.00  0.00    +0.000 A 
ATOM     11  O   UNL     1       3.788   3.907  16.768  0.00  0.00    +0.000 OA
ENDBRANCH   1   2
BRANCH   1  12
ATOM     12  C   UNL     1       4.782   6.881  16.061  0.00  0.00    +0.000 C 
BRANCH  12  17
ATOM     13  C   UNL     1       6.943   5.477  16.754  0.00  0.00    +0.000 A 
ATOM     14  N   UNL     1       7.694   4.594  16.100  0.00  0.00    +0.000 NA
ATOM     15  C   UNL     1       7.141   4.391  14.873  0.00  0.00    +0.000 A 
ATOM     16  C   UNL     1       6.033   5.180  14.729  0.00  0.00    +0.000 A 
ATOM     17  N   UNL     1       5.916   5.921  15.901  0.00  0.00    +0.000 N 
BRANCH  13  18
ATOM     18  C   UNL     1       7.404   5.921  18.137  0.00  0.00    +0.000 C 
BRANCH  18  20
ATOM     19  C   UNL     1       7.811   8.560  17.680  0.00  0.00    +0.000 C 
ATOM     20  C   UNL     1       8.126   7.251  18.373  0.00  0.00    +0.000 C 
ENDBRANCH  18  20
ENDBRANCH  13  18
ENDBRANCH  12  17
ENDBRANCH   1  12
TORSDOF 5
ENDMDL
