MODEL 1
REMARK VINA RESULT:      -7.4      0.000      0.000
REMARK  Name = 
REMARK  5 active torsions:
REMARK  status: ('A' for Active; 'I' for Inactive)
REMARK    1  A    between atoms: C_1  and  C_2
REMARK    2  A    between atoms: C_5  and  C_6
REMARK    3  A    between atoms: N_7  and  C_8
REMARK    4  A    between atoms: C_11  and  C_12
REMARK    5  A    between atoms: N_14  and  C_15
REMARK                            x       y       z     vdW  Elec       q    Type
REMARK                         _______ _______ _______ _____ _____    ______ ____
ROOT
ATOM      1  C   UNL     1       0.653   9.957  19.171  0.00  0.00    +0.000 A 
ATOM      2  C   UNL     1       1.307   9.831  17.942  0.00  0.00    +0.000 A 
ATOM      3  C   UNL     1       2.130   8.740  17.686  0.00  0.00    +0.000 A 
ATOM      4  C   UNL     1       2.362   7.783  18.677  0.00  0.00    +0.000 A 
ATOM      5  C   UNL     1       1.761   7.916  19.927  0.00  0.00    +0.000 A 
ATOM      6  C   UNL     1       0.896   8.993  20.162  0.00  0.00    +0.000 A 
ENDROOT
BRANCH   1  13
ATOM      7  C   UNL     1      -2.309  10.102  18.143  0.00  0.00    +0.000 C 
ATOM      8  C   UNL     1      -1.561  11.157  18.887  0.00  0.00    +0.000 A 
ATOM      9  C   UNL     1      -2.077  12.373  19.294  0.00  0.00    +0.000 A 
ATOM     10  C   UNL     1      -1.110  13.017  20.075  0.00  0.00    +0.000 A 
ATOM     11  C   UNL     1       0.006  12.206  20.126  0.00  0.00    +0.000 A 
ATOM     12  C   UNL     1       1.310  12.563  20.764  0.00  0.00    +0.000 C 
ATOM     13  N   UNL     1      -0.257  11.043  19.387  0.00  0.00    +0.000 N 
ENDBRANCH   1  13
BRANCH   4  14
ATOM     14  C   UNL     1       3.325   6.717  18.351  0.00  0.00    +0.000 C 
ATOM     15  O   UNL     1       3.035   5.589  18.744  0.00  0.00    +0.000 OA
ATOM     16  N   UNL     1       4.484   7.083  17.701  0.00  0.00    +0.000 N 
ATOM     17  H   UNL     1       4.723   8.067  17.622  0.00  0.00    +0.000 HD
BRANCH  16  18
ATOM     18  C   UNL     1       5.514   6.163  17.367  0.00  0.00    +0.000 A 
ATOM     19  C   UNL     1       6.340   5.569  18.327  0.00  0.00    +0.000 A 
ATOM     20  C   UNL     1       7.380   4.719  17.953  0.00  0.00    +0.000 A 
ATOM     21  C   UNL     1       7.593   4.426  16.611  0.00  0.00    +0.000 A 
ATOM     22  C   UNL     1       6.762   4.983  15.642  0.00  0.00    +0.000 A 
ATOM     23  C   UNL     1       5.726   5.839  16.020  0.00  0.00    +0.000 A 
ATOM     24  F   UNL     1       4.952   6.387  15.071  0.00  0.00    +0.000 F 
ENDBRANCH  16  18
ENDBRANCH   4  14
TORSDOF 3
ENDMDL
MODEL 2
REMARK VINA RESULT:      -7.4      0.957      2.052
REMARK  Name = 
REMARK  5 active torsions:
REMARK  status: ('A' for Active; 'I' for Inactive)
REMARK    1  A    between atoms: C_1  and  C_2
REMARK    2  A    between atoms: C_5  and  C_6
REMARK    3  A    between atoms: N_7  and  C_8
REMARK    4  A    between atoms: C_11  and  C_12
REMARK    5  A    between atoms: N_14  and  C_15
REMARK                            x       y       z     vdW  Elec       q    Type
REMARK                         _______ _______ _______ _____ _____    ______ ____
ROOT
ATOM      1  C   UNL     1       0.435  10.007  19.260  0.00  0.00    +0.000 A 
ATOM      2  C   UNL     1       1.088   9.880  18.031  0.00  0.00    +0.000 A 
ATOM      3  C   UNL     1       1.964   8.826  17.801  0.00  0.00    +0.000 A 
ATOM      4  C   UNL     1       2.249   7.909  18.815  0.00  0.00    +0.000 A 
ATOM      5  C   UNL     1       1.648   8.046  20.065  0.00  0.00    +0.000 A 
ATOM      6  C   UNL     1       0.731   9.084  20.276  0.00  0.00    +0.000 A 
ENDROOT
BRANCH   1  13
ATOM      7  C   UNL     1       0.868  12.620  20.945  0.00  0.00    +0.000 C 
ATOM      8  C   UNL     1      -0.380  12.194  20.248  0.00  0.00    +0.000 A 
ATOM      9  C   UNL     1      -1.556  12.920  20.190  0.00  0.00    +0.000 A 
ATOM     10  C   UNL     1      -2.438  12.249  19.334  0.00  0.00    +0.000 A 
ATOM     11  C   UNL     1      -1.812  11.102  18.889  0.00  0.00    +0.000 A 
ATOM     12  C   UNL     1      -2.443  10.042  18.043  0.00  0.00    +0.000 C 
ATOM     13  N   UNL     1      -0.529  11.051  19.452  0.00  0.00    +0.000 N 
ENDBRANCH   1  13
BRANCH   4  14
ATOM     14  C   UNL     1       3.264   6.885  18.513  0.00  0.00    +0.000 C 
ATOM     15  O   UNL     1       3.491   6.070  19.405  0.00  0.00    +0.000 OA
ATOM     16  N   UNL     1       3.909   6.967  17.297  0.00  0.00    +0.000 N 
ATOM     17  H   UNL     1       3.804   7.804  16.732  0.00  0.00    +0.000 HD
BRANCH  16  18
ATOM     18  C   UNL     1       4.937   6.070  16.899  0.00  0.00    +0.000 A 
ATOM     19  C   UNL     1       4.675   4.779  16.428  0.00  0.00    +0.000 A 
ATOM     20  C   UNL     1       5.714   3.908  16.106  0.00  0.00    +0.000 A 
ATOM     21  C   UNL     1       7.035   4.324  16.222  0.00  0.00    +0.000 A 
ATOM     22  C   UNL     1       7.316   5.617  16.659  0.00  0.00    +0.000 A 
ATOM     23  C   UNL     1       6.272   6.484  16.988  0.00  0.00    +0.000 A 
ATOM     24  F   UNL     1       6.562   7.716  17.431  0.00  0.00    +0.000 F 
ENDBRANCH  16  18
ENDBRANCH   4  14
TORSDOF 3
ENDMDL
MODEL 3
REMARK VINA RESULT:      -7.4      3.134      8.589
REMARK  Name = 
REMARK  5 active torsions:
REMARK  status: ('A' for Active; 'I' for Inactive)
REMARK    1  A    between atoms: C_1  and  C_2
REMARK    2  A    between atoms: C_5  and  C_6
REMARK    3  A    between atoms: N_7  and  C_8
REMARK    4  A    between atoms: C_11  and  C_12
REMARK    5  A    between atoms: N_14  and  C_15
REMARK                            x       y       z     vdW  Elec       q    Type
REMARK                         _______ _______ _______ _____ _____    ______ ____
ROOT
ATOM      1  C   UNL     1       2.802   6.862  18.310  0.00  0.00    +0.000 A 
ATOM      2  C   UNL     1       2.403   6.953  19.647  0.00  0.00    +0.000 A 
ATOM      3  C   UNL     1       1.706   8.065  20.103  0.00  0.00    +0.000 A 
ATOM      4  C   UNL     1       1.443   9.135  19.245  0.00  0.00    +0.000 A 
ATOM      5  C   UNL     1       1.876   9.088  17.921  0.00  0.00    +0.000 A 
ATOM      6  C   UNL     1       2.538   7.944  17.456  0.00  0.00    +0.000 A 
ENDROOT
BRANCH   1  13
ATOM      7  C   UNL     1       1.436   4.061  17.931  0.00  0.00    +0.000 C 
ATOM      8  C   UNL     1       2.874   4.399  17.718  0.00  0.00    +0.000 A 
ATOM      9  C   UNL     1       3.846   3.526  17.265  0.00  0.00    +0.000 A 
ATOM     10  C   UNL     1       5.026   4.253  17.070  0.00  0.00    +0.000 A 
ATOM     11  C   UNL     1       4.783   5.565  17.427  0.00  0.00    +0.000 A 
ATOM     12  C   UNL     1       5.806   6.654  17.477  0.00  0.00    +0.000 C 
ATOM     13  N   UNL     1       3.446   5.672  17.838  0.00  0.00    +0.000 N 
ENDBRANCH   1  13
BRANCH   4  14
ATOM     14  C   UNL     1       0.787  10.313  19.840  0.00  0.00    +0.000 C 
ATOM     15  O   UNL     1       1.370  11.385  19.697  0.00  0.00    +0.000 OA
ATOM     16  N   UNL     1      -0.375  10.102  20.551  0.00  0.00    +0.000 N 
ATOM     17  H   UNL     1      -0.647   9.154  20.793  0.00  0.00    +0.000 HD
BRANCH  16  18
ATOM     18  C   UNL     1      -1.084  11.142  21.210  0.00  0.00    +0.000 A 
ATOM     19  C   UNL     1      -1.807  12.122  20.521  0.00  0.00    +0.000 A 
ATOM     20  C   UNL     1      -2.437  13.162  21.202  0.00  0.00    +0.000 A 
ATOM     21  C   UNL     1      -2.379  13.223  22.589  0.00  0.00    +0.000 A 
ATOM     22  C   UNL     1      -1.690  12.240  23.296  0.00  0.00    +0.000 A 
ATOM     23  C   UNL     1      -1.054  11.204  22.610  0.00  0.00    +0.000 A 
ATOM     24  F   UNL     1      -0.375  10.280  23.305  0.00  0.00    +0.000 F 
ENDBRANCH  16  18
ENDBRANCH   4  14
TORSDOF 3
ENDMDL
MODEL 4
REMARK VINA RESULT:      -7.4      3.162      8.688
REMARK  Name = 
REMARK  5 active torsions:
REMARK  status: ('A' for Active; 'I' for Inactive)
REMARK    1  A    between atoms: C_1  and  C_2
REMARK    2  A    between atoms: C_5  and  C_6
REMARK    3  A    between atoms: N_7  and  C_8
REMARK    4  A    between atoms: C_11  and  C_12
REMARK    5  A    between atoms: N_14  and  C_15
REMARK                            x       y       z     vdW  Elec       q    Type
REMARK                         _______ _______ _______ _____ _____    ______ ____
ROOT
ATOM      1  C   UNL     1       2.690   6.834  18.355  0.00  0.00    +0.000 A 
ATOM      2  C   UNL     1       2.348   7.921  17.546  0.00  0.00    +0.000 A 
ATOM      3  C   UNL     1       1.767   9.058  18.096  0.00  0.00    +0.000 A 
ATOM      4  C   UNL     1       1.464   9.108  19.459  0.00  0.00    +0.000 A 
ATOM      5  C   UNL     1       1.750   8.016  20.275  0.00  0.00    +0.000 A 
ATOM      6  C   UNL     1       2.377   6.891  19.723  0.00  0.00    +0.000 A 
ENDROOT
BRANCH   1  13
ATOM      7  C   UNL     1       5.636   6.806  17.274  0.00  0.00    +0.000 C 
ATOM      8  C   UNL     1       4.654   5.684  17.241  0.00  0.00    +0.000 A 
ATOM      9  C   UNL     1       4.905   4.410  16.764  0.00  0.00    +0.000 A 
ATOM     10  C   UNL     1       3.782   3.618  17.031  0.00  0.00    +0.000 A 
ATOM     11  C   UNL     1       2.836   4.411  17.650  0.00  0.00    +0.000 A 
ATOM     12  C   UNL     1       1.448   3.988  18.007  0.00  0.00    +0.000 C 
ATOM     13  N   UNL     1       3.364   5.704  17.785  0.00  0.00    +0.000 N 
ENDBRANCH   1  13
BRANCH   4  14
ATOM     14  C   UNL     1       0.761  10.311  19.935  0.00  0.00    +0.000 C 
ATOM     15  O   UNL     1       1.304  11.387  19.690  0.00  0.00    +0.000 OA
ATOM     16  N   UNL     1      -0.397  10.127  20.661  0.00  0.00    +0.000 N 
ATOM     17  H   UNL     1      -0.634   9.198  20.993  0.00  0.00    +0.000 HD
BRANCH  16  18
ATOM     18  C   UNL     1      -1.148  11.198  21.214  0.00  0.00    +0.000 A 
ATOM     19  C   UNL     1      -1.831  12.132  20.427  0.00  0.00    +0.000 A 
ATOM     20  C   UNL     1      -2.505  13.204  21.006  0.00  0.00    +0.000 A 
ATOM     21  C   UNL     1      -2.532  13.346  22.388  0.00  0.00    +0.000 A 
ATOM     22  C   UNL     1      -1.884  12.410  23.192  0.00  0.00    +0.000 A 
ATOM     23  C   UNL     1      -1.204  11.341  22.607  0.00  0.00    +0.000 A 
ATOM     24  F   UNL     1      -0.565  10.464  23.395  0.00  0.00    +0.000 F 
ENDBRANCH  16  18
ENDBRANCH   4  14
TORSDOF 3
ENDMDL
MODEL 5
REMARK VINA RESULT:      -7.4      0.130      1.701
REMARK  Name = 
REMARK  5 active torsions:
REMARK  status: ('A' for Active; 'I' for Inactive)
REMARK    1  A    between atoms: C_1  and  C_2
REMARK    2  A    between atoms: C_5  and  C_6
REMARK    3  A    between atoms: N_7  and  C_8
REMARK    4  A    between atoms: C_11  and  C_12
REMARK    5  A    between atoms: N_14  and  C_15
REMARK                            x       y       z     vdW  Elec       q    Type
REMARK                         _______ _______ _______ _____ _____    ______ ____
ROOT
ATOM      1  C   UNL     1       0.634   9.996  19.219  0.00  0.00    +0.000 A 
ATOM      2  C   UNL     1       1.198   9.852  17.948  0.00  0.00    +0.000 A 
ATOM      3  C   UNL     1       2.005   8.760  17.651  0.00  0.00    +0.000 A 
ATOM      4  C   UNL     1       2.311   7.819  18.636  0.00  0.00    +0.000 A 
ATOM      5  C   UNL     1       1.801   7.970  19.924  0.00  0.00    +0.000 A 
ATOM      6  C   UNL     1       0.951   9.048  20.204  0.00  0.00    +0.000 A 
ENDROOT
BRANCH   1  13
ATOM      7  C   UNL     1       1.317  12.585  20.856  0.00  0.00    +0.000 C 
ATOM      8  C   UNL     1      -0.001  12.217  20.261  0.00  0.00    +0.000 A 
ATOM      9  C   UNL     1      -1.143  12.996  20.293  0.00  0.00    +0.000 A 
ATOM     10  C   UNL     1      -2.120  12.367  19.512  0.00  0.00    +0.000 A 
ATOM     11  C   UNL     1      -1.584  11.192  19.022  0.00  0.00    +0.000 A 
ATOM     12  C   UNL     1      -2.326  10.162  18.233  0.00  0.00    +0.000 C 
ATOM     13  N   UNL     1      -0.263  11.082  19.483  0.00  0.00    +0.000 N 
ENDBRANCH   1  13
BRANCH   4  14
ATOM     14  C   UNL     1       3.253   6.751  18.259  0.00  0.00    +0.000 C 
ATOM     15  O   UNL     1       2.872   5.600  18.458  0.00  0.00    +0.000 OA
ATOM     16  N   UNL     1       4.490   7.132  17.782  0.00  0.00    +0.000 N 
ATOM     17  H   UNL     1       4.780   8.101  17.867  0.00  0.00    +0.000 HD
BRANCH  16  18
ATOM     18  C   UNL     1       5.505   6.205  17.424  0.00  0.00    +0.000 A 
ATOM     19  C   UNL     1       6.330   5.581  18.366  0.00  0.00    +0.000 A 
ATOM     20  C   UNL     1       7.355   4.725  17.969  0.00  0.00    +0.000 A 
ATOM     21  C   UNL     1       7.556   4.456  16.620  0.00  0.00    +0.000 A 
ATOM     22  C   UNL     1       6.725   5.043  15.667  0.00  0.00    +0.000 A 
ATOM     23  C   UNL     1       5.704   5.905  16.069  0.00  0.00    +0.000 A 
ATOM     24  F   UNL     1       4.931   6.481  15.137  0.00  0.00    +0.000 F 
ENDBRANCH  16  18
ENDBRANCH   4  14
TORSDOF 3
ENDMDL
MODEL 6
REMARK VINA RESULT:      -7.4      3.107      8.718
REMARK  Name = 
REMARK  5 active torsions:
REMARK  status: ('A' for Active; 'I' for Inactive)
REMARK    1  A    between atoms: C_1  and  C_2
REMARK    2  A    between atoms: C_5  and  C_6
REMARK    3  A    between atoms: N_7  and  C_8
REMARK    4  A    between atoms: C_11  and  C_12
REMARK    5  A    between atoms: N_14  and  C_15
REMARK                            x       y       z     vdW  Elec       q    Type
REMARK                         _______ _______ _______ _____ _____    ______ ____
ROOT
ATOM      1  C   UNL     1       2.795   6.870  18.289  0.00  0.00    +0.000 A 
ATOM      2  C   UNL     1       2.406   6.990  19.626  0.00  0.00    +0.000 A 
ATOM      3  C   UNL     1       1.707   8.110  20.061  0.00  0.00    +0.000 A 
ATOM      4  C   UNL     1       1.432   9.158  19.180  0.00  0.00    +0.000 A 
ATOM      5  C   UNL     1       1.855   9.082  17.855  0.00  0.00    +0.000 A 
ATOM      6  C   UNL     1       2.520   7.931  17.411  0.00  0.00    +0.000 A 
ENDROOT
BRANCH   1  13
ATOM      7  C   UNL     1       5.827   6.594  17.525  0.00  0.00    +0.000 C 
ATOM      8  C   UNL     1       4.776   5.539  17.435  0.00  0.00    +0.000 A 
ATOM      9  C   UNL     1       4.982   4.231  17.038  0.00  0.00    +0.000 A 
ATOM     10  C   UNL     1       3.785   3.529  17.218  0.00  0.00    +0.000 A 
ATOM     11  C   UNL     1       2.840   4.412  17.702  0.00  0.00    +0.000 A 
ATOM     12  C   UNL     1       1.395   4.100  17.927  0.00  0.00    +0.000 C 
ATOM     13  N   UNL     1       3.441   5.672  17.839  0.00  0.00    +0.000 N 
ENDBRANCH   1  13
BRANCH   4  14
ATOM     14  C   UNL     1       0.775  10.346  19.752  0.00  0.00    +0.000 C 
ATOM     15  O   UNL     1       1.361  11.415  19.596  0.00  0.00    +0.000 OA
ATOM     16  N   UNL     1      -0.392  10.149  20.460  0.00  0.00    +0.000 N 
ATOM     17  H   UNL     1      -0.667   9.206  20.715  0.00  0.00    +0.000 HD
BRANCH  16  18
ATOM     18  C   UNL     1      -1.103  11.201  21.098  0.00  0.00    +0.000 A 
ATOM     19  C   UNL     1      -1.853  12.147  20.392  0.00  0.00    +0.000 A 
ATOM     20  C   UNL     1      -2.485  13.200  21.050  0.00  0.00    +0.000 A 
ATOM     21  C   UNL     1      -2.400  13.309  22.433  0.00  0.00    +0.000 A 
ATOM     22  C   UNL     1      -1.683  12.359  23.158  0.00  0.00    +0.000 A 
ATOM     23  C   UNL     1      -1.046  11.310  22.494  0.00  0.00    +0.000 A 
ATOM     24  F   UNL     1      -0.340  10.420  23.206  0.00  0.00    +0.000 F 
ENDBRANCH  16  18
ENDBRANCH   4  14
TORSDOF 3
ENDMDL
MODEL 7
REMARK VINA RESULT:      -7.4      3.024      8.544
REMARK  Name = 
REMARK  5 active torsions:
REMARK  status: ('A' for Active; 'I' for Inactive)
REMARK    1  A    between atoms: C_1  and  C_2
REMARK    2  A    between atoms: C_5  and  C_6
REMARK    3  A    between atoms: N_7  and  C_8
REMARK    4  A    between atoms: C_11  and  C_12
REMARK    5  A    between atoms: N_14  and  C_15
REMARK                            x       y       z     vdW  Elec       q    Type
REMARK                         _______ _______ _______ _____ _____    ______ ____
ROOT
ATOM      1  C   UNL     1       3.448   6.521  18.032  0.00  0.00    +0.000 A 
ATOM      2  C   UNL     1       2.994   7.618  17.294  0.00  0.00    +0.000 A 
ATOM      3  C   UNL     1       2.189   8.584  17.885  0.00  0.00    +0.000 A 
ATOM      4  C   UNL     1       1.773   8.443  19.211  0.00  0.00    +0.000 A 
ATOM      5  C   UNL     1       2.172   7.332  19.950  0.00  0.00    +0.000 A 
ATOM      6  C   UNL     1       3.021   6.385  19.363  0.00  0.00    +0.000 A 
ENDROOT
BRANCH   1  13
ATOM      7  C   UNL     1       6.463   7.044  17.333  0.00  0.00    +0.000 C 
ATOM      8  C   UNL     1       5.675   5.808  17.055  0.00  0.00    +0.000 A 
ATOM      9  C   UNL     1       6.168   4.653  16.476  0.00  0.00    +0.000 A 
ATOM     10  C   UNL     1       5.160   3.683  16.512  0.00  0.00    +0.000 A 
ATOM     11  C   UNL     1       4.041   4.252  17.090  0.00  0.00    +0.000 A 
ATOM     12  C   UNL     1       2.704   3.596  17.221  0.00  0.00    +0.000 C 
ATOM     13  N   UNL     1       4.345   5.578  17.431  0.00  0.00    +0.000 N 
ENDBRANCH   1  13
BRANCH   4  14
ATOM     14  C   UNL     1       0.842   9.464  19.722  0.00  0.00    +0.000 C 
ATOM     15  O   UNL     1       0.038   9.916  18.911  0.00  0.00    +0.000 OA
ATOM     16  N   UNL     1       0.993   9.864  21.033  0.00  0.00    +0.000 N 
ATOM     17  H   UNL     1       1.825   9.589  21.545  0.00  0.00    +0.000 HD
BRANCH  16  18
ATOM     18  C   UNL     1       0.191  10.869  21.638  0.00  0.00    +0.000 A 
ATOM     19  C   UNL     1       0.333  12.230  21.346  0.00  0.00    +0.000 A 
ATOM     20  C   UNL     1      -0.431  13.190  22.007  0.00  0.00    +0.000 A 
ATOM     21  C   UNL     1      -1.372  12.801  22.953  0.00  0.00    +0.000 A 
ATOM     22  C   UNL     1      -1.551  11.448  23.236  0.00  0.00    +0.000 A 
ATOM     23  C   UNL     1      -0.778  10.491  22.577  0.00  0.00    +0.000 A 
ATOM     24  F   UNL     1      -0.946   9.195  22.880  0.00  0.00    +0.000 F 
ENDBRANCH  16  18
ENDBRANCH   4  14
TORSDOF 3
ENDMDL
MODEL 8
REMARK VINA RESULT:      -7.4      3.153      8.559
REMARK  Name = 
REMARK  5 active torsions:
REMARK  status: ('A' for Active; 'I' for Inactive)
REMARK    1  A    between atoms: C_1  and  C_2
REMARK    2  A    between atoms: C_5  and  C_6
REMARK    3  A    between atoms: N_7  and  C_8
REMARK    4  A    between atoms: C_11  and  C_12
REMARK    5  A    between atoms: N_14  and  C_15
REMARK                            x       y       z     vdW  Elec       q    Type
REMARK                         _______ _______ _______ _____ _____    ______ ____
ROOT
ATOM      1  C   UNL     1       2.698   6.850  18.345  0.00  0.00    +0.000 A 
ATOM      2  C   UNL     1       2.373   7.947  17.541  0.00  0.00    +0.000 A 
ATOM      3  C   UNL     1       1.793   9.082  18.093  0.00  0.00    +0.000 A 
ATOM      4  C   UNL     1       1.472   9.123  19.452  0.00  0.00    +0.000 A 
ATOM      5  C   UNL     1       1.740   8.022  20.263  0.00  0.00    +0.000 A 
ATOM      6  C   UNL     1       2.367   6.898  19.709  0.00  0.00    +0.000 A 
ENDROOT
BRANCH   1  13
ATOM      7  C   UNL     1       1.480   3.982  17.965  0.00  0.00    +0.000 C 
ATOM      8  C   UNL     1       2.871   4.419  17.651  0.00  0.00    +0.000 A 
ATOM      9  C   UNL     1       3.854   3.627  17.085  0.00  0.00    +0.000 A 
ATOM     10  C   UNL     1       4.967   4.436  16.825  0.00  0.00    +0.000 A 
ATOM     11  C   UNL     1       4.675   5.716  17.253  0.00  0.00    +0.000 A 
ATOM     12  C   UNL     1       5.629   6.866  17.264  0.00  0.00    +0.000 C 
ATOM     13  N   UNL     1       3.372   5.721  17.775  0.00  0.00    +0.000 N 
ENDBRANCH   1  13
BRANCH   4  14
ATOM     14  C   UNL     1       0.770  10.327  19.929  0.00  0.00    +0.000 C 
ATOM     15  O   UNL     1       1.316  11.401  19.688  0.00  0.00    +0.000 OA
ATOM     16  N   UNL     1      -0.390  10.143  20.651  0.00  0.00    +0.000 N 
ATOM     17  H   UNL     1      -0.630   9.213  20.980  0.00  0.00    +0.000 HD
BRANCH  16  18
ATOM     18  C   UNL     1      -1.141  11.214  21.205  0.00  0.00    +0.000 A 
ATOM     19  C   UNL     1      -1.837  12.138  20.418  0.00  0.00    +0.000 A 
ATOM     20  C   UNL     1      -2.511  13.212  20.997  0.00  0.00    +0.000 A 
ATOM     21  C   UNL     1      -2.523  13.364  22.379  0.00  0.00    +0.000 A 
ATOM     22  C   UNL     1      -1.861  12.437  23.182  0.00  0.00    +0.000 A 
ATOM     23  C   UNL     1      -1.182  11.367  22.598  0.00  0.00    +0.000 A 
ATOM     24  F   UNL     1      -0.529  10.500  23.385  0.00  0.00    +0.000 F 
ENDBRANCH  16  18
ENDBRANCH   4  14
TORSDOF 3
ENDMDL
MODEL 9
REMARK VINA RESULT:      -7.3      3.103      8.423
REMARK  Name = 
REMARK  5 active torsions:
REMARK  status: ('A' for Active; 'I' for Inactive)
REMARK    1  A    between atoms: C_1  and  C_2
REMARK    2  A    between atoms: C_5  and  C_6
REMARK    3  A    between atoms: N_7  and  C_8
REMARK    4  A    between atoms: C_11  and  C_12
REMARK    5  A    between atoms: N_14  and  C_15
REMARK                            x       y       z     vdW  Elec       q    Type
REMARK                         _______ _______ _______ _____ _____    ______ ____
ROOT
ATOM      1  C   UNL     1       2.923   6.713  18.249  0.00  0.00    +0.000 A 
ATOM      2  C   UNL     1       2.484   7.773  17.451  0.00  0.00    +0.000 A 
ATOM      3  C   UNL     1       1.770   8.828  18.006  0.00  0.00    +0.000 A 
ATOM      4  C   UNL     1       1.431   8.817  19.361  0.00  0.00    +0.000 A 
ATOM      5  C   UNL     1       1.815   7.745  20.165  0.00  0.00    +0.000 A 
ATOM      6  C   UNL     1       2.574   6.707  19.609  0.00  0.00    +0.000 A 
ENDROOT
BRANCH   1  13
ATOM      7  C   UNL     1       1.991   3.773  17.663  0.00  0.00    +0.000 C 
ATOM      8  C   UNL     1       3.355   4.342  17.463  0.00  0.00    +0.000 A 
ATOM      9  C   UNL     1       4.438   3.666  16.931  0.00  0.00    +0.000 A 
ATOM     10  C   UNL     1       5.489   4.579  16.782  0.00  0.00    +0.000 A 
ATOM     11  C   UNL     1       5.058   5.806  17.245  0.00  0.00    +0.000 A 
ATOM     12  C   UNL     1       5.904   7.033  17.369  0.00  0.00    +0.000 C 
ATOM     13  N   UNL     1       3.730   5.675  17.676  0.00  0.00    +0.000 N 
ENDBRANCH   1  13
BRANCH   4  14
ATOM     14  C   UNL     1       0.589   9.927  19.840  0.00  0.00    +0.000 C 
ATOM     15  O   UNL     1      -0.260  10.339  19.053  0.00  0.00    +0.000 OA
ATOM     16  N   UNL     1       0.866  10.443  21.088  0.00  0.00    +0.000 N 
ATOM     17  H   UNL     1       1.726  10.177  21.558  0.00  0.00    +0.000 HD
BRANCH  16  18
ATOM     18  C   UNL     1       0.160  11.540  21.651  0.00  0.00    +0.000 A 
ATOM     19  C   UNL     1       0.427  12.870  21.309  0.00  0.00    +0.000 A 
ATOM     20  C   UNL     1      -0.245  13.921  21.930  0.00  0.00    +0.000 A 
ATOM     21  C   UNL     1      -1.218  13.657  22.886  0.00  0.00    +0.000 A 
ATOM     22  C   UNL     1      -1.521  12.339  23.219  0.00  0.00    +0.000 A 
ATOM     23  C   UNL     1      -0.840  11.289  22.600  0.00  0.00    +0.000 A 
ATOM     24  F   UNL     1      -1.127  10.027  22.951  0.00  0.00    +0.000 F 
ENDBRANCH  16  18
ENDBRANCH   4  14
TORSDOF 3
ENDMDL
