MODEL 1
REMARK VINA RESULT:      -8.2      0.000      0.000
REMARK  Name = 
REMARK  8 active torsions:
REMARK  status: ('A' for Active; 'I' for Inactive)
REMARK    1  A    between atoms: C_2  and  O_3
REMARK    2  A    between atoms: C_2  and  C_4
REMARK    3  A    between atoms: C_4  and  C_5
REMARK    4  A    between atoms: C_4  and  P_21
REMARK    5  A    between atoms: C_5  and  C_6
REMARK    6  A    between atoms: C_7  and  C_8
REMARK    7  A    between atoms: P_21  and  O_23
REMARK    8  A    between atoms: P_21  and  O_24
REMARK                            x       y       z     vdW  Elec       q    Type
REMARK                         _______ _______ _______ _____ _____    ______ ____
ROOT
ATOM      1  C   UNL     1       3.350   5.332  17.707  0.00  0.00    +0.000 A 
ATOM      2  C   UNL     1       3.373   6.734  17.748  0.00  0.00    +0.000 A 
ATOM      3  N   UNL     1       4.368   7.234  16.937  0.00  0.00    +0.000 NA
ATOM      4  C   UNL     1       4.942   6.196  16.382  0.00  0.00    +0.000 A 
ATOM      5  C   UNL     1       5.972   6.137  15.395  0.00  0.00    +0.000 A 
ATOM      6  C   UNL     1       6.451   4.941  14.994  0.00  0.00    +0.000 A 
ATOM      7  C   UNL     1       5.976   3.715  15.586  0.00  0.00    +0.000 A 
ATOM      8  C   UNL     1       5.018   3.772  16.522  0.00  0.00    +0.000 A 
ATOM      9  N   UNL     1       4.440   4.999  16.889  0.00  0.00    +0.000 N 
ENDROOT
BRANCH   2  10
ATOM     10  C   UNL     1       2.521   7.670  18.492  0.00  0.00    +0.000 A 
ATOM     11  C   UNL     1       1.947   8.754  17.798  0.00  0.00    +0.000 A 
ATOM     12  C   UNL     1       1.080   9.651  18.431  0.00  0.00    +0.000 A 
ATOM     13  C   UNL     1       0.767   9.485  19.776  0.00  0.00    +0.000 A 
ATOM     14  C   UNL     1       1.316   8.417  20.479  0.00  0.00    +0.000 A 
ATOM     15  C   UNL     1       2.179   7.516  19.839  0.00  0.00    +0.000 A 
ENDBRANCH   2  10
BRANCH   1  16
ATOM     16  C   UNL     1       2.359   4.382  18.354  0.00  0.00    +0.000 C 
BRANCH  16  17
ATOM     17  C   UNL     1       2.838   3.367  19.385  0.00  0.00    +0.000 C 
BRANCH  17  19
ATOM     18  O   UNL     1       3.591   1.255  18.485  0.00  0.00    +0.000 OA
ATOM     19  C   UNL     1       2.676   1.948  18.904  0.00  0.00    +0.000 C 
BRANCH  19  20
ATOM     20  O   UNL     1       1.403   1.497  18.927  0.00  0.00    +0.000 OA
ATOM     21  H   UNL     1       0.841   1.825  18.184  0.00  0.00    +0.000 HD
ENDBRANCH  19  20
ENDBRANCH  17  19
BRANCH  17  22
ATOM     22  P   UNL     1       2.005   3.486  20.952  0.00  0.00    +0.000 P 
ATOM     23  O   UNL     1       2.115   2.306  21.851  0.00  0.00    +0.000 OA
BRANCH  22  24
ATOM     24  O   UNL     1       2.388   4.887  21.618  0.00  0.00    +0.000 OA
ATOM     25  H   UNL     1       3.190   5.358  21.307  0.00  0.00    +0.000 HD
ENDBRANCH  22  24
BRANCH  22  26
ATOM     26  O   UNL     1       0.483   3.764  20.494  0.00  0.00    +0.000 OA
ATOM     27  H   UNL     1      -0.139   3.244  21.047  0.00  0.00    +0.000 HD
ENDBRANCH  22  26
ENDBRANCH  17  22
ENDBRANCH  16  17
ENDBRANCH   1  16
TORSDOF 8
ENDMDL
MODEL 2
REMARK VINA RESULT:      -8.1      0.228      1.005
REMARK  Name = 
REMARK  8 active torsions:
REMARK  status: ('A' for Active; 'I' for Inactive)
REMARK    1  A    between atoms: C_2  and  O_3
REMARK    2  A    between atoms: C_2  and  C_4
REMARK    3  A    between atoms: C_4  and  C_5
REMARK    4  A    between atoms: C_4  and  P_21
REMARK    5  A    between atoms: C_5  and  C_6
REMARK    6  A    between atoms: C_7  and  C_8
REMARK    7  A    between atoms: P_21  and  O_23
REMARK    8  A    between atoms: P_21  and  O_24
REMARK                            x       y       z     vdW  Elec       q    Type
REMARK                         _______ _______ _______ _____ _____    ______ ____
ROOT
ATOM      1  C   UNL     1       3.319   5.351  17.771  0.00  0.00    +0.000 A 
ATOM      2  C   UNL     1       3.286   6.754  17.747  0.00  0.00    +0.000 A 
ATOM      3  N   UNL     1       4.250   7.256  16.901  0.00  0.00    +0.000 NA
ATOM      4  C   UNL     1       4.859   6.216  16.386  0.00  0.00    +0.000 A 
ATOM      5  C   UNL     1       5.878   6.153  15.389  0.00  0.00    +0.000 A 
ATOM      6  C   UNL     1       6.401   4.960  15.037  0.00  0.00    +0.000 A 
ATOM      7  C   UNL     1       5.983   3.744  15.691  0.00  0.00    +0.000 A 
ATOM      8  C   UNL     1       5.035   3.807  16.637  0.00  0.00    +0.000 A 
ATOM      9  N   UNL     1       4.411   5.025  16.955  0.00  0.00    +0.000 N 
ENDROOT
BRANCH   2  10
ATOM     10  C   UNL     1       2.405   7.689  18.460  0.00  0.00    +0.000 A 
ATOM     11  C   UNL     1       2.181   7.484  19.836  0.00  0.00    +0.000 A 
ATOM     12  C   UNL     1       1.400   8.366  20.589  0.00  0.00    +0.000 A 
ATOM     13  C   UNL     1       0.822   9.476  19.982  0.00  0.00    +0.000 A 
ATOM     14  C   UNL     1       1.036   9.702  18.626  0.00  0.00    +0.000 A 
ATOM     15  C   UNL     1       1.826   8.819  17.876  0.00  0.00    +0.000 A 
ENDBRANCH   2  10
BRANCH   1  16
ATOM     16  C   UNL     1       2.376   4.394  18.476  0.00  0.00    +0.000 C 
BRANCH  16  17
ATOM     17  C   UNL     1       2.931   3.318  19.401  0.00  0.00    +0.000 C 
BRANCH  17  19
ATOM     18  O   UNL     1       3.592   1.146  18.578  0.00  0.00    +0.000 OA
ATOM     19  C   UNL     1       2.701   1.930  18.862  0.00  0.00    +0.000 C 
BRANCH  19  20
ATOM     20  O   UNL     1       1.400   1.621  18.667  0.00  0.00    +0.000 OA
ATOM     21  H   UNL     1       0.782   2.385  18.753  0.00  0.00    +0.000 HD
ENDBRANCH  19  20
ENDBRANCH  17  19
BRANCH  17  22
ATOM     22  P   UNL     1       2.251   3.362  21.043  0.00  0.00    +0.000 P 
ATOM     23  O   UNL     1       2.737   2.321  21.988  0.00  0.00    +0.000 OA
BRANCH  22  24
ATOM     24  O   UNL     1       2.339   4.863  21.582  0.00  0.00    +0.000 OA
ATOM     25  H   UNL     1       1.861   5.571  21.101  0.00  0.00    +0.000 HD
ENDBRANCH  22  24
BRANCH  22  26
ATOM     26  O   UNL     1       0.671   3.227  20.748  0.00  0.00    +0.000 OA
ATOM     27  H   UNL     1       0.153   3.536  21.522  0.00  0.00    +0.000 HD
ENDBRANCH  22  26
ENDBRANCH  17  22
ENDBRANCH  16  17
ENDBRANCH   1  16
TORSDOF 8
ENDMDL
MODEL 3
REMARK VINA RESULT:      -8.1      3.552      5.187
REMARK  Name = 
REMARK  8 active torsions:
REMARK  status: ('A' for Active; 'I' for Inactive)
REMARK    1  A    between atoms: C_2  and  O_3
REMARK    2  A    between atoms: C_2  and  C_4
REMARK    3  A    between atoms: C_4  and  C_5
REMARK    4  A    between atoms: C_4  and  P_21
REMARK    5  A    between atoms: C_5  and  C_6
REMARK    6  A    between atoms: C_7  and  C_8
REMARK    7  A    between atoms: P_21  and  O_23
REMARK    8  A    between atoms: P_21  and  O_24
REMARK                            x       y       z     vdW  Elec       q    Type
REMARK                         _______ _______ _______ _____ _____    ______ ____
ROOT
ATOM      1  C   UNL     1       3.691   5.575  19.201  0.00  0.00    +0.000 A 
ATOM      2  C   UNL     1       2.564   6.318  19.584  0.00  0.00    +0.000 A 
ATOM      3  N   UNL     1       1.779   5.605  20.463  0.00  0.00    +0.000 NA
ATOM      4  C   UNL     1       2.390   4.463  20.653  0.00  0.00    +0.000 A 
ATOM      5  C   UNL     1       2.064   3.384  21.529  0.00  0.00    +0.000 A 
ATOM      6  C   UNL     1       2.819   2.266  21.529  0.00  0.00    +0.000 A 
ATOM      7  C   UNL     1       3.927   2.118  20.617  0.00  0.00    +0.000 A 
ATOM      8  C   UNL     1       4.224   3.128  19.785  0.00  0.00    +0.000 A 
ATOM      9  N   UNL     1       3.509   4.336  19.831  0.00  0.00    +0.000 N 
ENDROOT
BRANCH   2  10
ATOM     10  C   UNL     1       2.151   7.673  19.195  0.00  0.00    +0.000 A 
ATOM     11  C   UNL     1       1.447   8.456  20.131  0.00  0.00    +0.000 A 
ATOM     12  C   UNL     1       1.073   9.774  19.849  0.00  0.00    +0.000 A 
ATOM     13  C   UNL     1       1.394  10.341  18.620  0.00  0.00    +0.000 A 
ATOM     14  C   UNL     1       2.096   9.588  17.683  0.00  0.00    +0.000 A 
ATOM     15  C   UNL     1       2.476   8.270  17.973  0.00  0.00    +0.000 A 
ENDBRANCH   2  10
BRANCH   1  16
ATOM     16  C   UNL     1       4.864   6.009  18.342  0.00  0.00    +0.000 C 
BRANCH  16  17
ATOM     17  C   UNL     1       6.160   5.208  18.359  0.00  0.00    +0.000 C 
BRANCH  17  19
ATOM     18  O   UNL     1       7.911   6.866  18.512  0.00  0.00    +0.000 OA
ATOM     19  C   UNL     1       7.283   5.956  19.031  0.00  0.00    +0.000 C 
BRANCH  19  20
ATOM     20  O   UNL     1       7.585   5.506  20.269  0.00  0.00    +0.000 OA
ATOM     21  H   UNL     1       7.248   4.600  20.467  0.00  0.00    +0.000 HD
ENDBRANCH  19  20
ENDBRANCH  17  19
BRANCH  17  22
ATOM     22  P   UNL     1       6.737   4.739  16.744  0.00  0.00    +0.000 P 
ATOM     23  O   UNL     1       5.860   3.821  15.969  0.00  0.00    +0.000 OA
BRANCH  22  24
ATOM     24  O   UNL     1       7.189   6.062  15.970  0.00  0.00    +0.000 OA
ATOM     25  H   UNL     1       7.575   5.980  15.072  0.00  0.00    +0.000 HD
ENDBRANCH  22  24
BRANCH  22  26
ATOM     26  O   UNL     1       8.166   4.073  17.086  0.00  0.00    +0.000 OA
ATOM     27  H   UNL     1       8.043   3.262  17.624  0.00  0.00    +0.000 HD
ENDBRANCH  22  26
ENDBRANCH  17  22
ENDBRANCH  16  17
ENDBRANCH   1  16
TORSDOF 8
ENDMDL
MODEL 4
REMARK VINA RESULT:      -8.0      0.636      1.092
REMARK  Name = 
REMARK  8 active torsions:
REMARK  status: ('A' for Active; 'I' for Inactive)
REMARK    1  A    between atoms: C_2  and  O_3
REMARK    2  A    between atoms: C_2  and  C_4
REMARK    3  A    between atoms: C_4  and  C_5
REMARK    4  A    between atoms: C_4  and  P_21
REMARK    5  A    between atoms: C_5  and  C_6
REMARK    6  A    between atoms: C_7  and  C_8
REMARK    7  A    between atoms: P_21  and  O_23
REMARK    8  A    between atoms: P_21  and  O_24
REMARK                            x       y       z     vdW  Elec       q    Type
REMARK                         _______ _______ _______ _____ _____    ______ ____
ROOT
ATOM      1  C   UNL     1       3.524   5.195  17.653  0.00  0.00    +0.000 A 
ATOM      2  C   UNL     1       3.507   6.596  17.723  0.00  0.00    +0.000 A 
ATOM      3  N   UNL     1       4.447   7.144  16.877  0.00  0.00    +0.000 NA
ATOM      4  C   UNL     1       5.025   6.135  16.274  0.00  0.00    +0.000 A 
ATOM      5  C   UNL     1       6.008   6.128  15.240  0.00  0.00    +0.000 A 
ATOM      6  C   UNL     1       6.505   4.956  14.792  0.00  0.00    +0.000 A 
ATOM      7  C   UNL     1       6.096   3.704  15.379  0.00  0.00    +0.000 A 
ATOM      8  C   UNL     1       5.181   3.713  16.360  0.00  0.00    +0.000 A 
ATOM      9  N   UNL     1       4.584   4.913  16.779  0.00  0.00    +0.000 N 
ENDROOT
BRANCH   2  10
ATOM     10  C   UNL     1       2.662   7.490  18.526  0.00  0.00    +0.000 A 
ATOM     11  C   UNL     1       2.108   8.627  17.906  0.00  0.00    +0.000 A 
ATOM     12  C   UNL     1       1.249   9.490  18.594  0.00  0.00    +0.000 A 
ATOM     13  C   UNL     1       0.925   9.236  19.923  0.00  0.00    +0.000 A 
ATOM     14  C   UNL     1       1.455   8.114  20.554  0.00  0.00    +0.000 A 
ATOM     15  C   UNL     1       2.310   7.248  19.857  0.00  0.00    +0.000 A 
ENDBRANCH   2  10
BRANCH   1  16
ATOM     16  C   UNL     1       2.595   4.202  18.326  0.00  0.00    +0.000 C 
BRANCH  16  17
ATOM     17  C   UNL     1       3.033   3.489  19.600  0.00  0.00    +0.000 C 
BRANCH  17  19
ATOM     18  O   UNL     1       3.542   1.368  18.563  0.00  0.00    +0.000 OA
ATOM     19  C   UNL     1       3.876   2.273  19.311  0.00  0.00    +0.000 C 
BRANCH  19  20
ATOM     20  O   UNL     1       5.041   2.232  19.993  0.00  0.00    +0.000 OA
ATOM     21  H   UNL     1       5.712   2.893  19.695  0.00  0.00    +0.000 HD
ENDBRANCH  19  20
ENDBRANCH  17  19
BRANCH  17  22
ATOM     22  P   UNL     1       1.683   2.958  20.627  0.00  0.00    +0.000 P 
ATOM     23  O   UNL     1       2.031   2.534  22.011  0.00  0.00    +0.000 OA
BRANCH  22  24
ATOM     24  O   UNL     1       0.516   4.044  20.522  0.00  0.00    +0.000 OA
ATOM     25  H   UNL     1      -0.417   3.742  20.529  0.00  0.00    +0.000 HD
ENDBRANCH  22  24
BRANCH  22  26
ATOM     26  O   UNL     1       1.064   1.749  19.757  0.00  0.00    +0.000 OA
ATOM     27  H   UNL     1       0.658   2.096  18.934  0.00  0.00    +0.000 HD
ENDBRANCH  22  26
ENDBRANCH  17  22
ENDBRANCH  16  17
ENDBRANCH   1  16
TORSDOF 8
ENDMDL
MODEL 5
REMARK VINA RESULT:      -7.9      3.466      5.165
REMARK  Name = 
REMARK  8 active torsions:
REMARK  status: ('A' for Active; 'I' for Inactive)
REMARK    1  A    between atoms: C_2  and  O_3
REMARK    2  A    between atoms: C_2  and  C_4
REMARK    3  A    between atoms: C_4  and  C_5
REMARK    4  A    between atoms: C_4  and  P_21
REMARK    5  A    between atoms: C_5  and  C_6
REMARK    6  A    between atoms: C_7  and  C_8
REMARK    7  A    between atoms: P_21  and  O_23
REMARK    8  A    between atoms: P_21  and  O_24
REMARK                            x       y       z     vdW  Elec       q    Type
REMARK                         _______ _______ _______ _____ _____    ______ ____
ROOT
ATOM      1  C   UNL     1       3.586   5.609  19.246  0.00  0.00    +0.000 A 
ATOM      2  C   UNL     1       2.467   6.349  19.659  0.00  0.00    +0.000 A 
ATOM      3  N   UNL     1       1.701   5.629  20.549  0.00  0.00    +0.000 NA
ATOM      4  C   UNL     1       2.316   4.485  20.717  0.00  0.00    +0.000 A 
ATOM      5  C   UNL     1       2.010   3.399  21.592  0.00  0.00    +0.000 A 
ATOM      6  C   UNL     1       2.765   2.282  21.566  0.00  0.00    +0.000 A 
ATOM      7  C   UNL     1       3.852   2.142  20.629  0.00  0.00    +0.000 A 
ATOM      8  C   UNL     1       4.132   3.157  19.799  0.00  0.00    +0.000 A 
ATOM      9  N   UNL     1       3.417   4.365  19.870  0.00  0.00    +0.000 N 
ENDROOT
BRANCH   2  10
ATOM     10  C   UNL     1       2.046   7.707  19.289  0.00  0.00    +0.000 A 
ATOM     11  C   UNL     1       1.413   8.503  20.265  0.00  0.00    +0.000 A 
ATOM     12  C   UNL     1       1.037   9.823  20.000  0.00  0.00    +0.000 A 
ATOM     13  C   UNL     1       1.284  10.380  18.749  0.00  0.00    +0.000 A 
ATOM     14  C   UNL     1       1.914   9.614  17.773  0.00  0.00    +0.000 A 
ATOM     15  C   UNL     1       2.296   8.293  18.045  0.00  0.00    +0.000 A 
ENDBRANCH   2  10
BRANCH   1  16
ATOM     16  C   UNL     1       4.740   6.050  18.365  0.00  0.00    +0.000 C 
BRANCH  16  17
ATOM     17  C   UNL     1       5.991   5.187  18.257  0.00  0.00    +0.000 C 
BRANCH  17  19
ATOM     18  O   UNL     1       7.485   5.457  20.136  0.00  0.00    +0.000 OA
ATOM     19  C   UNL     1       7.158   5.780  19.005  0.00  0.00    +0.000 C 
BRANCH  19  20
ATOM     20  O   UNL     1       7.806   6.756  18.333  0.00  0.00    +0.000 OA
ATOM     21  H   UNL     1       8.035   7.546  18.880  0.00  0.00    +0.000 HD
ENDBRANCH  19  20
ENDBRANCH  17  19
BRANCH  17  22
ATOM     22  P   UNL     1       6.528   4.906  16.586  0.00  0.00    +0.000 P 
ATOM     23  O   UNL     1       6.243   5.990  15.608  0.00  0.00    +0.000 OA
BRANCH  22  24
ATOM     24  O   UNL     1       8.045   4.408  16.625  0.00  0.00    +0.000 OA
ATOM     25  H   UNL     1       8.757   5.060  16.796  0.00  0.00    +0.000 HD
ENDBRANCH  22  24
BRANCH  22  26
ATOM     26  O   UNL     1       5.758   3.536  16.220  0.00  0.00    +0.000 OA
ATOM     27  H   UNL     1       5.580   3.019  17.034  0.00  0.00    +0.000 HD
ENDBRANCH  22  26
ENDBRANCH  17  22
ENDBRANCH  16  17
ENDBRANCH   1  16
TORSDOF 8
ENDMDL
MODEL 6
REMARK VINA RESULT:      -7.9      1.165      2.051
REMARK  Name = 
REMARK  8 active torsions:
REMARK  status: ('A' for Active; 'I' for Inactive)
REMARK    1  A    between atoms: C_2  and  O_3
REMARK    2  A    between atoms: C_2  and  C_4
REMARK    3  A    between atoms: C_4  and  C_5
REMARK    4  A    between atoms: C_4  and  P_21
REMARK    5  A    between atoms: C_5  and  C_6
REMARK    6  A    between atoms: C_7  and  C_8
REMARK    7  A    between atoms: P_21  and  O_23
REMARK    8  A    between atoms: P_21  and  O_24
REMARK                            x       y       z     vdW  Elec       q    Type
REMARK                         _______ _______ _______ _____ _____    ______ ____
ROOT
ATOM      1  C   UNL     1       3.855   5.600  18.707  0.00  0.00    +0.000 A 
ATOM      2  C   UNL     1       3.318   6.860  18.400  0.00  0.00    +0.000 A 
ATOM      3  N   UNL     1       3.802   7.321  17.196  0.00  0.00    +0.000 NA
ATOM      4  C   UNL     1       4.597   6.386  16.740  0.00  0.00    +0.000 A 
ATOM      5  C   UNL     1       5.297   6.303  15.499  0.00  0.00    +0.000 A 
ATOM      6  C   UNL     1       6.110   5.254  15.254  0.00  0.00    +0.000 A 
ATOM      7  C   UNL     1       6.327   4.235  16.251  0.00  0.00    +0.000 A 
ATOM      8  C   UNL     1       5.678   4.320  17.422  0.00  0.00    +0.000 A 
ATOM      9  N   UNL     1       4.758   5.354  17.664  0.00  0.00    +0.000 N 
ENDROOT
BRANCH   2  10
ATOM     10  C   UNL     1       2.362   7.685  19.150  0.00  0.00    +0.000 A 
ATOM     11  C   UNL     1       1.790   8.801  18.508  0.00  0.00    +0.000 A 
ATOM     12  C   UNL     1       0.831   9.598  19.141  0.00  0.00    +0.000 A 
ATOM     13  C   UNL     1       0.422   9.298  20.436  0.00  0.00    +0.000 A 
ATOM     14  C   UNL     1       0.969   8.196  21.088  0.00  0.00    +0.000 A 
ATOM     15  C   UNL     1       1.924   7.395  20.446  0.00  0.00    +0.000 A 
ENDBRANCH   2  10
BRANCH   1  16
ATOM     16  C   UNL     1       3.518   4.685  19.870  0.00  0.00    +0.000 C 
BRANCH  16  17
ATOM     17  C   UNL     1       2.353   3.709  19.761  0.00  0.00    +0.000 C 
BRANCH  17  19
ATOM     18  O   UNL     1       2.962   2.494  21.758  0.00  0.00    +0.000 OA
ATOM     19  C   UNL     1       2.091   2.987  21.058  0.00  0.00    +0.000 C 
BRANCH  19  20
ATOM     20  O   UNL     1       0.784   2.881  21.378  0.00  0.00    +0.000 OA
ATOM     21  H   UNL     1       0.191   2.683  20.613  0.00  0.00    +0.000 HD
ENDBRANCH  19  20
ENDBRANCH  17  19
BRANCH  17  22
ATOM     22  P   UNL     1       2.570   2.468  18.506  0.00  0.00    +0.000 P 
ATOM     23  O   UNL     1       2.333   2.899  17.101  0.00  0.00    +0.000 OA
BRANCH  22  24
ATOM     24  O   UNL     1       3.963   1.731  18.765  0.00  0.00    +0.000 OA
ATOM     25  H   UNL     1       4.736   2.261  19.053  0.00  0.00    +0.000 HD
ENDBRANCH  22  24
BRANCH  22  26
ATOM     26  O   UNL     1       1.524   1.335  18.980  0.00  0.00    +0.000 OA
ATOM     27  H   UNL     1       1.065   1.618  19.801  0.00  0.00    +0.000 HD
ENDBRANCH  22  26
ENDBRANCH  17  22
ENDBRANCH  16  17
ENDBRANCH   1  16
TORSDOF 8
ENDMDL
MODEL 7
REMARK VINA RESULT:      -7.9      0.695      1.315
REMARK  Name = 
REMARK  8 active torsions:
REMARK  status: ('A' for Active; 'I' for Inactive)
REMARK    1  A    between atoms: C_2  and  O_3
REMARK    2  A    between atoms: C_2  and  C_4
REMARK    3  A    between atoms: C_4  and  C_5
REMARK    4  A    between atoms: C_4  and  P_21
REMARK    5  A    between atoms: C_5  and  C_6
REMARK    6  A    between atoms: C_7  and  C_8
REMARK    7  A    between atoms: P_21  and  O_23
REMARK    8  A    between atoms: P_21  and  O_24
REMARK                            x       y       z     vdW  Elec       q    Type
REMARK                         _______ _______ _______ _____ _____    ______ ____
ROOT
ATOM      1  C   UNL     1       3.006   5.502  17.885  0.00  0.00    +0.000 A 
ATOM      2  C   UNL     1       3.119   6.899  17.957  0.00  0.00    +0.000 A 
ATOM      3  N   UNL     1       4.202   7.345  17.232  0.00  0.00    +0.000 NA
ATOM      4  C   UNL     1       4.746   6.279  16.699  0.00  0.00    +0.000 A 
ATOM      5  C   UNL     1       5.840   6.167  15.789  0.00  0.00    +0.000 A 
ATOM      6  C   UNL     1       6.268   4.948  15.399  0.00  0.00    +0.000 A 
ATOM      7  C   UNL     1       5.671   3.748  15.929  0.00  0.00    +0.000 A 
ATOM      8  C   UNL     1       4.651   3.854  16.793  0.00  0.00    +0.000 A 
ATOM      9  N   UNL     1       4.129   5.110  17.143  0.00  0.00    +0.000 N 
ENDROOT
BRANCH   2  10
ATOM     10  C   UNL     1       2.276   7.878  18.657  0.00  0.00    +0.000 A 
ATOM     11  C   UNL     1       1.688   8.916  17.908  0.00  0.00    +0.000 A 
ATOM     12  C   UNL     1       0.830   9.849  18.498  0.00  0.00    +0.000 A 
ATOM     13  C   UNL     1       0.540   9.767  19.856  0.00  0.00    +0.000 A 
ATOM     14  C   UNL     1       1.104   8.745  20.615  0.00  0.00    +0.000 A 
ATOM     15  C   UNL     1       1.958   7.807  20.017  0.00  0.00    +0.000 A 
ENDBRANCH   2  10
BRANCH   1  16
ATOM     16  C   UNL     1       1.910   4.611  18.439  0.00  0.00    +0.000 C 
BRANCH  16  17
ATOM     17  C   UNL     1       2.271   3.352  19.218  0.00  0.00    +0.000 C 
BRANCH  17  19
ATOM     18  O   UNL     1       0.272   2.263  18.409  0.00  0.00    +0.000 OA
ATOM     19  C   UNL     1       1.417   2.174  18.823  0.00  0.00    +0.000 C 
BRANCH  19  20
ATOM     20  O   UNL     1       2.009   0.974  19.008  0.00  0.00    +0.000 OA
ATOM     21  H   UNL     1       2.020   0.397  18.208  0.00  0.00    +0.000 HD
ENDBRANCH  19  20
ENDBRANCH  17  19
BRANCH  17  22
ATOM     22  P   UNL     1       2.131   3.532  20.981  0.00  0.00    +0.000 P 
ATOM     23  O   UNL     1       2.320   4.905  21.523  0.00  0.00    +0.000 OA
BRANCH  22  24
ATOM     24  O   UNL     1       0.797   2.792  21.456  0.00  0.00    +0.000 OA
ATOM     25  H   UNL     1       0.846   2.156  22.201  0.00  0.00    +0.000 HD
ENDBRANCH  22  24
BRANCH  22  26
ATOM     26  O   UNL     1       3.261   2.508  21.507  0.00  0.00    +0.000 OA
ATOM     27  H   UNL     1       3.034   1.589  21.250  0.00  0.00    +0.000 HD
ENDBRANCH  22  26
ENDBRANCH  17  22
ENDBRANCH  16  17
ENDBRANCH   1  16
TORSDOF 8
ENDMDL
MODEL 8
REMARK VINA RESULT:      -7.8      1.577      5.118
REMARK  Name = 
REMARK  8 active torsions:
REMARK  status: ('A' for Active; 'I' for Inactive)
REMARK    1  A    between atoms: C_2  and  O_3
REMARK    2  A    between atoms: C_2  and  C_4
REMARK    3  A    between atoms: C_4  and  C_5
REMARK    4  A    between atoms: C_4  and  P_21
REMARK    5  A    between atoms: C_5  and  C_6
REMARK    6  A    between atoms: C_7  and  C_8
REMARK    7  A    between atoms: P_21  and  O_23
REMARK    8  A    between atoms: P_21  and  O_24
REMARK                            x       y       z     vdW  Elec       q    Type
REMARK                         _______ _______ _______ _____ _____    ______ ____
ROOT
ATOM      1  C   UNL     1       3.166   6.193  19.315  0.00  0.00    +0.000 A 
ATOM      2  C   UNL     1       3.640   6.533  18.039  0.00  0.00    +0.000 A 
ATOM      3  N   UNL     1       3.100   7.728  17.615  0.00  0.00    +0.000 NA
ATOM      4  C   UNL     1       2.330   8.145  18.589  0.00  0.00    +0.000 A 
ATOM      5  C   UNL     1       1.596   9.362  18.719  0.00  0.00    +0.000 A 
ATOM      6  C   UNL     1       0.821   9.568  19.805  0.00  0.00    +0.000 A 
ATOM      7  C   UNL     1       0.679   8.552  20.818  0.00  0.00    +0.000 A 
ATOM      8  C   UNL     1       1.359   7.403  20.688  0.00  0.00    +0.000 A 
ATOM      9  N   UNL     1       2.242   7.204  19.614  0.00  0.00    +0.000 N 
ENDROOT
BRANCH   2  10
ATOM     10  C   UNL     1       4.583   5.825  17.163  0.00  0.00    +0.000 A 
ATOM     11  C   UNL     1       5.899   6.317  17.056  0.00  0.00    +0.000 A 
ATOM     12  C   UNL     1       6.864   5.661  16.285  0.00  0.00    +0.000 A 
ATOM     13  C   UNL     1       6.535   4.495  15.601  0.00  0.00    +0.000 A 
ATOM     14  C   UNL     1       5.242   3.987  15.699  0.00  0.00    +0.000 A 
ATOM     15  C   UNL     1       4.280   4.644  16.479  0.00  0.00    +0.000 A 
ENDBRANCH   2  10
BRANCH   1  16
ATOM     16  C   UNL     1       3.577   5.029  20.198  0.00  0.00    +0.000 C 
BRANCH  16  17
ATOM     17  C   UNL     1       3.094   3.620  19.878  0.00  0.00    +0.000 C 
BRANCH  17  19
ATOM     18  O   UNL     1       0.913   2.861  20.587  0.00  0.00    +0.000 OA
ATOM     19  C   UNL     1       2.069   3.131  20.870  0.00  0.00    +0.000 C 
BRANCH  19  20
ATOM     20  O   UNL     1       2.522   3.053  22.140  0.00  0.00    +0.000 OA
ATOM     21  H   UNL     1       3.474   3.293  22.249  0.00  0.00    +0.000 HD
ENDBRANCH  19  20
ENDBRANCH  17  19
BRANCH  17  22
ATOM     22  P   UNL     1       4.394   2.408  19.827  0.00  0.00    +0.000 P 
ATOM     23  O   UNL     1       4.773   1.790  21.127  0.00  0.00    +0.000 OA
BRANCH  22  24
ATOM     24  O   UNL     1       4.071   1.376  18.652  0.00  0.00    +0.000 OA
ATOM     25  H   UNL     1       4.734   0.690  18.426  0.00  0.00    +0.000 HD
ENDBRANCH  22  24
BRANCH  22  26
ATOM     26  O   UNL     1       5.605   3.253  19.178  0.00  0.00    +0.000 OA
ATOM     27  H   UNL     1       5.253   4.000  18.648  0.00  0.00    +0.000 HD
ENDBRANCH  22  26
ENDBRANCH  17  22
ENDBRANCH  16  17
ENDBRANCH   1  16
TORSDOF 8
ENDMDL
MODEL 9
REMARK VINA RESULT:      -7.8      1.513      5.055
REMARK  Name = 
REMARK  8 active torsions:
REMARK  status: ('A' for Active; 'I' for Inactive)
REMARK    1  A    between atoms: C_2  and  O_3
REMARK    2  A    between atoms: C_2  and  C_4
REMARK    3  A    between atoms: C_4  and  C_5
REMARK    4  A    between atoms: C_4  and  P_21
REMARK    5  A    between atoms: C_5  and  C_6
REMARK    6  A    between atoms: C_7  and  C_8
REMARK    7  A    between atoms: P_21  and  O_23
REMARK    8  A    between atoms: P_21  and  O_24
REMARK                            x       y       z     vdW  Elec       q    Type
REMARK                         _______ _______ _______ _____ _____    ______ ____
ROOT
ATOM      1  C   UNL     1       3.131   6.354  19.205  0.00  0.00    +0.000 A 
ATOM      2  C   UNL     1       3.678   6.652  17.947  0.00  0.00    +0.000 A 
ATOM      3  N   UNL     1       3.206   7.858  17.477  0.00  0.00    +0.000 NA
ATOM      4  C   UNL     1       2.408   8.324  18.406  0.00  0.00    +0.000 A 
ATOM      5  C   UNL     1       1.717   9.571  18.479  0.00  0.00    +0.000 A 
ATOM      6  C   UNL     1       0.900   9.826  19.522  0.00  0.00    +0.000 A 
ATOM      7  C   UNL     1       0.669   8.836  20.544  0.00  0.00    +0.000 A 
ATOM      8  C   UNL     1       1.309   7.659  20.467  0.00  0.00    +0.000 A 
ATOM      9  N   UNL     1       2.234   7.406  19.441  0.00  0.00    +0.000 N 
ENDROOT
BRANCH   2  10
ATOM     10  C   UNL     1       4.633   5.892  17.131  0.00  0.00    +0.000 A 
ATOM     11  C   UNL     1       5.970   6.332  17.076  0.00  0.00    +0.000 A 
ATOM     12  C   UNL     1       6.945   5.625  16.365  0.00  0.00    +0.000 A 
ATOM     13  C   UNL     1       6.604   4.458  15.688  0.00  0.00    +0.000 A 
ATOM     14  C   UNL     1       5.290   4.000  15.734  0.00  0.00    +0.000 A 
ATOM     15  C   UNL     1       4.318   4.709  16.455  0.00  0.00    +0.000 A 
ENDBRANCH   2  10
BRANCH   1  16
ATOM     16  C   UNL     1       3.453   5.193  20.126  0.00  0.00    +0.000 C 
BRANCH  16  17
ATOM     17  C   UNL     1       2.826   3.826  19.880  0.00  0.00    +0.000 C 
BRANCH  17  19
ATOM     18  O   UNL     1       2.224   3.465  22.191  0.00  0.00    +0.000 OA
ATOM     19  C   UNL     1       1.923   3.402  21.010  0.00  0.00    +0.000 C 
BRANCH  19  20
ATOM     20  O   UNL     1       0.739   2.890  20.609  0.00  0.00    +0.000 OA
ATOM     21  H   UNL     1       0.738   1.910  20.490  0.00  0.00    +0.000 HD
ENDBRANCH  19  20
ENDBRANCH  17  19
BRANCH  17  22
ATOM     22  P   UNL     1       4.012   2.524  19.641  0.00  0.00    +0.000 P 
ATOM     23  O   UNL     1       3.604   1.415  18.737  0.00  0.00    +0.000 OA
BRANCH  22  24
ATOM     24  O   UNL     1       5.426   3.188  19.306  0.00  0.00    +0.000 OA
ATOM     25  H   UNL     1       5.610   4.099  19.620  0.00  0.00    +0.000 HD
ENDBRANCH  22  24
BRANCH  22  26
ATOM     26  O   UNL     1       4.254   2.019  21.154  0.00  0.00    +0.000 OA
ATOM     27  H   UNL     1       4.118   1.049  21.214  0.00  0.00    +0.000 HD
ENDBRANCH  22  26
ENDBRANCH  17  22
ENDBRANCH  16  17
ENDBRANCH   1  16
TORSDOF 8
ENDMDL
