MODEL 1
REMARK VINA RESULT:      -5.9      0.000      0.000
REMARK  Name = 
REMARK  2 active torsions:
REMARK  status: ('A' for Active; 'I' for Inactive)
REMARK    1  A    between atoms: C_1  and  O_2
REMARK    2  A    between atoms: O_2  and  C_3
REMARK                            x       y       z     vdW  Elec       q    Type
REMARK                         _______ _______ _______ _____ _____    ______ ____
ROOT
ATOM      1  C   UNL     1       5.510   4.427  18.124  0.00  0.00    +0.000 C 
ATOM      2  N   UNL     1       5.495   3.900  19.302  0.00  0.00    +0.000 NA
ATOM      3  O   UNL     1       4.412   2.990  19.283  0.00  0.00    +0.000 OA
ATOM      4  C   UNL     1       3.560   3.408  18.205  0.00  0.00    +0.000 C 
ATOM      5  C   UNL     1       4.549   3.861  17.147  0.00  0.00    +0.000 C 
ATOM      6  C   UNL     1       2.577   2.298  17.815  0.00  0.00    +0.000 C 
ATOM      7  N   UNL     1       1.224   2.885  18.108  0.00  0.00    +0.000 NA
ATOM      8  C   UNL     1       1.070   3.005  19.591  0.00  0.00    +0.000 C 
ATOM      9  C   UNL     1       1.969   4.178  19.982  0.00  0.00    +0.000 C 
ATOM     10  C   UNL     1       2.591   4.533  18.635  0.00  0.00    +0.000 C 
ATOM     11  C   UNL     1       1.417   4.300  17.701  0.00  0.00    +0.000 C 
ENDROOT
BRANCH   1  13
ATOM     12  C   UNL     1       7.584   5.532  18.296  0.00  0.00    +0.000 C 
ATOM     13  O   UNL     1       6.274   5.451  17.719  0.00  0.00    +0.000 OA
ENDBRANCH   1  13
TORSDOF 1
ENDMDL
MODEL 2
REMARK VINA RESULT:      -5.9      3.852      5.332
REMARK  Name = 
REMARK  2 active torsions:
REMARK  status: ('A' for Active; 'I' for Inactive)
REMARK    1  A    between atoms: C_1  and  O_2
REMARK    2  A    between atoms: O_2  and  C_3
REMARK                            x       y       z     vdW  Elec       q    Type
REMARK                         _______ _______ _______ _____ _____    ______ ____
ROOT
ATOM      1  C   UNL     1       6.154   4.363  14.242  0.00  0.00    +0.000 C 
ATOM      2  N   UNL     1       7.032   5.292  14.061  0.00  0.00    +0.000 NA
ATOM      3  O   UNL     1       7.754   5.356  15.276  0.00  0.00    +0.000 OA
ATOM      4  C   UNL     1       6.911   4.755  16.272  0.00  0.00    +0.000 C 
ATOM      5  C   UNL     1       6.255   3.614  15.517  0.00  0.00    +0.000 C 
ATOM      6  C   UNL     1       7.712   4.394  17.529  0.00  0.00    +0.000 C 
ATOM      7  N   UNL     1       7.101   5.242  18.610  0.00  0.00    +0.000 NA
ATOM      8  C   UNL     1       7.456   6.672  18.349  0.00  0.00    +0.000 C 
ATOM      9  C   UNL     1       6.587   7.077  17.157  0.00  0.00    +0.000 C 
ATOM     10  C   UNL     1       5.885   5.759  16.844  0.00  0.00    +0.000 C 
ATOM     11  C   UNL     1       5.663   5.207  18.241  0.00  0.00    +0.000 C 
ENDROOT
BRANCH   1  13
ATOM     12  C   UNL     1       5.508   3.323  12.228  0.00  0.00    +0.000 C 
ATOM     13  O   UNL     1       5.150   4.045  13.414  0.00  0.00    +0.000 OA
ENDBRANCH   1  13
TORSDOF 1
ENDMDL
MODEL 3
REMARK VINA RESULT:      -5.9      1.008      1.144
REMARK  Name = 
REMARK  2 active torsions:
REMARK  status: ('A' for Active; 'I' for Inactive)
REMARK    1  A    between atoms: C_1  and  O_2
REMARK    2  A    between atoms: O_2  and  C_3
REMARK                            x       y       z     vdW  Elec       q    Type
REMARK                         _______ _______ _______ _____ _____    ______ ____
ROOT
ATOM      1  C   UNL     1       5.449   4.588  17.986  0.00  0.00    +0.000 C 
ATOM      2  N   UNL     1       5.737   4.267  19.202  0.00  0.00    +0.000 NA
ATOM      3  O   UNL     1       4.904   3.162  19.497  0.00  0.00    +0.000 OA
ATOM      4  C   UNL     1       3.824   3.215  18.552  0.00  0.00    +0.000 C 
ATOM      5  C   UNL     1       4.507   3.685  17.281  0.00  0.00    +0.000 C 
ATOM      6  C   UNL     1       3.076   1.877  18.492  0.00  0.00    +0.000 C 
ATOM      7  N   UNL     1       1.685   2.212  18.955  0.00  0.00    +0.000 NA
ATOM      8  C   UNL     1       1.737   2.536  20.415  0.00  0.00    +0.000 C 
ATOM      9  C   UNL     1       2.390   3.917  20.485  0.00  0.00    +0.000 C 
ATOM     10  C   UNL     1       2.699   4.170  19.012  0.00  0.00    +0.000 C 
ATOM     11  C   UNL     1       1.481   3.552  18.348  0.00  0.00    +0.000 C 
ENDROOT
BRANCH   1  13
ATOM     12  C   UNL     1       4.880   6.588  16.876  0.00  0.00    +0.000 C 
ATOM     13  O   UNL     1       5.884   5.669  17.323  0.00  0.00    +0.000 OA
ENDBRANCH   1  13
TORSDOF 1
ENDMDL
MODEL 4
REMARK VINA RESULT:      -5.8      2.170      3.065
REMARK  Name = 
REMARK  2 active torsions:
REMARK  status: ('A' for Active; 'I' for Inactive)
REMARK    1  A    between atoms: C_1  and  O_2
REMARK    2  A    between atoms: O_2  and  C_3
REMARK                            x       y       z     vdW  Elec       q    Type
REMARK                         _______ _______ _______ _____ _____    ______ ____
ROOT
ATOM      1  C   UNL     1       7.824   6.354  18.423  0.00  0.00    +0.000 C 
ATOM      2  N   UNL     1       7.882   5.325  19.200  0.00  0.00    +0.000 NA
ATOM      3  O   UNL     1       7.048   4.359  18.590  0.00  0.00    +0.000 OA
ATOM      4  C   UNL     1       6.171   5.085  17.715  0.00  0.00    +0.000 C 
ATOM      5  C   UNL     1       7.071   6.173  17.159  0.00  0.00    +0.000 C 
ATOM      6  C   UNL     1       5.499   4.148  16.703  0.00  0.00    +0.000 C 
ATOM      7  N   UNL     1       4.034   4.253  17.022  0.00  0.00    +0.000 NA
ATOM      8  C   UNL     1       3.788   3.599  18.345  0.00  0.00    +0.000 C 
ATOM      9  C   UNL     1       4.364   4.572  19.374  0.00  0.00    +0.000 C 
ATOM     10  C   UNL     1       4.944   5.652  18.464  0.00  0.00    +0.000 C 
ATOM     11  C   UNL     1       3.903   5.694  17.360  0.00  0.00    +0.000 C 
ENDROOT
BRANCH   1  13
ATOM     12  C   UNL     1       7.952   8.617  17.774  0.00  0.00    +0.000 C 
ATOM     13  O   UNL     1       8.340   7.567  18.669  0.00  0.00    +0.000 OA
ENDBRANCH   1  13
TORSDOF 1
ENDMDL
MODEL 5
REMARK VINA RESULT:      -5.7      1.996      4.543
REMARK  Name = 
REMARK  2 active torsions:
REMARK  status: ('A' for Active; 'I' for Inactive)
REMARK    1  A    between atoms: C_1  and  O_2
REMARK    2  A    between atoms: O_2  and  C_3
REMARK                            x       y       z     vdW  Elec       q    Type
REMARK                         _______ _______ _______ _____ _____    ______ ____
ROOT
ATOM      1  C   UNL     1       4.015   4.241  19.472  0.00  0.00    +0.000 C 
ATOM      2  N   UNL     1       4.960   3.366  19.388  0.00  0.00    +0.000 NA
ATOM      3  O   UNL     1       6.044   4.053  18.792  0.00  0.00    +0.000 OA
ATOM      4  C   UNL     1       5.476   5.193  18.128  0.00  0.00    +0.000 C 
ATOM      5  C   UNL     1       4.373   5.624  19.078  0.00  0.00    +0.000 C 
ATOM      6  C   UNL     1       6.554   6.229  17.790  0.00  0.00    +0.000 C 
ATOM      7  N   UNL     1       6.541   6.297  16.288  0.00  0.00    +0.000 NA
ATOM      8  C   UNL     1       7.088   5.013  15.750  0.00  0.00    +0.000 C 
ATOM      9  C   UNL     1       5.979   3.987  15.989  0.00  0.00    +0.000 C 
ATOM     10  C   UNL     1       4.945   4.838  16.721  0.00  0.00    +0.000 C 
ATOM     11  C   UNL     1       5.091   6.163  15.995  0.00  0.00    +0.000 C 
ENDROOT
BRANCH   1  13
ATOM     12  C   UNL     1       1.746   4.211  18.833  0.00  0.00    +0.000 C 
ATOM     13  O   UNL     1       2.747   4.010  19.840  0.00  0.00    +0.000 OA
ENDBRANCH   1  13
TORSDOF 1
ENDMDL
MODEL 6
REMARK VINA RESULT:      -5.7      1.859      2.136
REMARK  Name = 
REMARK  2 active torsions:
REMARK  status: ('A' for Active; 'I' for Inactive)
REMARK    1  A    between atoms: C_1  and  O_2
REMARK    2  A    between atoms: O_2  and  C_3
REMARK                            x       y       z     vdW  Elec       q    Type
REMARK                         _______ _______ _______ _____ _____    ______ ____
ROOT
ATOM      1  C   UNL     1       6.740   4.731  16.823  0.00  0.00    +0.000 C 
ATOM      2  N   UNL     1       7.109   4.720  18.060  0.00  0.00    +0.000 NA
ATOM      3  O   UNL     1       6.098   3.997  18.737  0.00  0.00    +0.000 OA
ATOM      4  C   UNL     1       4.942   4.040  17.887  0.00  0.00    +0.000 C 
ATOM      5  C   UNL     1       5.538   3.928  16.496  0.00  0.00    +0.000 C 
ATOM      6  C   UNL     1       3.916   2.976  18.297  0.00  0.00    +0.000 C 
ATOM      7  N   UNL     1       2.707   3.769  18.708  0.00  0.00    +0.000 NA
ATOM      8  C   UNL     1       3.021   4.484  19.984  0.00  0.00    +0.000 C 
ATOM      9  C   UNL     1       3.966   5.615  19.575  0.00  0.00    +0.000 C 
ATOM     10  C   UNL     1       4.126   5.338  18.083  0.00  0.00    +0.000 C 
ATOM     11  C   UNL     1       2.726   4.878  17.719  0.00  0.00    +0.000 C 
ENDROOT
BRANCH   1  13
ATOM     12  C   UNL     1       7.063   4.950  14.499  0.00  0.00    +0.000 C 
ATOM     13  O   UNL     1       7.313   5.423  15.828  0.00  0.00    +0.000 OA
ENDBRANCH   1  13
TORSDOF 1
ENDMDL
MODEL 7
REMARK VINA RESULT:      -5.7      1.482      2.120
REMARK  Name = 
REMARK  2 active torsions:
REMARK  status: ('A' for Active; 'I' for Inactive)
REMARK    1  A    between atoms: C_1  and  O_2
REMARK    2  A    between atoms: O_2  and  C_3
REMARK                            x       y       z     vdW  Elec       q    Type
REMARK                         _______ _______ _______ _____ _____    ______ ____
ROOT
ATOM      1  C   UNL     1       5.368   4.570  18.427  0.00  0.00    +0.000 C 
ATOM      2  N   UNL     1       4.823   4.139  17.340  0.00  0.00    +0.000 NA
ATOM      3  O   UNL     1       3.430   4.253  17.558  0.00  0.00    +0.000 OA
ATOM      4  C   UNL     1       3.254   4.312  18.982  0.00  0.00    +0.000 C 
ATOM      5  C   UNL     1       4.444   5.138  19.437  0.00  0.00    +0.000 C 
ATOM      6  C   UNL     1       1.859   4.835  19.345  0.00  0.00    +0.000 C 
ATOM      7  N   UNL     1       1.214   3.689  20.074  0.00  0.00    +0.000 NA
ATOM      8  C   UNL     1       0.949   2.592  19.091  0.00  0.00    +0.000 C 
ATOM      9  C   UNL     1       2.324   1.992  18.796  0.00  0.00    +0.000 C 
ATOM     10  C   UNL     1       3.226   2.905  19.622  0.00  0.00    +0.000 C 
ATOM     11  C   UNL     1       2.360   3.142  20.846  0.00  0.00    +0.000 C 
ENDROOT
BRANCH   1  13
ATOM     12  C   UNL     1       7.592   4.637  17.647  0.00  0.00    +0.000 C 
ATOM     13  O   UNL     1       6.671   4.518  18.739  0.00  0.00    +0.000 OA
ENDBRANCH   1  13
TORSDOF 1
ENDMDL
MODEL 8
REMARK VINA RESULT:      -5.7      1.619      1.673
REMARK  Name = 
REMARK  2 active torsions:
REMARK  status: ('A' for Active; 'I' for Inactive)
REMARK    1  A    between atoms: C_1  and  O_2
REMARK    2  A    between atoms: O_2  and  C_3
REMARK                            x       y       z     vdW  Elec       q    Type
REMARK                         _______ _______ _______ _____ _____    ______ ____
ROOT
ATOM      1  C   UNL     1       4.339   5.262  17.742  0.00  0.00    +0.000 C 
ATOM      2  N   UNL     1       4.559   5.528  18.986  0.00  0.00    +0.000 NA
ATOM      3  O   UNL     1       4.170   4.360  19.683  0.00  0.00    +0.000 OA
ATOM      4  C   UNL     1       3.290   3.645  18.803  0.00  0.00    +0.000 C 
ATOM      5  C   UNL     1       3.913   3.875  17.439  0.00  0.00    +0.000 C 
ATOM      6  C   UNL     1       3.117   2.190  19.257  0.00  0.00    +0.000 C 
ATOM      7  N   UNL     1       1.654   2.078  19.583  0.00  0.00    +0.000 NA
ATOM      8  C   UNL     1       1.379   2.880  20.816  0.00  0.00    +0.000 C 
ATOM      9  C   UNL     1       1.448   4.337  20.356  0.00  0.00    +0.000 C 
ATOM     10  C   UNL     1       1.837   4.164  18.891  0.00  0.00    +0.000 C 
ATOM     11  C   UNL     1       1.045   2.922  18.523  0.00  0.00    +0.000 C 
ENDROOT
BRANCH   1  13
ATOM     12  C   UNL     1       5.386   5.813  15.703  0.00  0.00    +0.000 C 
ATOM     13  O   UNL     1       4.422   6.123  16.718  0.00  0.00    +0.000 OA
ENDBRANCH   1  13
TORSDOF 1
ENDMDL
MODEL 9
REMARK VINA RESULT:      -5.7      1.256      1.591
REMARK  Name = 
REMARK  2 active torsions:
REMARK  status: ('A' for Active; 'I' for Inactive)
REMARK    1  A    between atoms: C_1  and  O_2
REMARK    2  A    between atoms: O_2  and  C_3
REMARK                            x       y       z     vdW  Elec       q    Type
REMARK                         _______ _______ _______ _____ _____    ______ ____
ROOT
ATOM      1  C   UNL     1       4.948   4.701  18.771  0.00  0.00    +0.000 C 
ATOM      2  N   UNL     1       5.238   3.573  19.329  0.00  0.00    +0.000 NA
ATOM      3  O   UNL     1       4.018   2.857  19.362  0.00  0.00    +0.000 OA
ATOM      4  C   UNL     1       2.977   3.839  19.236  0.00  0.00    +0.000 C 
ATOM      5  C   UNL     1       3.566   4.834  18.253  0.00  0.00    +0.000 C 
ATOM      6  C   UNL     1       1.644   3.184  18.855  0.00  0.00    +0.000 C 
ATOM      7  N   UNL     1       0.742   3.480  20.021  0.00  0.00    +0.000 NA
ATOM      8  C   UNL     1       1.214   2.688  21.200  0.00  0.00    +0.000 C 
ATOM      9  C   UNL     1       2.494   3.392  21.654  0.00  0.00    +0.000 C 
ATOM     10  C   UNL     1       2.621   4.483  20.595  0.00  0.00    +0.000 C 
ATOM     11  C   UNL     1       1.165   4.858  20.384  0.00  0.00    +0.000 C 
ENDROOT
BRANCH   1  13
ATOM     12  C   UNL     1       7.094   5.599  19.151  0.00  0.00    +0.000 C 
ATOM     13  O   UNL     1       5.759   5.762  18.655  0.00  0.00    +0.000 OA
ENDBRANCH   1  13
TORSDOF 1
ENDMDL
