MODEL 1
REMARK VINA RESULT:      -8.3      0.000      0.000
REMARK  Name = 
REMARK  10 active torsions:
REMARK  status: ('A' for Active; 'I' for Inactive)
REMARK    1  A    between atoms: C_1  and  O_2
REMARK    2  A    between atoms: O_2  and  C_3
REMARK    3  A    between atoms: C_5  and  C_6
REMARK    4  A    between atoms: C_6  and  N_7
REMARK    5  A    between atoms: C_9  and  C_10
REMARK    6  A    between atoms: C_10  and  C_12
REMARK    7  A    between atoms: C_17  and  N_18
REMARK    8  A    between atoms: N_18  and  C_19
REMARK    9  A    between atoms: C_29  and  O_30
REMARK   10  A    between atoms: O_30  and  C_31
REMARK                            x       y       z     vdW  Elec       q    Type
REMARK                         _______ _______ _______ _____ _____    ______ ____
ROOT
ATOM      1  C   UNL     1       2.223   4.754  18.318  0.00  0.00    +0.000 C 
ATOM      2  O   UNL     1       1.609   4.287  17.358  0.00  0.00    +0.000 OA
ENDROOT
BRANCH   1   3
ATOM      3  C   UNL     1       2.882   3.829  19.282  0.00  0.00    +0.000 A 
ATOM      4  C   UNL     1       2.201   3.425  20.444  0.00  0.00    +0.000 A 
ATOM      5  C   UNL     1       2.790   2.530  21.324  0.00  0.00    +0.000 A 
ATOM      6  C   UNL     1       4.044   2.052  21.009  0.00  0.00    +0.000 A 
ATOM      7  N   UNL     1       4.727   2.421  19.904  0.00  0.00    +0.000 NA
ATOM      8  C   UNL     1       4.155   3.293  19.033  0.00  0.00    +0.000 A 
BRANCH   8   9
ATOM      9  N   UNL     1       4.900   3.679  17.900  0.00  0.00    +0.000 N 
ATOM     10  H   UNL     1       5.064   2.904  17.262  0.00  0.00    +0.000 HD
BRANCH   9  11
ATOM     11  C   UNL     1       5.741   4.796  17.749  0.00  0.00    +0.000 A 
ATOM     12  C   UNL     1       5.504   5.730  16.730  0.00  0.00    +0.000 A 
ATOM     13  C   UNL     1       6.291   6.883  16.619  0.00  0.00    +0.000 A 
ATOM     14  C   UNL     1       7.320   7.102  17.524  0.00  0.00    +0.000 A 
ATOM     15  F   UNL     1       8.047   8.227  17.443  0.00  0.00    +0.000 F 
ATOM     16  C   UNL     1       7.602   6.174  18.516  0.00  0.00    +0.000 A 
ATOM     17  C   UNL     1       6.824   5.018  18.614  0.00  0.00    +0.000 A 
ENDBRANCH   9  11
ENDBRANCH   8   9
ENDBRANCH   1   3
BRANCH   1  20
ATOM     18  N   UNL     1       2.196   8.349  18.478  0.00  0.00    +0.000 N 
ATOM     19  C   UNL     1       2.320   7.230  17.706  0.00  0.00    +0.000 A 
ATOM     20  C   UNL     1       2.250   6.184  18.608  0.00  0.00    +0.000 A 
ATOM     21  N   UNL     1       2.138   6.708  19.875  0.00  0.00    +0.000 NA
ATOM     22  N   UNL     1       2.074   8.027  19.780  0.00  0.00    +0.000 NA
BRANCH  18  23
ATOM     23  C   UNL     1       1.992   9.722  18.047  0.00  0.00    +0.000 C 
BRANCH  23  26
ATOM     24  C   UNL     1      -0.807  11.862  19.510  0.00  0.00    +0.000 A 
ATOM     25  C   UNL     1       0.458  11.325  19.253  0.00  0.00    +0.000 A 
ATOM     26  C   UNL     1       0.618  10.245  18.374  0.00  0.00    +0.000 A 
ATOM     27  C   UNL     1      -0.523   9.715  17.755  0.00  0.00    +0.000 A 
ATOM     28  C   UNL     1      -1.791  10.249  17.998  0.00  0.00    +0.000 A 
ATOM     29  C   UNL     1      -1.931  11.320  18.882  0.00  0.00    +0.000 A 
BRANCH  24  31
ATOM     30  C   UNL     1      -0.187  14.121  19.932  0.00  0.00    +0.000 C 
ATOM     31  O   UNL     1      -0.806  12.920  20.379  0.00  0.00    +0.000 OA
ENDBRANCH  24  31
BRANCH  28  32
ATOM     32  O   UNL     1      -2.804   9.645  17.303  0.00  0.00    +0.000 OA
ATOM     33  C   UNL     1      -2.890   9.925  15.911  0.00  0.00    +0.000 C 
ENDBRANCH  28  32
ENDBRANCH  23  26
ENDBRANCH  18  23
ENDBRANCH   1  20
TORSDOF 8
ENDMDL
MODEL 2
REMARK VINA RESULT:      -8.2      0.771      2.429
REMARK  Name = 
REMARK  10 active torsions:
REMARK  status: ('A' for Active; 'I' for Inactive)
REMARK    1  A    between atoms: C_1  and  O_2
REMARK    2  A    between atoms: O_2  and  C_3
REMARK    3  A    between atoms: C_5  and  C_6
REMARK    4  A    between atoms: C_6  and  N_7
REMARK    5  A    between atoms: C_9  and  C_10
REMARK    6  A    between atoms: C_10  and  C_12
REMARK    7  A    between atoms: C_17  and  N_18
REMARK    8  A    between atoms: N_18  and  C_19
REMARK    9  A    between atoms: C_29  and  O_30
REMARK   10  A    between atoms: O_30  and  C_31
REMARK                            x       y       z     vdW  Elec       q    Type
REMARK                         _______ _______ _______ _____ _____    ______ ____
ROOT
ATOM      1  C   UNL     1       2.174   4.642  18.419  0.00  0.00    +0.000 C 
ATOM      2  O   UNL     1       1.526   4.160  17.490  0.00  0.00    +0.000 OA
ENDROOT
BRANCH   1   3
ATOM      3  C   UNL     1       2.829   3.733  19.401  0.00  0.00    +0.000 A 
ATOM      4  C   UNL     1       2.136   3.333  20.557  0.00  0.00    +0.000 A 
ATOM      5  C   UNL     1       2.721   2.452  21.453  0.00  0.00    +0.000 A 
ATOM      6  C   UNL     1       3.985   1.985  21.161  0.00  0.00    +0.000 A 
ATOM      7  N   UNL     1       4.680   2.351  20.064  0.00  0.00    +0.000 NA
ATOM      8  C   UNL     1       4.112   3.210  19.176  0.00  0.00    +0.000 A 
BRANCH   8   9
ATOM      9  N   UNL     1       4.870   3.593  18.052  0.00  0.00    +0.000 N 
ATOM     10  H   UNL     1       5.087   2.808  17.444  0.00  0.00    +0.000 HD
BRANCH   9  11
ATOM     11  C   UNL     1       5.662   4.744  17.885  0.00  0.00    +0.000 A 
ATOM     12  C   UNL     1       6.609   5.100  18.857  0.00  0.00    +0.000 A 
ATOM     13  C   UNL     1       7.452   6.201  18.664  0.00  0.00    +0.000 A 
ATOM     14  C   UNL     1       7.350   6.950  17.501  0.00  0.00    +0.000 A 
ATOM     15  F   UNL     1       8.186   7.979  17.297  0.00  0.00    +0.000 F 
ATOM     16  C   UNL     1       6.394   6.644  16.542  0.00  0.00    +0.000 A 
ATOM     17  C   UNL     1       5.544   5.554  16.745  0.00  0.00    +0.000 A 
ENDBRANCH   9  11
ENDBRANCH   8   9
ENDBRANCH   1   3
BRANCH   1  20
ATOM     18  N   UNL     1       2.242   8.240  18.452  0.00  0.00    +0.000 N 
ATOM     19  C   UNL     1       2.305   7.092  17.715  0.00  0.00    +0.000 A 
ATOM     20  C   UNL     1       2.249   6.080  18.656  0.00  0.00    +0.000 A 
ATOM     21  N   UNL     1       2.205   6.651  19.907  0.00  0.00    +0.000 NA
ATOM     22  N   UNL     1       2.169   7.967  19.768  0.00  0.00    +0.000 NA
BRANCH  18  23
ATOM     23  C   UNL     1       2.054   9.602  17.981  0.00  0.00    +0.000 C 
BRANCH  23  26
ATOM     24  C   UNL     1      -1.520  10.690  18.756  0.00  0.00    +0.000 A 
ATOM     25  C   UNL     1      -0.416  10.109  18.125  0.00  0.00    +0.000 A 
ATOM     26  C   UNL     1       0.880  10.292  18.625  0.00  0.00    +0.000 A 
ATOM     27  C   UNL     1       1.045  11.073  19.778  0.00  0.00    +0.000 A 
ATOM     28  C   UNL     1      -0.052  11.652  20.422  0.00  0.00    +0.000 A 
ATOM     29  C   UNL     1      -1.335  11.463  19.905  0.00  0.00    +0.000 A 
BRANCH  24  31
ATOM     30  C   UNL     1      -2.679   9.861  16.849  0.00  0.00    +0.000 C 
ATOM     31  O   UNL     1      -2.722  10.413  18.160  0.00  0.00    +0.000 OA
ENDBRANCH  24  31
BRANCH  28  32
ATOM     32  O   UNL     1       0.262  12.363  21.549  0.00  0.00    +0.000 OA
ATOM     33  C   UNL     1      -0.776  12.558  22.502  0.00  0.00    +0.000 C 
ENDBRANCH  28  32
ENDBRANCH  23  26
ENDBRANCH  18  23
ENDBRANCH   1  20
TORSDOF 8
ENDMDL
MODEL 3
REMARK VINA RESULT:      -8.1      1.526      1.754
REMARK  Name = 
REMARK  10 active torsions:
REMARK  status: ('A' for Active; 'I' for Inactive)
REMARK    1  A    between atoms: C_1  and  O_2
REMARK    2  A    between atoms: O_2  and  C_3
REMARK    3  A    between atoms: C_5  and  C_6
REMARK    4  A    between atoms: C_6  and  N_7
REMARK    5  A    between atoms: C_9  and  C_10
REMARK    6  A    between atoms: C_10  and  C_12
REMARK    7  A    between atoms: C_17  and  N_18
REMARK    8  A    between atoms: N_18  and  C_19
REMARK    9  A    between atoms: C_29  and  O_30
REMARK   10  A    between atoms: O_30  and  C_31
REMARK                            x       y       z     vdW  Elec       q    Type
REMARK                         _______ _______ _______ _____ _____    ______ ____
ROOT
ATOM      1  C   UNL     1       2.430   4.962  20.603  0.00  0.00    +0.000 C 
ATOM      2  O   UNL     1       2.587   4.662  21.787  0.00  0.00    +0.000 OA
ENDROOT
BRANCH   1   3
ATOM      3  C   UNL     1       2.560   3.907  19.560  0.00  0.00    +0.000 A 
ATOM      4  C   UNL     1       1.411   3.275  19.054  0.00  0.00    +0.000 A 
ATOM      5  C   UNL     1       1.519   2.323  18.052  0.00  0.00    +0.000 A 
ATOM      6  C   UNL     1       2.780   2.038  17.572  0.00  0.00    +0.000 A 
ATOM      7  N   UNL     1       3.904   2.623  18.037  0.00  0.00    +0.000 NA
ATOM      8  C   UNL     1       3.807   3.561  19.015  0.00  0.00    +0.000 A 
BRANCH   8   9
ATOM      9  N   UNL     1       4.999   4.138  19.498  0.00  0.00    +0.000 N 
ATOM     10  H   UNL     1       5.074   4.084  20.510  0.00  0.00    +0.000 HD
BRANCH   9  11
ATOM     11  C   UNL     1       5.831   5.078  18.864  0.00  0.00    +0.000 A 
ATOM     12  C   UNL     1       5.417   5.709  17.681  0.00  0.00    +0.000 A 
ATOM     13  C   UNL     1       6.207   6.699  17.085  0.00  0.00    +0.000 A 
ATOM     14  C   UNL     1       7.414   7.060  17.667  0.00  0.00    +0.000 A 
ATOM     15  F   UNL     1       8.150   8.038  17.119  0.00  0.00    +0.000 F 
ATOM     16  C   UNL     1       7.866   6.423  18.814  0.00  0.00    +0.000 A 
ATOM     17  C   UNL     1       7.082   5.424  19.398  0.00  0.00    +0.000 A 
ENDBRANCH   9  11
ENDBRANCH   8   9
ENDBRANCH   1   3
BRANCH   1  20
ATOM     18  N   UNL     1       2.008   8.160  19.009  0.00  0.00    +0.000 N 
ATOM     19  C   UNL     1       2.508   6.892  18.935  0.00  0.00    +0.000 A 
ATOM     20  C   UNL     1       2.216   6.338  20.168  0.00  0.00    +0.000 A 
ATOM     21  N   UNL     1       1.603   7.296  20.942  0.00  0.00    +0.000 NA
ATOM     22  N   UNL     1       1.453   8.393  20.214  0.00  0.00    +0.000 NA
BRANCH  18  23
ATOM     23  C   UNL     1       1.845   9.128  17.937  0.00  0.00    +0.000 C 
BRANCH  23  26
ATOM     24  C   UNL     1       0.531  12.564  18.950  0.00  0.00    +0.000 A 
ATOM     25  C   UNL     1       1.397  11.498  18.685  0.00  0.00    +0.000 A 
ATOM     26  C   UNL     1       0.901  10.248  18.291  0.00  0.00    +0.000 A 
ATOM     27  C   UNL     1      -0.486  10.090  18.167  0.00  0.00    +0.000 A 
ATOM     28  C   UNL     1      -1.360  11.151  18.421  0.00  0.00    +0.000 A 
ATOM     29  C   UNL     1      -0.848  12.387  18.819  0.00  0.00    +0.000 A 
BRANCH  24  31
ATOM     30  C   UNL     1       2.580  13.687  19.408  0.00  0.00    +0.000 C 
ATOM     31  O   UNL     1       1.160  13.725  19.313  0.00  0.00    +0.000 OA
ENDBRANCH  24  31
BRANCH  28  32
ATOM     32  O   UNL     1      -2.683  10.854  18.232  0.00  0.00    +0.000 OA
ATOM     33  C   UNL     1      -2.994   9.886  17.237  0.00  0.00    +0.000 C 
ENDBRANCH  28  32
ENDBRANCH  23  26
ENDBRANCH  18  23
ENDBRANCH   1  20
TORSDOF 8
ENDMDL
MODEL 4
REMARK VINA RESULT:      -8.1      3.790      9.539
REMARK  Name = 
REMARK  10 active torsions:
REMARK  status: ('A' for Active; 'I' for Inactive)
REMARK    1  A    between atoms: C_1  and  O_2
REMARK    2  A    between atoms: O_2  and  C_3
REMARK    3  A    between atoms: C_5  and  C_6
REMARK    4  A    between atoms: C_6  and  N_7
REMARK    5  A    between atoms: C_9  and  C_10
REMARK    6  A    between atoms: C_10  and  C_12
REMARK    7  A    between atoms: C_17  and  N_18
REMARK    8  A    between atoms: N_18  and  C_19
REMARK    9  A    between atoms: C_29  and  O_30
REMARK   10  A    between atoms: O_30  and  C_31
REMARK                            x       y       z     vdW  Elec       q    Type
REMARK                         _______ _______ _______ _____ _____    ______ ____
ROOT
ATOM      1  C   UNL     1      -0.037  11.242  18.594  0.00  0.00    +0.000 C 
ATOM      2  O   UNL     1       0.286  12.359  19.003  0.00  0.00    +0.000 OA
ENDROOT
BRANCH   1   3
ATOM      3  C   UNL     1      -1.427  11.016  18.110  0.00  0.00    +0.000 A 
ATOM      4  C   UNL     1      -1.674  10.064  17.106  0.00  0.00    +0.000 A 
ATOM      5  C   UNL     1      -2.971   9.816  16.681  0.00  0.00    +0.000 A 
ATOM      6  C   UNL     1      -3.989  10.523  17.283  0.00  0.00    +0.000 A 
ATOM      7  N   UNL     1      -3.788  11.446  18.247  0.00  0.00    +0.000 NA
ATOM      8  C   UNL     1      -2.521  11.692  18.674  0.00  0.00    +0.000 A 
BRANCH   8   9
ATOM      9  N   UNL     1      -2.337  12.678  19.664  0.00  0.00    +0.000 N 
ATOM     10  H   UNL     1      -1.581  13.319  19.438  0.00  0.00    +0.000 HD
BRANCH   9  11
ATOM     11  C   UNL     1      -2.741  12.646  21.011  0.00  0.00    +0.000 A 
ATOM     12  C   UNL     1      -4.021  13.085  21.380  0.00  0.00    +0.000 A 
ATOM     13  C   UNL     1      -4.457  12.987  22.707  0.00  0.00    +0.000 A 
ATOM     14  C   UNL     1      -3.613  12.453  23.670  0.00  0.00    +0.000 A 
ATOM     15  F   UNL     1      -4.046  12.320  24.933  0.00  0.00    +0.000 F 
ATOM     16  C   UNL     1      -2.327  12.048  23.340  0.00  0.00    +0.000 A 
ATOM     17  C   UNL     1      -1.890  12.162  22.018  0.00  0.00    +0.000 A 
ENDBRANCH   9  11
ENDBRANCH   8   9
ENDBRANCH   1   3
BRANCH   1  20
ATOM     18  N   UNL     1       1.915   8.285  19.221  0.00  0.00    +0.000 N 
ATOM     19  C   UNL     1       1.076   9.240  19.719  0.00  0.00    +0.000 A 
ATOM     20  C   UNL     1       0.866  10.097  18.655  0.00  0.00    +0.000 A 
ATOM     21  N   UNL     1       1.614   9.658  17.587  0.00  0.00    +0.000 NA
ATOM     22  N   UNL     1       2.224   8.535  17.935  0.00  0.00    +0.000 NA
BRANCH  18  23
ATOM     23  C   UNL     1       2.305   7.024  19.829  0.00  0.00    +0.000 C 
BRANCH  23  26
ATOM     24  C   UNL     1       4.548   5.236  17.313  0.00  0.00    +0.000 A 
ATOM     25  C   UNL     1       4.043   6.198  18.193  0.00  0.00    +0.000 A 
ATOM     26  C   UNL     1       2.807   6.016  18.828  0.00  0.00    +0.000 A 
ATOM     27  C   UNL     1       2.087   4.843  18.562  0.00  0.00    +0.000 A 
ATOM     28  C   UNL     1       2.587   3.870  17.691  0.00  0.00    +0.000 A 
ATOM     29  C   UNL     1       3.817   4.073  17.063  0.00  0.00    +0.000 A 
BRANCH  24  31
ATOM     30  C   UNL     1       6.666   4.465  16.547  0.00  0.00    +0.000 C 
ATOM     31  O   UNL     1       5.770   5.546  16.778  0.00  0.00    +0.000 OA
ENDBRANCH  24  31
BRANCH  28  32
ATOM     32  O   UNL     1       1.787   2.769  17.551  0.00  0.00    +0.000 OA
ATOM     33  C   UNL     1       0.978   2.409  18.665  0.00  0.00    +0.000 C 
ENDBRANCH  28  32
ENDBRANCH  23  26
ENDBRANCH  18  23
ENDBRANCH   1  20
TORSDOF 8
ENDMDL
MODEL 5
REMARK VINA RESULT:      -8.1      4.474      8.533
REMARK  Name = 
REMARK  10 active torsions:
REMARK  status: ('A' for Active; 'I' for Inactive)
REMARK    1  A    between atoms: C_1  and  O_2
REMARK    2  A    between atoms: O_2  and  C_3
REMARK    3  A    between atoms: C_5  and  C_6
REMARK    4  A    between atoms: C_6  and  N_7
REMARK    5  A    between atoms: C_9  and  C_10
REMARK    6  A    between atoms: C_10  and  C_12
REMARK    7  A    between atoms: C_17  and  N_18
REMARK    8  A    between atoms: N_18  and  C_19
REMARK    9  A    between atoms: C_29  and  O_30
REMARK   10  A    between atoms: O_30  and  C_31
REMARK                            x       y       z     vdW  Elec       q    Type
REMARK                         _______ _______ _______ _____ _____    ______ ____
ROOT
ATOM      1  C   UNL     1       5.209   4.698  18.101  0.00  0.00    +0.000 C 
ATOM      2  O   UNL     1       5.915   4.911  19.088  0.00  0.00    +0.000 OA
ENDROOT
BRANCH   1   3
ATOM      3  C   UNL     1       3.903   4.003  18.274  0.00  0.00    +0.000 A 
ATOM      4  C   UNL     1       3.673   2.773  17.633  0.00  0.00    +0.000 A 
ATOM      5  C   UNL     1       2.477   2.098  17.824  0.00  0.00    +0.000 A 
ATOM      6  C   UNL     1       1.546   2.669  18.665  0.00  0.00    +0.000 A 
ATOM      7  N   UNL     1       1.732   3.849  19.293  0.00  0.00    +0.000 NA
ATOM      8  C   UNL     1       2.904   4.515  19.116  0.00  0.00    +0.000 A 
BRANCH   8   9
ATOM      9  N   UNL     1       3.062   5.756  19.765  0.00  0.00    +0.000 N 
ATOM     10  H   UNL     1       3.454   5.659  20.699  0.00  0.00    +0.000 HD
BRANCH   9  11
ATOM     11  C   UNL     1       2.413   6.973  19.490  0.00  0.00    +0.000 A 
ATOM     12  C   UNL     1       1.751   7.671  20.510  0.00  0.00    +0.000 A 
ATOM     13  C   UNL     1       1.166   8.919  20.260  0.00  0.00    +0.000 A 
ATOM     14  C   UNL     1       1.240   9.471  18.989  0.00  0.00    +0.000 A 
ATOM     15  F   UNL     1       0.717  10.685  18.761  0.00  0.00    +0.000 F 
ATOM     16  C   UNL     1       1.855   8.783  17.952  0.00  0.00    +0.000 A 
ATOM     17  C   UNL     1       2.423   7.531  18.202  0.00  0.00    +0.000 A 
ENDBRANCH   9  11
ENDBRANCH   8   9
ENDBRANCH   1   3
BRANCH   1  20
ATOM     18  N   UNL     1       6.567   4.991  14.781  0.00  0.00    +0.000 N 
ATOM     19  C   UNL     1       6.643   4.402  16.011  0.00  0.00    +0.000 A 
ATOM     20  C   UNL     1       5.646   5.016  16.745  0.00  0.00    +0.000 A 
ATOM     21  N   UNL     1       5.048   5.971  15.956  0.00  0.00    +0.000 NA
ATOM     22  N   UNL     1       5.597   5.924  14.751  0.00  0.00    +0.000 NA
BRANCH  18  23
ATOM     23  C   UNL     1       7.234   4.597  13.551  0.00  0.00    +0.000 C 
BRANCH  23  26
ATOM     24  C   UNL     1       4.362   3.351  11.370  0.00  0.00    +0.000 A 
ATOM     25  C   UNL     1       5.128   4.139  12.235  0.00  0.00    +0.000 A 
ATOM     26  C   UNL     1       6.386   3.709  12.679  0.00  0.00    +0.000 A 
ATOM     27  C   UNL     1       6.861   2.467  12.234  0.00  0.00    +0.000 A 
ATOM     28  C   UNL     1       6.108   1.675  11.362  0.00  0.00    +0.000 A 
ATOM     29  C   UNL     1       4.854   2.118  10.936  0.00  0.00    +0.000 A 
BRANCH  24  31
ATOM     30  C   UNL     1       2.863   3.956   9.623  0.00  0.00    +0.000 C 
ATOM     31  O   UNL     1       3.162   3.906  11.013  0.00  0.00    +0.000 OA
ENDBRANCH  24  31
BRANCH  28  32
ATOM     32  O   UNL     1       6.713   0.504  10.994  0.00  0.00    +0.000 OA
ATOM     33  C   UNL     1       6.037  -0.705  11.317  0.00  0.00    +0.000 C 
ENDBRANCH  28  32
ENDBRANCH  23  26
ENDBRANCH  18  23
ENDBRANCH   1  20
TORSDOF 8
ENDMDL
MODEL 6
REMARK VINA RESULT:      -8.0      4.528      8.652
REMARK  Name = 
REMARK  10 active torsions:
REMARK  status: ('A' for Active; 'I' for Inactive)
REMARK    1  A    between atoms: C_1  and  O_2
REMARK    2  A    between atoms: O_2  and  C_3
REMARK    3  A    between atoms: C_5  and  C_6
REMARK    4  A    between atoms: C_6  and  N_7
REMARK    5  A    between atoms: C_9  and  C_10
REMARK    6  A    between atoms: C_10  and  C_12
REMARK    7  A    between atoms: C_17  and  N_18
REMARK    8  A    between atoms: N_18  and  C_19
REMARK    9  A    between atoms: C_29  and  O_30
REMARK   10  A    between atoms: O_30  and  C_31
REMARK                            x       y       z     vdW  Elec       q    Type
REMARK                         _______ _______ _______ _____ _____    ______ ____
ROOT
ATOM      1  C   UNL     1       5.317   4.529  18.091  0.00  0.00    +0.000 C 
ATOM      2  O   UNL     1       5.795   4.912  19.159  0.00  0.00    +0.000 OA
ENDROOT
BRANCH   1   3
ATOM      3  C   UNL     1       3.922   4.008  18.060  0.00  0.00    +0.000 A 
ATOM      4  C   UNL     1       3.684   2.630  18.207  0.00  0.00    +0.000 A 
ATOM      5  C   UNL     1       2.386   2.143  18.224  0.00  0.00    +0.000 A 
ATOM      6  C   UNL     1       1.357   3.053  18.105  0.00  0.00    +0.000 A 
ATOM      7  N   UNL     1       1.550   4.381  17.959  0.00  0.00    +0.000 NA
ATOM      8  C   UNL     1       2.819   4.869  17.947  0.00  0.00    +0.000 A 
BRANCH   8   9
ATOM      9  N   UNL     1       2.991   6.256  17.770  0.00  0.00    +0.000 N 
ATOM     10  H   UNL     1       3.853   6.481  17.279  0.00  0.00    +0.000 HD
BRANCH   9  11
ATOM     11  C   UNL     1       2.396   7.308  18.491  0.00  0.00    +0.000 A 
ATOM     12  C   UNL     1       2.001   8.483  17.835  0.00  0.00    +0.000 A 
ATOM     13  C   UNL     1       1.341   9.503  18.531  0.00  0.00    +0.000 A 
ATOM     14  C   UNL     1       1.078   9.352  19.885  0.00  0.00    +0.000 A 
ATOM     15  F   UNL     1       0.408  10.311  20.543  0.00  0.00    +0.000 F 
ATOM     16  C   UNL     1       1.494   8.217  20.567  0.00  0.00    +0.000 A 
ATOM     17  C   UNL     1       2.166   7.208  19.872  0.00  0.00    +0.000 A 
ENDBRANCH   9  11
ENDBRANCH   8   9
ENDBRANCH   1   3
BRANCH   1  20
ATOM     18  N   UNL     1       6.779   4.586  14.803  0.00  0.00    +0.000 N 
ATOM     19  C   UNL     1       5.643   4.585  15.560  0.00  0.00    +0.000 A 
ATOM     20  C   UNL     1       6.100   4.473  16.860  0.00  0.00    +0.000 A 
ATOM     21  N   UNL     1       7.471   4.364  16.833  0.00  0.00    +0.000 NA
ATOM     22  N   UNL     1       7.876   4.466  15.576  0.00  0.00    +0.000 NA
BRANCH  18  23
ATOM     23  C   UNL     1       6.919   4.887  13.388  0.00  0.00    +0.000 C 
BRANCH  23  26
ATOM     24  C   UNL     1       6.139   1.708  11.429  0.00  0.00    +0.000 A 
ATOM     25  C   UNL     1       6.812   2.664  12.195  0.00  0.00    +0.000 A 
ATOM     26  C   UNL     1       6.214   3.894  12.502  0.00  0.00    +0.000 A 
ATOM     27  C   UNL     1       4.921   4.144  12.022  0.00  0.00    +0.000 A 
ATOM     28  C   UNL     1       4.235   3.192  11.262  0.00  0.00    +0.000 A 
ATOM     29  C   UNL     1       4.850   1.975  10.962  0.00  0.00    +0.000 A 
BRANCH  24  31
ATOM     30  C   UNL     1       6.126  -0.671  11.347  0.00  0.00    +0.000 C 
ATOM     31  O   UNL     1       6.843   0.552  11.222  0.00  0.00    +0.000 OA
ENDBRANCH  24  31
BRANCH  28  32
ATOM     32  O   UNL     1       2.973   3.567  10.888  0.00  0.00    +0.000 OA
ATOM     33  C   UNL     1       2.804   4.040   9.558  0.00  0.00    +0.000 C 
ENDBRANCH  28  32
ENDBRANCH  23  26
ENDBRANCH  18  23
ENDBRANCH   1  20
TORSDOF 8
ENDMDL
MODEL 7
REMARK VINA RESULT:      -7.9      2.051      2.328
REMARK  Name = 
REMARK  10 active torsions:
REMARK  status: ('A' for Active; 'I' for Inactive)
REMARK    1  A    between atoms: C_1  and  O_2
REMARK    2  A    between atoms: O_2  and  C_3
REMARK    3  A    between atoms: C_5  and  C_6
REMARK    4  A    between atoms: C_6  and  N_7
REMARK    5  A    between atoms: C_9  and  C_10
REMARK    6  A    between atoms: C_10  and  C_12
REMARK    7  A    between atoms: C_17  and  N_18
REMARK    8  A    between atoms: N_18  and  C_19
REMARK    9  A    between atoms: C_29  and  O_30
REMARK   10  A    between atoms: O_30  and  C_31
REMARK                            x       y       z     vdW  Elec       q    Type
REMARK                         _______ _______ _______ _____ _____    ______ ____
ROOT
ATOM      1  C   UNL     1       3.520   5.723  19.387  0.00  0.00    +0.000 C 
ATOM      2  O   UNL     1       4.731   5.801  19.599  0.00  0.00    +0.000 OA
ENDROOT
BRANCH   1   3
ATOM      3  C   UNL     1       2.931   4.412  18.995  0.00  0.00    +0.000 A 
ATOM      4  C   UNL     1       1.573   4.150  19.247  0.00  0.00    +0.000 A 
ATOM      5  C   UNL     1       1.007   2.949  18.846  0.00  0.00    +0.000 A 
ATOM      6  C   UNL     1       1.817   2.045  18.192  0.00  0.00    +0.000 A 
ATOM      7  N   UNL     1       3.124   2.263  17.937  0.00  0.00    +0.000 NA
ATOM      8  C   UNL     1       3.687   3.439  18.321  0.00  0.00    +0.000 A 
BRANCH   8   9
ATOM      9  N   UNL     1       5.059   3.630  18.064  0.00  0.00    +0.000 N 
ATOM     10  H   UNL     1       5.591   3.809  18.911  0.00  0.00    +0.000 HD
BRANCH   9  11
ATOM     11  C   UNL     1       5.676   3.998  16.855  0.00  0.00    +0.000 A 
ATOM     12  C   UNL     1       4.980   3.892  15.641  0.00  0.00    +0.000 A 
ATOM     13  C   UNL     1       5.561   4.326  14.443  0.00  0.00    +0.000 A 
ATOM     14  C   UNL     1       6.840   4.864  14.455  0.00  0.00    +0.000 A 
ATOM     15  F   UNL     1       7.380   5.318  13.314  0.00  0.00    +0.000 F 
ATOM     16  C   UNL     1       7.566   4.943  15.635  0.00  0.00    +0.000 A 
ATOM     17  C   UNL     1       6.989   4.494  16.826  0.00  0.00    +0.000 A 
ENDBRANCH   9  11
ENDBRANCH   8   9
ENDBRANCH   1   3
BRANCH   1  20
ATOM     18  N   UNL     1       1.360   8.534  20.004  0.00  0.00    +0.000 N 
ATOM     19  C   UNL     1       1.893   7.366  20.468  0.00  0.00    +0.000 A 
ATOM     20  C   UNL     1       2.646   6.891  19.409  0.00  0.00    +0.000 A 
ATOM     21  N   UNL     1       2.499   7.755  18.348  0.00  0.00    +0.000 NA
ATOM     22  N   UNL     1       1.739   8.769  18.733  0.00  0.00    +0.000 NA
BRANCH  18  23
ATOM     23  C   UNL     1       0.655   9.562  20.752  0.00  0.00    +0.000 C 
BRANCH  23  26
ATOM     24  C   UNL     1       0.033  12.826  18.877  0.00  0.00    +0.000 A 
ATOM     25  C   UNL     1       0.580  11.877  19.746  0.00  0.00    +0.000 A 
ATOM     26  C   UNL     1       0.015  10.600  19.869  0.00  0.00    +0.000 A 
ATOM     27  C   UNL     1      -1.116  10.295  19.098  0.00  0.00    +0.000 A 
ATOM     28  C   UNL     1      -1.667  11.233  18.220  0.00  0.00    +0.000 A 
ATOM     29  C   UNL     1      -1.093  12.502  18.116  0.00  0.00    +0.000 A 
BRANCH  24  31
ATOM     30  C   UNL     1      -0.095  15.201  18.775  0.00  0.00    +0.000 C 
ATOM     31  O   UNL     1       0.699  14.022  18.855  0.00  0.00    +0.000 OA
ENDBRANCH  24  31
BRANCH  28  32
ATOM     32  O   UNL     1      -2.750  10.783  17.515  0.00  0.00    +0.000 OA
ATOM     33  C   UNL     1      -2.490  10.029  16.338  0.00  0.00    +0.000 C 
ENDBRANCH  28  32
ENDBRANCH  23  26
ENDBRANCH  18  23
ENDBRANCH   1  20
TORSDOF 8
ENDMDL
MODEL 8
REMARK VINA RESULT:      -7.9      1.844      2.205
REMARK  Name = 
REMARK  10 active torsions:
REMARK  status: ('A' for Active; 'I' for Inactive)
REMARK    1  A    between atoms: C_1  and  O_2
REMARK    2  A    between atoms: O_2  and  C_3
REMARK    3  A    between atoms: C_5  and  C_6
REMARK    4  A    between atoms: C_6  and  N_7
REMARK    5  A    between atoms: C_9  and  C_10
REMARK    6  A    between atoms: C_10  and  C_12
REMARK    7  A    between atoms: C_17  and  N_18
REMARK    8  A    between atoms: N_18  and  C_19
REMARK    9  A    between atoms: C_29  and  O_30
REMARK   10  A    between atoms: O_30  and  C_31
REMARK                            x       y       z     vdW  Elec       q    Type
REMARK                         _______ _______ _______ _____ _____    ______ ____
ROOT
ATOM      1  C   UNL     1       3.593   5.475  19.530  0.00  0.00    +0.000 C 
ATOM      2  O   UNL     1       4.747   5.427  19.959  0.00  0.00    +0.000 OA
ENDROOT
BRANCH   1   3
ATOM      3  C   UNL     1       2.924   4.217  19.095  0.00  0.00    +0.000 A 
ATOM      4  C   UNL     1       1.565   4.008  19.389  0.00  0.00    +0.000 A 
ATOM      5  C   UNL     1       0.923   2.860  18.949  0.00  0.00    +0.000 A 
ATOM      6  C   UNL     1       1.660   1.955  18.215  0.00  0.00    +0.000 A 
ATOM      7  N   UNL     1       2.965   2.123  17.918  0.00  0.00    +0.000 NA
ATOM      8  C   UNL     1       3.602   3.248  18.339  0.00  0.00    +0.000 A 
BRANCH   8   9
ATOM      9  N   UNL     1       4.971   3.385  18.035  0.00  0.00    +0.000 N 
ATOM     10  H   UNL     1       5.557   3.370  18.866  0.00  0.00    +0.000 HD
BRANCH   9  11
ATOM     11  C   UNL     1       5.556   3.923  16.875  0.00  0.00    +0.000 A 
ATOM     12  C   UNL     1       6.857   4.446  16.913  0.00  0.00    +0.000 A 
ATOM     13  C   UNL     1       7.474   4.915  15.747  0.00  0.00    +0.000 A 
ATOM     14  C   UNL     1       6.792   4.864  14.540  0.00  0.00    +0.000 A 
ATOM     15  F   UNL     1       7.399   5.274  13.415  0.00  0.00    +0.000 F 
ATOM     16  C   UNL     1       5.489   4.388  14.481  0.00  0.00    +0.000 A 
ATOM     17  C   UNL     1       4.871   3.936  15.649  0.00  0.00    +0.000 A 
ENDBRANCH   9  11
ENDBRANCH   8   9
ENDBRANCH   1   3
BRANCH   1  20
ATOM     18  N   UNL     1       1.958   8.513  18.508  0.00  0.00    +0.000 N 
ATOM     19  C   UNL     1       2.850   7.525  18.205  0.00  0.00    +0.000 A 
ATOM     20  C   UNL     1       2.883   6.735  19.339  0.00  0.00    +0.000 A 
ATOM     21  N   UNL     1       2.057   7.297  20.285  0.00  0.00    +0.000 NA
ATOM     22  N   UNL     1       1.475   8.362  19.756  0.00  0.00    +0.000 NA
BRANCH  18  23
ATOM     23  C   UNL     1       1.374   9.504  17.619  0.00  0.00    +0.000 C 
BRANCH  23  26
ATOM     24  C   UNL     1      -0.685  11.960  19.690  0.00  0.00    +0.000 A 
ATOM     25  C   UNL     1       0.396  11.240  19.170  0.00  0.00    +0.000 A 
ATOM     26  C   UNL     1       0.199  10.223  18.227  0.00  0.00    +0.000 A 
ATOM     27  C   UNL     1      -1.111   9.942  17.814  0.00  0.00    +0.000 A 
ATOM     28  C   UNL     1      -2.199  10.660  18.320  0.00  0.00    +0.000 A 
ATOM     29  C   UNL     1      -1.982  11.666  19.264  0.00  0.00    +0.000 A 
BRANCH  24  31
ATOM     30  C   UNL     1      -0.964  14.199  20.448  0.00  0.00    +0.000 C 
ATOM     31  O   UNL     1      -0.336  12.929  20.591  0.00  0.00    +0.000 OA
ENDBRANCH  24  31
BRANCH  28  32
ATOM     32  O   UNL     1      -3.411  10.293  17.804  0.00  0.00    +0.000 OA
ATOM     33  C   UNL     1      -4.221  11.324  17.252  0.00  0.00    +0.000 C 
ENDBRANCH  28  32
ENDBRANCH  23  26
ENDBRANCH  18  23
ENDBRANCH   1  20
TORSDOF 8
ENDMDL
MODEL 9
REMARK VINA RESULT:      -7.9      1.889      2.289
REMARK  Name = 
REMARK  10 active torsions:
REMARK  status: ('A' for Active; 'I' for Inactive)
REMARK    1  A    between atoms: C_1  and  O_2
REMARK    2  A    between atoms: O_2  and  C_3
REMARK    3  A    between atoms: C_5  and  C_6
REMARK    4  A    between atoms: C_6  and  N_7
REMARK    5  A    between atoms: C_9  and  C_10
REMARK    6  A    between atoms: C_10  and  C_12
REMARK    7  A    between atoms: C_17  and  N_18
REMARK    8  A    between atoms: N_18  and  C_19
REMARK    9  A    between atoms: C_29  and  O_30
REMARK   10  A    between atoms: O_30  and  C_31
REMARK                            x       y       z     vdW  Elec       q    Type
REMARK                         _______ _______ _______ _____ _____    ______ ____
ROOT
ATOM      1  C   UNL     1       2.317   6.558  19.126  0.00  0.00    +0.000 C 
ATOM      2  O   UNL     1       2.656   6.668  17.947  0.00  0.00    +0.000 OA
ENDROOT
BRANCH   1   3
ATOM      3  C   UNL     1       2.314   5.211  19.762  0.00  0.00    +0.000 A 
ATOM      4  C   UNL     1       1.114   4.673  20.259  0.00  0.00    +0.000 A 
ATOM      5  C   UNL     1       1.094   3.402  20.813  0.00  0.00    +0.000 A 
ATOM      6  C   UNL     1       2.278   2.697  20.843  0.00  0.00    +0.000 A 
ATOM      7  N   UNL     1       3.448   3.184  20.378  0.00  0.00    +0.000 NA
ATOM      8  C   UNL     1       3.476   4.427  19.829  0.00  0.00    +0.000 A 
BRANCH   8   9
ATOM      9  N   UNL     1       4.715   4.920  19.373  0.00  0.00    +0.000 N 
ATOM     10  H   UNL     1       5.000   5.766  19.860  0.00  0.00    +0.000 HD
BRANCH   9  11
ATOM     11  C   UNL     1       5.358   4.665  18.148  0.00  0.00    +0.000 A 
ATOM     12  C   UNL     1       4.616   4.262  17.028  0.00  0.00    +0.000 A 
ATOM     13  C   UNL     1       5.237   4.078  15.786  0.00  0.00    +0.000 A 
ATOM     14  C   UNL     1       6.602   4.294  15.662  0.00  0.00    +0.000 A 
ATOM     15  F   UNL     1       7.189   4.160  14.464  0.00  0.00    +0.000 F 
ATOM     16  C   UNL     1       7.366   4.654  16.763  0.00  0.00    +0.000 A 
ATOM     17  C   UNL     1       6.745   4.821  18.004  0.00  0.00    +0.000 A 
ENDBRANCH   9  11
ENDBRANCH   8   9
ENDBRANCH   1   3
BRANCH   1  20
ATOM     18  N   UNL     1       1.077   9.621  20.552  0.00  0.00    +0.000 N 
ATOM     19  C   UNL     1       1.689   9.004  19.499  0.00  0.00    +0.000 A 
ATOM     20  C   UNL     1       1.822   7.689  19.905  0.00  0.00    +0.000 A 
ATOM     21  N   UNL     1       1.337   7.578  21.188  0.00  0.00    +0.000 NA
ATOM     22  N   UNL     1       0.857   8.755  21.559  0.00  0.00    +0.000 NA
BRANCH  18  23
ATOM     23  C   UNL     1       0.505  10.956  20.605  0.00  0.00    +0.000 C 
BRANCH  23  26
ATOM     24  C   UNL     1      -2.954  12.089  19.460  0.00  0.00    +0.000 A 
ATOM     25  C   UNL     1      -1.807  11.904  20.238  0.00  0.00    +0.000 A 
ATOM     26  C   UNL     1      -0.757  11.089  19.793  0.00  0.00    +0.000 A 
ATOM     27  C   UNL     1      -0.883  10.461  18.546  0.00  0.00    +0.000 A 
ATOM     28  C   UNL     1      -2.022  10.645  17.756  0.00  0.00    +0.000 A 
ATOM     29  C   UNL     1      -3.059  11.456  18.219  0.00  0.00    +0.000 A 
BRANCH  24  31
ATOM     30  C   UNL     1      -3.410  13.910  20.923  0.00  0.00    +0.000 C 
ATOM     31  O   UNL     1      -3.888  12.920  20.018  0.00  0.00    +0.000 OA
ENDBRANCH  24  31
BRANCH  28  32
ATOM     32  O   UNL     1      -1.990   9.991  16.554  0.00  0.00    +0.000 OA
ATOM     33  C   UNL     1      -2.866  10.461  15.537  0.00  0.00    +0.000 C 
ENDBRANCH  28  32
ENDBRANCH  23  26
ENDBRANCH  18  23
ENDBRANCH   1  20
TORSDOF 8
ENDMDL
