MODEL 1
REMARK VINA RESULT:      -6.7      0.000      0.000
REMARK  Name = 
REMARK  5 active torsions:
REMARK  status: ('A' for Active; 'I' for Inactive)
REMARK    1  A    between atoms: C_1  and  C_2
REMARK    2  A    between atoms: C_2  and  O_3
REMARK    3  A    between atoms: O_3  and  C_4
REMARK    4  A    between atoms: C_4  and  C_6
REMARK    5  A    between atoms: C_6  and  N_7
REMARK                            x       y       z     vdW  Elec       q    Type
REMARK                         _______ _______ _______ _____ _____    ______ ____
ROOT
ATOM      1  N   UNL     1       4.561   3.697  18.042  0.00  0.00    +0.000 N 
ATOM      2  C   UNL     1       4.629   4.403  19.211  0.00  0.00    +0.000 A 
ATOM      3  N   UNL     1       5.501   5.386  19.135  0.00  0.00    +0.000 NA
ATOM      4  C   UNL     1       6.046   5.288  17.870  0.00  0.00    +0.000 A 
ATOM      5  C   UNL     1       7.011   5.986  17.159  0.00  0.00    +0.000 A 
ATOM      6 CL   UNL     1       7.784   7.305  17.891  0.00  0.00    +0.000 Cl
ATOM      7  N   UNL     1       7.353   5.651  15.899  0.00  0.00    +0.000 NA
ATOM      8  C   UNL     1       6.708   4.599  15.363  0.00  0.00    +0.000 A 
ATOM      9  N   UNL     1       5.752   3.829  15.923  0.00  0.00    +0.000 NA
ATOM     10  C   UNL     1       5.471   4.233  17.176  0.00  0.00    +0.000 A 
ENDROOT
BRANCH   1  11
ATOM     11  C   UNL     1       3.707   2.560  17.774  0.00  0.00    +0.000 C 
BRANCH  11  12
ATOM     12  C   UNL     1       2.260   2.925  17.959  0.00  0.00    +0.000 C 
ATOM     13  O   UNL     1       1.634   3.703  17.253  0.00  0.00    +0.000 OA
BRANCH  12  14
ATOM     14  O   UNL     1       1.754   2.271  19.043  0.00  0.00    +0.000 OA
BRANCH  14  16
ATOM     15  C   UNL     1       1.455   2.758  21.362  0.00  0.00    +0.000 C 
ATOM     16  C   UNL     1       1.008   3.095  19.950  0.00  0.00    +0.000 C 
ENDBRANCH  14  16
ENDBRANCH  12  14
ENDBRANCH  11  12
ENDBRANCH   1  11
TORSDOF 4
ENDMDL
MODEL 2
REMARK VINA RESULT:      -6.4      3.442      5.505
REMARK  Name = 
REMARK  5 active torsions:
REMARK  status: ('A' for Active; 'I' for Inactive)
REMARK    1  A    between atoms: C_1  and  C_2
REMARK    2  A    between atoms: C_2  and  O_3
REMARK    3  A    between atoms: O_3  and  C_4
REMARK    4  A    between atoms: C_4  and  C_6
REMARK    5  A    between atoms: C_6  and  N_7
REMARK                            x       y       z     vdW  Elec       q    Type
REMARK                         _______ _______ _______ _____ _____    ______ ____
ROOT
ATOM      1  N   UNL     1       5.163   5.459  18.143  0.00  0.00    +0.000 N 
ATOM      2  C   UNL     1       4.142   6.098  17.498  0.00  0.00    +0.000 A 
ATOM      3  N   UNL     1       2.993   5.479  17.674  0.00  0.00    +0.000 NA
ATOM      4  C   UNL     1       3.295   4.369  18.438  0.00  0.00    +0.000 A 
ATOM      5  C   UNL     1       2.569   3.308  18.958  0.00  0.00    +0.000 A 
ATOM      6 CL   UNL     1       0.900   3.229  18.675  0.00  0.00    +0.000 Cl
ATOM      7  N   UNL     1       3.149   2.335  19.690  0.00  0.00    +0.000 NA
ATOM      8  C   UNL     1       4.475   2.445  19.889  0.00  0.00    +0.000 A 
ATOM      9  N   UNL     1       5.310   3.412  19.453  0.00  0.00    +0.000 NA
ATOM     10  C   UNL     1       4.650   4.341  18.736  0.00  0.00    +0.000 A 
ENDROOT
BRANCH   1  11
ATOM     11  C   UNL     1       6.552   5.867  18.169  0.00  0.00    +0.000 C 
BRANCH  11  12
ATOM     12  C   UNL     1       7.336   5.154  17.102  0.00  0.00    +0.000 C 
ATOM     13  O   UNL     1       8.073   4.196  17.291  0.00  0.00    +0.000 OA
BRANCH  12  14
ATOM     14  O   UNL     1       7.114   5.745  15.893  0.00  0.00    +0.000 OA
BRANCH  14  16
ATOM     15  C   UNL     1       5.616   4.365  14.648  0.00  0.00    +0.000 C 
ATOM     16  C   UNL     1       7.052   4.839  14.782  0.00  0.00    +0.000 C 
ENDBRANCH  14  16
ENDBRANCH  12  14
ENDBRANCH  11  12
ENDBRANCH   1  11
TORSDOF 4
ENDMDL
MODEL 3
REMARK VINA RESULT:      -6.4      0.966      1.178
REMARK  Name = 
REMARK  5 active torsions:
REMARK  status: ('A' for Active; 'I' for Inactive)
REMARK    1  A    between atoms: C_1  and  C_2
REMARK    2  A    between atoms: C_2  and  O_3
REMARK    3  A    between atoms: O_3  and  C_4
REMARK    4  A    between atoms: C_4  and  C_6
REMARK    5  A    between atoms: C_6  and  N_7
REMARK                            x       y       z     vdW  Elec       q    Type
REMARK                         _______ _______ _______ _____ _____    ______ ____
ROOT
ATOM      1  N   UNL     1       3.838   4.294  17.363  0.00  0.00    +0.000 N 
ATOM      2  C   UNL     1       3.812   5.100  18.467  0.00  0.00    +0.000 A 
ATOM      3  N   UNL     1       4.856   5.900  18.509  0.00  0.00    +0.000 NA
ATOM      4  C   UNL     1       5.609   5.571  17.399  0.00  0.00    +0.000 A 
ATOM      5  C   UNL     1       6.812   6.006  16.863  0.00  0.00    +0.000 A 
ATOM      6 CL   UNL     1       7.668   7.240  17.648  0.00  0.00    +0.000 Cl
ATOM      7  N   UNL     1       7.322   5.482  15.731  0.00  0.00    +0.000 NA
ATOM      8  C   UNL     1       6.603   4.507  15.145  0.00  0.00    +0.000 A 
ATOM      9  N   UNL     1       5.425   3.983  15.542  0.00  0.00    +0.000 NA
ATOM     10  C   UNL     1       4.987   4.564  16.674  0.00  0.00    +0.000 A 
ENDROOT
BRANCH   1  11
ATOM     11  C   UNL     1       2.849   3.303  16.999  0.00  0.00    +0.000 C 
BRANCH  11  12
ATOM     12  C   UNL     1       2.795   2.203  18.023  0.00  0.00    +0.000 C 
ATOM     13  O   UNL     1       3.685   1.389  18.229  0.00  0.00    +0.000 OA
BRANCH  12  14
ATOM     14  O   UNL     1       1.599   2.238  18.675  0.00  0.00    +0.000 OA
BRANCH  14  16
ATOM     15  C   UNL     1       0.991   3.757  20.414  0.00  0.00    +0.000 C 
ATOM     16  C   UNL     1       1.691   2.449  20.092  0.00  0.00    +0.000 C 
ENDBRANCH  14  16
ENDBRANCH  12  14
ENDBRANCH  11  12
ENDBRANCH   1  11
TORSDOF 4
ENDMDL
MODEL 4
REMARK VINA RESULT:      -6.3      3.205      5.428
REMARK  Name = 
REMARK  5 active torsions:
REMARK  status: ('A' for Active; 'I' for Inactive)
REMARK    1  A    between atoms: C_1  and  C_2
REMARK    2  A    between atoms: C_2  and  O_3
REMARK    3  A    between atoms: O_3  and  C_4
REMARK    4  A    between atoms: C_4  and  C_6
REMARK    5  A    between atoms: C_6  and  N_7
REMARK                            x       y       z     vdW  Elec       q    Type
REMARK                         _______ _______ _______ _____ _____    ______ ____
ROOT
ATOM      1  N   UNL     1       5.491   4.933  18.395  0.00  0.00    +0.000 N 
ATOM      2  C   UNL     1       4.710   6.023  18.129  0.00  0.00    +0.000 A 
ATOM      3  N   UNL     1       3.535   5.934  18.715  0.00  0.00    +0.000 NA
ATOM      4  C   UNL     1       3.544   4.713  19.359  0.00  0.00    +0.000 A 
ATOM      5  C   UNL     1       2.637   4.004  20.133  0.00  0.00    +0.000 A 
ATOM      6 CL   UNL     1       1.117   4.680  20.454  0.00  0.00    +0.000 Cl
ATOM      7  N   UNL     1       2.929   2.791  20.645  0.00  0.00    +0.000 NA
ATOM      8  C   UNL     1       4.149   2.300  20.364  0.00  0.00    +0.000 A 
ATOM      9  N   UNL     1       5.132   2.867  19.634  0.00  0.00    +0.000 NA
ATOM     10  C   UNL     1       4.759   4.073  19.165  0.00  0.00    +0.000 A 
ENDROOT
BRANCH   1  11
ATOM     11  C   UNL     1       6.838   4.704  17.921  0.00  0.00    +0.000 C 
BRANCH  11  12
ATOM     12  C   UNL     1       6.934   4.961  16.442  0.00  0.00    +0.000 C 
ATOM     13  O   UNL     1       7.466   5.936  15.931  0.00  0.00    +0.000 OA
BRANCH  12  14
ATOM     14  O   UNL     1       6.322   3.953  15.758  0.00  0.00    +0.000 OA
BRANCH  14  16
ATOM     15  C   UNL     1       6.169   3.767  13.382  0.00  0.00    +0.000 C 
ATOM     16  C   UNL     1       5.548   4.376  14.627  0.00  0.00    +0.000 C 
ENDBRANCH  14  16
ENDBRANCH  12  14
ENDBRANCH  11  12
ENDBRANCH   1  11
TORSDOF 4
ENDMDL
MODEL 5
REMARK VINA RESULT:      -6.2      2.048      2.725
REMARK  Name = 
REMARK  5 active torsions:
REMARK  status: ('A' for Active; 'I' for Inactive)
REMARK    1  A    between atoms: C_1  and  C_2
REMARK    2  A    between atoms: C_2  and  O_3
REMARK    3  A    between atoms: O_3  and  C_4
REMARK    4  A    between atoms: C_4  and  C_6
REMARK    5  A    between atoms: C_6  and  N_7
REMARK                            x       y       z     vdW  Elec       q    Type
REMARK                         _______ _______ _______ _____ _____    ______ ____
ROOT
ATOM      1  N   UNL     1       4.331   4.110  18.454  0.00  0.00    +0.000 N 
ATOM      2  C   UNL     1       3.459   3.909  17.421  0.00  0.00    +0.000 A 
ATOM      3  N   UNL     1       4.075   3.912  16.258  0.00  0.00    +0.000 NA
ATOM      4  C   UNL     1       5.401   4.162  16.552  0.00  0.00    +0.000 A 
ATOM      5  C   UNL     1       6.562   4.309  15.808  0.00  0.00    +0.000 A 
ATOM      6 CL   UNL     1       6.487   4.163  14.121  0.00  0.00    +0.000 Cl
ATOM      7  N   UNL     1       7.754   4.561  16.384  0.00  0.00    +0.000 NA
ATOM      8  C   UNL     1       7.761   4.665  17.725  0.00  0.00    +0.000 A 
ATOM      9  N   UNL     1       6.723   4.546  18.579  0.00  0.00    +0.000 NA
ATOM     10  C   UNL     1       5.576   4.293  17.922  0.00  0.00    +0.000 A 
ENDROOT
BRANCH   1  11
ATOM     11  C   UNL     1       3.998   4.159  19.862  0.00  0.00    +0.000 C 
BRANCH  11  12
ATOM     12  C   UNL     1       3.999   2.778  20.458  0.00  0.00    +0.000 C 
ATOM     13  O   UNL     1       4.927   1.984  20.393  0.00  0.00    +0.000 OA
BRANCH  12  14
ATOM     14  O   UNL     1       2.804   2.538  21.068  0.00  0.00    +0.000 OA
BRANCH  14  16
ATOM     15  C   UNL     1       0.708   3.271  20.190  0.00  0.00    +0.000 C 
ATOM     16  C   UNL     1       1.892   3.646  21.063  0.00  0.00    +0.000 C 
ENDBRANCH  14  16
ENDBRANCH  12  14
ENDBRANCH  11  12
ENDBRANCH   1  11
TORSDOF 4
ENDMDL
MODEL 6
REMARK VINA RESULT:      -6.2      1.307      1.648
REMARK  Name = 
REMARK  5 active torsions:
REMARK  status: ('A' for Active; 'I' for Inactive)
REMARK    1  A    between atoms: C_1  and  C_2
REMARK    2  A    between atoms: C_2  and  O_3
REMARK    3  A    between atoms: O_3  and  C_4
REMARK    4  A    between atoms: C_4  and  C_6
REMARK    5  A    between atoms: C_6  and  N_7
REMARK                            x       y       z     vdW  Elec       q    Type
REMARK                         _______ _______ _______ _____ _____    ______ ____
ROOT
ATOM      1  N   UNL     1       4.855   4.112  18.463  0.00  0.00    +0.000 N 
ATOM      2  C   UNL     1       4.942   5.044  19.460  0.00  0.00    +0.000 A 
ATOM      3  N   UNL     1       5.741   6.036  19.130  0.00  0.00    +0.000 NA
ATOM      4  C   UNL     1       6.221   5.712  17.877  0.00  0.00    +0.000 A 
ATOM      5  C   UNL     1       7.097   6.302  16.978  0.00  0.00    +0.000 A 
ATOM      6 CL   UNL     1       7.820   7.781  17.376  0.00  0.00    +0.000 Cl
ATOM      7  N   UNL     1       7.389   5.736  15.789  0.00  0.00    +0.000 NA
ATOM      8  C   UNL     1       6.787   4.564  15.519  0.00  0.00    +0.000 A 
ATOM      9  N   UNL     1       5.917   3.874  16.285  0.00  0.00    +0.000 NA
ATOM     10  C   UNL     1       5.679   4.509  17.448  0.00  0.00    +0.000 A 
ENDROOT
BRANCH   1  11
ATOM     11  C   UNL     1       4.065   2.901  18.485  0.00  0.00    +0.000 C 
BRANCH  11  12
ATOM     12  C   UNL     1       4.124   2.251  19.841  0.00  0.00    +0.000 C 
ATOM     13  O   UNL     1       5.063   1.594  20.266  0.00  0.00    +0.000 OA
BRANCH  12  14
ATOM     14  O   UNL     1       2.965   2.490  20.518  0.00  0.00    +0.000 OA
BRANCH  14  16
ATOM     15  C   UNL     1       0.855   3.549  20.159  0.00  0.00    +0.000 C 
ATOM     16  C   UNL     1       1.776   2.425  19.717  0.00  0.00    +0.000 C 
ENDBRANCH  14  16
ENDBRANCH  12  14
ENDBRANCH  11  12
ENDBRANCH   1  11
TORSDOF 4
ENDMDL
MODEL 7
REMARK VINA RESULT:      -6.1      3.249      5.477
REMARK  Name = 
REMARK  5 active torsions:
REMARK  status: ('A' for Active; 'I' for Inactive)
REMARK    1  A    between atoms: C_1  and  C_2
REMARK    2  A    between atoms: C_2  and  O_3
REMARK    3  A    between atoms: O_3  and  C_4
REMARK    4  A    between atoms: C_4  and  C_6
REMARK    5  A    between atoms: C_6  and  N_7
REMARK                            x       y       z     vdW  Elec       q    Type
REMARK                         _______ _______ _______ _____ _____    ______ ____
ROOT
ATOM      1  N   UNL     1       5.023   4.701  18.101  0.00  0.00    +0.000 N 
ATOM      2  C   UNL     1       4.760   5.694  19.003  0.00  0.00    +0.000 A 
ATOM      3  N   UNL     1       3.645   5.468  19.664  0.00  0.00    +0.000 NA
ATOM      4  C   UNL     1       3.146   4.292  19.139  0.00  0.00    +0.000 A 
ATOM      5  C   UNL     1       2.020   3.514  19.365  0.00  0.00    +0.000 A 
ATOM      6 CL   UNL     1       0.905   3.997  20.547  0.00  0.00    +0.000 Cl
ATOM      7  N   UNL     1       1.784   2.380  18.677  0.00  0.00    +0.000 NA
ATOM      8  C   UNL     1       2.700   2.038  17.752  0.00  0.00    +0.000 A 
ATOM      9  N   UNL     1       3.837   2.686  17.422  0.00  0.00    +0.000 NA
ATOM     10  C   UNL     1       3.995   3.802  18.157  0.00  0.00    +0.000 A 
ENDROOT
BRANCH   1  11
ATOM     11  C   UNL     1       6.164   4.624  17.215  0.00  0.00    +0.000 C 
BRANCH  11  12
ATOM     12  C   UNL     1       6.320   5.901  16.435  0.00  0.00    +0.000 C 
ATOM     13  O   UNL     1       5.462   6.396  15.718  0.00  0.00    +0.000 OA
BRANCH  12  14
ATOM     14  O   UNL     1       7.566   6.415  16.635  0.00  0.00    +0.000 OA
BRANCH  14  16
ATOM     15  C   UNL     1       7.878   8.533  17.692  0.00  0.00    +0.000 C 
ATOM     16  C   UNL     1       7.764   7.035  17.914  0.00  0.00    +0.000 C 
ENDBRANCH  14  16
ENDBRANCH  12  14
ENDBRANCH  11  12
ENDBRANCH   1  11
TORSDOF 4
ENDMDL
MODEL 8
REMARK VINA RESULT:      -6.0      3.499      5.755
REMARK  Name = 
REMARK  5 active torsions:
REMARK  status: ('A' for Active; 'I' for Inactive)
REMARK    1  A    between atoms: C_1  and  C_2
REMARK    2  A    between atoms: C_2  and  O_3
REMARK    3  A    between atoms: O_3  and  C_4
REMARK    4  A    between atoms: C_4  and  C_6
REMARK    5  A    between atoms: C_6  and  N_7
REMARK                            x       y       z     vdW  Elec       q    Type
REMARK                         _______ _______ _______ _____ _____    ______ ____
ROOT
ATOM      1  N   UNL     1       5.176   5.269  18.331  0.00  0.00    +0.000 N 
ATOM      2  C   UNL     1       4.207   5.851  17.563  0.00  0.00    +0.000 A 
ATOM      3  N   UNL     1       3.073   5.185  17.623  0.00  0.00    +0.000 NA
ATOM      4  C   UNL     1       3.334   4.102  18.440  0.00  0.00    +0.000 A 
ATOM      5  C   UNL     1       2.600   3.019  18.899  0.00  0.00    +0.000 A 
ATOM      6 CL   UNL     1       0.978   2.861  18.434  0.00  0.00    +0.000 Cl
ATOM      7  N   UNL     1       3.135   2.085  19.712  0.00  0.00    +0.000 NA
ATOM      8  C   UNL     1       4.425   2.257  20.054  0.00  0.00    +0.000 A 
ATOM      9  N   UNL     1       5.261   3.252  19.693  0.00  0.00    +0.000 NA
ATOM     10  C   UNL     1       4.647   4.139  18.888  0.00  0.00    +0.000 A 
ENDROOT
BRANCH   1  11
ATOM     11  C   UNL     1       6.534   5.738  18.502  0.00  0.00    +0.000 C 
BRANCH  11  12
ATOM     12  C   UNL     1       7.306   5.614  17.217  0.00  0.00    +0.000 C 
ATOM     13  O   UNL     1       7.633   4.559  16.691  0.00  0.00    +0.000 OA
BRANCH  12  14
ATOM     14  O   UNL     1       7.601   6.855  16.735  0.00  0.00    +0.000 OA
BRANCH  14  16
ATOM     15  C   UNL     1       8.359   8.729  18.005  0.00  0.00    +0.000 C 
ATOM     16  C   UNL     1       7.142   7.943  17.550  0.00  0.00    +0.000 C 
ENDBRANCH  14  16
ENDBRANCH  12  14
ENDBRANCH  11  12
ENDBRANCH   1  11
TORSDOF 4
ENDMDL
MODEL 9
REMARK VINA RESULT:      -6.0      0.819      1.113
REMARK  Name = 
REMARK  5 active torsions:
REMARK  status: ('A' for Active; 'I' for Inactive)
REMARK    1  A    between atoms: C_1  and  C_2
REMARK    2  A    between atoms: C_2  and  O_3
REMARK    3  A    between atoms: O_3  and  C_4
REMARK    4  A    between atoms: C_4  and  C_6
REMARK    5  A    between atoms: C_6  and  N_7
REMARK                            x       y       z     vdW  Elec       q    Type
REMARK                         _______ _______ _______ _____ _____    ______ ____
ROOT
ATOM      1  N   UNL     1       4.590   3.726  17.955  0.00  0.00    +0.000 N 
ATOM      2  C   UNL     1       4.861   3.984  19.270  0.00  0.00    +0.000 A 
ATOM      3  N   UNL     1       5.824   4.870  19.404  0.00  0.00    +0.000 NA
ATOM      4  C   UNL     1       6.220   5.171  18.115  0.00  0.00    +0.000 A 
ATOM      5  C   UNL     1       7.178   5.999  17.549  0.00  0.00    +0.000 A 
ATOM      6 CL   UNL     1       8.168   6.931  18.561  0.00  0.00    +0.000 Cl
ATOM      7  N   UNL     1       7.345   6.091  16.215  0.00  0.00    +0.000 NA
ATOM      8  C   UNL     1       6.533   5.333  15.455  0.00  0.00    +0.000 A 
ATOM      9  N   UNL     1       5.561   4.488  15.856  0.00  0.00    +0.000 NA
ATOM     10  C   UNL     1       5.459   4.460  17.198  0.00  0.00    +0.000 A 
ENDROOT
BRANCH   1  11
ATOM     11  C   UNL     1       3.590   2.813  17.446  0.00  0.00    +0.000 C 
BRANCH  11  12
ATOM     12  C   UNL     1       2.554   2.519  18.496  0.00  0.00    +0.000 C 
ATOM     13  O   UNL     1       2.549   1.535  19.223  0.00  0.00    +0.000 OA
BRANCH  12  14
ATOM     14  O   UNL     1       1.613   3.505  18.505  0.00  0.00    +0.000 OA
BRANCH  14  16
ATOM     15  C   UNL     1       1.475   4.704  20.566  0.00  0.00    +0.000 C 
ATOM     16  C   UNL     1       0.857   3.604  19.721  0.00  0.00    +0.000 C 
ENDBRANCH  14  16
ENDBRANCH  12  14
ENDBRANCH  11  12
ENDBRANCH   1  11
TORSDOF 4
ENDMDL
