MODEL 1
REMARK VINA RESULT:      -6.5      0.000      0.000
REMARK  Name = 
REMARK  10 active torsions:
REMARK  status: ('A' for Active; 'I' for Inactive)
REMARK    1  A    between atoms: C_1  and  C_2
REMARK    2  A    between atoms: C_2  and  C_3
REMARK    3  A    between atoms: C_2  and  C_4
REMARK    4  A    between atoms: C_2  and  C_5
REMARK    5  A    between atoms: C_5  and  O_6
REMARK    6  A    between atoms: C_5  and  C_7
REMARK    7  A    between atoms: C_14  and  C_15
REMARK    8  A    between atoms: N_17  and  C_18
REMARK    9  A    between atoms: C_18  and  C_19
REMARK   10  A    between atoms: C_25  and  N_26
REMARK                            x       y       z     vdW  Elec       q    Type
REMARK                         _______ _______ _______ _____ _____    ______ ____
ROOT
ATOM      1  C   UNL     1      -1.003  11.684  18.140  0.00  0.00    +0.000 C 
ATOM      2  O   UNL     1      -1.917  11.555  17.318  0.00  0.00    +0.000 OA
ATOM      3  N   UNL     1      -0.086  10.683  18.206  0.00  0.00    +0.000 N 
ATOM      4  H   UNL     1      -0.348   9.869  17.667  0.00  0.00    +0.000 HD
ENDROOT
BRANCH   1  12
ATOM      5  C   UNL     1      -1.336  12.451  21.168  0.00  0.00    +0.000 C 
ATOM      6  O   UNL     1      -1.985  11.475  20.792  0.00  0.00    +0.000 OA
ATOM      7  N   UNL     1      -0.488  13.098  20.278  0.00  0.00    +0.000 N 
ATOM      8  C   UNL     1       0.386  14.187  20.651  0.00  0.00    +0.000 C 
ATOM      9  S   UNL     1       1.464  14.488  19.228  0.00  0.00    +0.000 S 
ATOM     10  O   UNL     1       2.663  13.474  19.302  0.00  0.00    +0.000 OA
ATOM     11  C   UNL     1       0.245  13.813  18.066  0.00  0.00    +0.000 C 
ATOM     12  C   UNL     1      -0.804  13.038  18.851  0.00  0.00    +0.000 C 
BRANCH   5  13
ATOM     13  C   UNL     1      -1.467  13.037  22.604  0.00  0.00    +0.000 C 
BRANCH  13  15
ATOM     14  C   UNL     1      -2.560  14.720  24.123  0.00  0.00    +0.000 C 
ATOM     15  C   UNL     1      -2.810  13.758  22.939  0.00  0.00    +0.000 C 
ATOM     16  C   UNL     1      -3.909  12.764  23.358  0.00  0.00    +0.000 C 
ATOM     17  C   UNL     1      -3.315  14.619  21.762  0.00  0.00    +0.000 C 
ENDBRANCH  13  15
BRANCH  13  18
ATOM     18  O   UNL     1      -1.158  12.080  23.615  0.00  0.00    +0.000 OA
ATOM     19  H   UNL     1      -0.289  11.690  23.406  0.00  0.00    +0.000 HD
ENDBRANCH  13  18
ENDBRANCH   5  13
ENDBRANCH   1  12
BRANCH   3  20
ATOM     20  C   UNL     1       1.098  10.577  19.027  0.00  0.00    +0.000 C 
BRANCH  20  21
ATOM     21  C   UNL     1       1.655   9.173  19.113  0.00  0.00    +0.000 A 
ATOM     22  C   UNL     1       2.419   8.647  18.049  0.00  0.00    +0.000 A 
ATOM     23  C   UNL     1       2.967   7.371  18.119  0.00  0.00    +0.000 A 
ATOM     24 CL   UNL     1       3.962   6.799  16.837  0.00  0.00    +0.000 Cl
ATOM     25  C   UNL     1       2.733   6.567  19.227  0.00  0.00    +0.000 A 
ATOM     26  C   UNL     1       1.966   7.054  20.287  0.00  0.00    +0.000 A 
ATOM     27  C   UNL     1       1.462   8.364  20.258  0.00  0.00    +0.000 A 
BRANCH  27  28
ATOM     28  N   UNL     1       0.822   8.859  21.427  0.00  0.00    +0.000 N 
ATOM     29  C   UNL     1      -0.487   8.700  21.804  0.00  0.00    +0.000 A 
ATOM     30  N   UNL     1      -0.655   9.206  23.008  0.00  0.00    +0.000 NA
ATOM     31  N   UNL     1       0.565   9.707  23.369  0.00  0.00    +0.000 NA
ATOM     32  N   UNL     1       1.456   9.543  22.402  0.00  0.00    +0.000 NA
ENDBRANCH  27  28
ENDBRANCH  20  21
ENDBRANCH   3  20
TORSDOF 7
ENDMDL
MODEL 2
REMARK VINA RESULT:      -6.4      4.643      8.080
REMARK  Name = 
REMARK  10 active torsions:
REMARK  status: ('A' for Active; 'I' for Inactive)
REMARK    1  A    between atoms: C_1  and  C_2
REMARK    2  A    between atoms: C_2  and  C_3
REMARK    3  A    between atoms: C_2  and  C_4
REMARK    4  A    between atoms: C_2  and  C_5
REMARK    5  A    between atoms: C_5  and  O_6
REMARK    6  A    between atoms: C_5  and  C_7
REMARK    7  A    between atoms: C_14  and  C_15
REMARK    8  A    between atoms: N_17  and  C_18
REMARK    9  A    between atoms: C_18  and  C_19
REMARK   10  A    between atoms: C_25  and  N_26
REMARK                            x       y       z     vdW  Elec       q    Type
REMARK                         _______ _______ _______ _____ _____    ______ ____
ROOT
ATOM      1  C   UNL     1      -1.532  12.506  22.949  0.00  0.00    +0.000 C 
ATOM      2  O   UNL     1      -0.481  13.072  23.268  0.00  0.00    +0.000 OA
ATOM      3  N   UNL     1      -2.692  13.170  23.198  0.00  0.00    +0.000 N 
ATOM      4  H   UNL     1      -2.560  14.002  23.759  0.00  0.00    +0.000 HD
ENDROOT
BRANCH   1  12
ATOM      5  C   UNL     1      -1.404  12.176  19.827  0.00  0.00    +0.000 C 
ATOM      6  O   UNL     1      -1.900  13.228  20.230  0.00  0.00    +0.000 OA
ATOM      7  N   UNL     1      -0.902  11.257  20.740  0.00  0.00    +0.000 N 
ATOM      8  C   UNL     1      -0.213  10.044  20.362  0.00  0.00    +0.000 C 
ATOM      9  S   UNL     1       0.473   9.348  21.885  0.00  0.00    +0.000 S 
ATOM     10  O   UNL     1       1.844  10.061  22.172  0.00  0.00    +0.000 OA
ATOM     11  C   UNL     1      -0.788  10.153  22.911  0.00  0.00    +0.000 C 
ATOM     12  C   UNL     1      -1.478  11.231  22.085  0.00  0.00    +0.000 C 
BRANCH   5  13
ATOM     13  C   UNL     1      -1.361  11.797  18.318  0.00  0.00    +0.000 C 
BRANCH  13  15
ATOM     14  C   UNL     1      -2.596   9.631  17.976  0.00  0.00    +0.000 C 
ATOM     15  C   UNL     1      -2.656  11.156  17.728  0.00  0.00    +0.000 C 
ATOM     16  C   UNL     1      -2.774  11.386  16.210  0.00  0.00    +0.000 C 
ATOM     17  C   UNL     1      -3.930  11.672  18.429  0.00  0.00    +0.000 C 
ENDBRANCH  13  15
BRANCH  13  18
ATOM     18  O   UNL     1      -0.931  12.879  17.495  0.00  0.00    +0.000 OA
ATOM     19  H   UNL     1      -1.081  12.628  16.565  0.00  0.00    +0.000 HD
ENDBRANCH  13  18
ENDBRANCH   5  13
ENDBRANCH   1  12
BRANCH   3  20
ATOM     20  C   UNL     1      -4.051  12.785  22.901  0.00  0.00    +0.000 C 
BRANCH  20  21
ATOM     21  C   UNL     1      -5.072  13.853  23.226  0.00  0.00    +0.000 A 
ATOM     22  C   UNL     1      -4.673  15.042  23.873  0.00  0.00    +0.000 A 
ATOM     23  C   UNL     1      -5.588  16.050  24.155  0.00  0.00    +0.000 A 
ATOM     24 CL   UNL     1      -5.045  17.519  24.869  0.00  0.00    +0.000 Cl
ATOM     25  C   UNL     1      -6.930  15.886  23.842  0.00  0.00    +0.000 A 
ATOM     26  C   UNL     1      -7.358  14.712  23.216  0.00  0.00    +0.000 A 
ATOM     27  C   UNL     1      -6.434  13.715  22.867  0.00  0.00    +0.000 A 
BRANCH  27  28
ATOM     28  N   UNL     1      -6.899  12.615  22.096  0.00  0.00    +0.000 N 
ATOM     29  C   UNL     1      -6.860  12.462  20.733  0.00  0.00    +0.000 A 
ATOM     30  N   UNL     1      -7.280  11.255  20.421  0.00  0.00    +0.000 NA
ATOM     31  N   UNL     1      -7.607  10.661  21.609  0.00  0.00    +0.000 NA
ATOM     32  N   UNL     1      -7.423  11.491  22.626  0.00  0.00    +0.000 NA
ENDBRANCH  27  28
ENDBRANCH  20  21
ENDBRANCH   3  20
TORSDOF 7
ENDMDL
MODEL 3
REMARK VINA RESULT:      -6.4      4.790      8.603
REMARK  Name = 
REMARK  10 active torsions:
REMARK  status: ('A' for Active; 'I' for Inactive)
REMARK    1  A    between atoms: C_1  and  C_2
REMARK    2  A    between atoms: C_2  and  C_3
REMARK    3  A    between atoms: C_2  and  C_4
REMARK    4  A    between atoms: C_2  and  C_5
REMARK    5  A    between atoms: C_5  and  O_6
REMARK    6  A    between atoms: C_5  and  C_7
REMARK    7  A    between atoms: C_14  and  C_15
REMARK    8  A    between atoms: N_17  and  C_18
REMARK    9  A    between atoms: C_18  and  C_19
REMARK   10  A    between atoms: C_25  and  N_26
REMARK                            x       y       z     vdW  Elec       q    Type
REMARK                         _______ _______ _______ _____ _____    ______ ____
ROOT
ATOM      1  C   UNL     1       1.962   5.928  20.091  0.00  0.00    +0.000 C 
ATOM      2  O   UNL     1       1.905   5.255  21.127  0.00  0.00    +0.000 OA
ATOM      3  N   UNL     1       1.914   7.279  20.230  0.00  0.00    +0.000 N 
ATOM      4  H   UNL     1       1.687   7.574  21.170  0.00  0.00    +0.000 HD
ENDROOT
BRANCH   1  12
ATOM      5  C   UNL     1       4.770   5.298  18.832  0.00  0.00    +0.000 C 
ATOM      6  O   UNL     1       4.744   6.231  19.635  0.00  0.00    +0.000 OA
ATOM      7  N   UNL     1       3.611   4.574  18.581  0.00  0.00    +0.000 N 
ATOM      8  C   UNL     1       3.565   3.403  17.736  0.00  0.00    +0.000 C 
ATOM      9  S   UNL     1       1.920   2.679  17.954  0.00  0.00    +0.000 S 
ATOM     10  O   UNL     1       1.953   1.773  19.238  0.00  0.00    +0.000 OA
ATOM     11  C   UNL     1       1.198   4.274  18.426  0.00  0.00    +0.000 C 
ATOM     12  C   UNL     1       2.323   5.244  18.758  0.00  0.00    +0.000 C 
BRANCH   5  13
ATOM     13  C   UNL     1       6.050   4.920  18.032  0.00  0.00    +0.000 C 
BRANCH  13  15
ATOM     14  C   UNL     1       7.131   5.015  15.761  0.00  0.00    +0.000 C 
ATOM     15  C   UNL     1       6.429   5.863  16.846  0.00  0.00    +0.000 C 
ATOM     16  C   UNL     1       7.401   6.976  17.282  0.00  0.00    +0.000 C 
ATOM     17  C   UNL     1       5.185   6.493  16.186  0.00  0.00    +0.000 C 
ENDBRANCH  13  15
BRANCH  13  18
ATOM     18  O   UNL     1       7.181   4.714  18.875  0.00  0.00    +0.000 OA
ATOM     19  H   UNL     1       7.901   4.346  18.329  0.00  0.00    +0.000 HD
ENDBRANCH  13  18
ENDBRANCH   5  13
ENDBRANCH   1  12
BRANCH   3  20
ATOM     20  C   UNL     1       2.000   8.308  19.220  0.00  0.00    +0.000 C 
BRANCH  20  21
ATOM     21  C   UNL     1       0.735   9.123  19.071  0.00  0.00    +0.000 A 
ATOM     22  C   UNL     1       0.069   9.179  17.827  0.00  0.00    +0.000 A 
ATOM     23  C   UNL     1      -1.111   9.897  17.674  0.00  0.00    +0.000 A 
ATOM     24 CL   UNL     1      -1.935   9.870  16.163  0.00  0.00    +0.000 Cl
ATOM     25  C   UNL     1      -1.639  10.614  18.739  0.00  0.00    +0.000 A 
ATOM     26  C   UNL     1      -0.993  10.592  19.977  0.00  0.00    +0.000 A 
ATOM     27  C   UNL     1       0.164   9.818  20.163  0.00  0.00    +0.000 A 
BRANCH  27  28
ATOM     28  N   UNL     1       0.689   9.709  21.480  0.00  0.00    +0.000 N 
ATOM     29  C   UNL     1       0.001   9.512  22.650  0.00  0.00    +0.000 A 
ATOM     30  N   UNL     1       0.859   9.348  23.634  0.00  0.00    +0.000 NA
ATOM     31  N   UNL     1       2.097   9.471  23.066  0.00  0.00    +0.000 NA
ATOM     32  N   UNL     1       2.006   9.734  21.771  0.00  0.00    +0.000 NA
ENDBRANCH  27  28
ENDBRANCH  20  21
ENDBRANCH   3  20
TORSDOF 7
ENDMDL
MODEL 4
REMARK VINA RESULT:      -6.0      2.010      3.693
REMARK  Name = 
REMARK  10 active torsions:
REMARK  status: ('A' for Active; 'I' for Inactive)
REMARK    1  A    between atoms: C_1  and  C_2
REMARK    2  A    between atoms: C_2  and  C_3
REMARK    3  A    between atoms: C_2  and  C_4
REMARK    4  A    between atoms: C_2  and  C_5
REMARK    5  A    between atoms: C_5  and  O_6
REMARK    6  A    between atoms: C_5  and  C_7
REMARK    7  A    between atoms: C_14  and  C_15
REMARK    8  A    between atoms: N_17  and  C_18
REMARK    9  A    between atoms: C_18  and  C_19
REMARK   10  A    between atoms: C_25  and  N_26
REMARK                            x       y       z     vdW  Elec       q    Type
REMARK                         _______ _______ _______ _____ _____    ______ ____
ROOT
ATOM      1  C   UNL     1      -1.323  11.523  18.839  0.00  0.00    +0.000 C 
ATOM      2  O   UNL     1      -2.396  11.461  18.229  0.00  0.00    +0.000 OA
ATOM      3  N   UNL     1      -0.263  10.870  18.293  0.00  0.00    +0.000 N 
ATOM      4  H   UNL     1      -0.520  10.279  17.513  0.00  0.00    +0.000 HD
ENDROOT
BRANCH   1  12
ATOM      5  C   UNL     1      -0.324  14.501  18.876  0.00  0.00    +0.000 C 
ATOM      6  O   UNL     1       0.083  13.815  17.938  0.00  0.00    +0.000 OA
ATOM      7  N   UNL     1      -1.208  13.953  19.797  0.00  0.00    +0.000 N 
ATOM      8  C   UNL     1      -1.817  14.706  20.870  0.00  0.00    +0.000 C 
ATOM      9  S   UNL     1      -3.076  13.629  21.600  0.00  0.00    +0.000 S 
ATOM     10  O   UNL     1      -4.385  13.759  20.740  0.00  0.00    +0.000 OA
ATOM     11  C   UNL     1      -2.212  12.127  21.061  0.00  0.00    +0.000 C 
ATOM     12  C   UNL     1      -1.172  12.507  20.016  0.00  0.00    +0.000 C 
BRANCH   5  13
ATOM     13  C   UNL     1       0.158  15.962  19.112  0.00  0.00    +0.000 C 
BRANCH  13  15
ATOM     14  C   UNL     1       1.845  17.484  20.194  0.00  0.00    +0.000 C 
ATOM     15  C   UNL     1       1.673  16.149  19.435  0.00  0.00    +0.000 C 
ATOM     16  C   UNL     1       2.532  16.215  18.157  0.00  0.00    +0.000 C 
ATOM     17  C   UNL     1       2.210  15.036  20.360  0.00  0.00    +0.000 C 
ENDBRANCH  13  15
BRANCH  13  18
ATOM     18  O   UNL     1      -0.231  16.842  18.060  0.00  0.00    +0.000 OA
ATOM     19  H   UNL     1      -0.041  17.756  18.345  0.00  0.00    +0.000 HD
ENDBRANCH  13  18
ENDBRANCH   5  13
ENDBRANCH   1  12
BRANCH   3  20
ATOM     20  C   UNL     1       1.105  10.800  18.750  0.00  0.00    +0.000 C 
BRANCH  20  21
ATOM     21  C   UNL     1       1.617   9.387  18.926  0.00  0.00    +0.000 A 
ATOM     22  C   UNL     1       2.409   8.789  17.922  0.00  0.00    +0.000 A 
ATOM     23  C   UNL     1       2.916   7.504  18.075  0.00  0.00    +0.000 A 
ATOM     24 CL   UNL     1       3.947   6.844  16.866  0.00  0.00    +0.000 Cl
ATOM     25  C   UNL     1       2.612   6.761  19.209  0.00  0.00    +0.000 A 
ATOM     26  C   UNL     1       1.815   7.320  20.211  0.00  0.00    +0.000 A 
ATOM     27  C   UNL     1       1.353   8.640  20.098  0.00  0.00    +0.000 A 
BRANCH  27  28
ATOM     28  N   UNL     1       0.679   9.208  21.214  0.00  0.00    +0.000 N 
ATOM     29  C   UNL     1      -0.475   8.772  21.816  0.00  0.00    +0.000 A 
ATOM     30  N   UNL     1      -0.705   9.498  22.888  0.00  0.00    +0.000 NA
ATOM     31  N   UNL     1       0.310  10.414  22.936  0.00  0.00    +0.000 NA
ATOM     32  N   UNL     1       1.129  10.277  21.903  0.00  0.00    +0.000 NA
ENDBRANCH  27  28
ENDBRANCH  20  21
ENDBRANCH   3  20
TORSDOF 7
ENDMDL
MODEL 5
REMARK VINA RESULT:      -5.9      1.910      3.539
REMARK  Name = 
REMARK  10 active torsions:
REMARK  status: ('A' for Active; 'I' for Inactive)
REMARK    1  A    between atoms: C_1  and  C_2
REMARK    2  A    between atoms: C_2  and  C_3
REMARK    3  A    between atoms: C_2  and  C_4
REMARK    4  A    between atoms: C_2  and  C_5
REMARK    5  A    between atoms: C_5  and  O_6
REMARK    6  A    between atoms: C_5  and  C_7
REMARK    7  A    between atoms: C_14  and  C_15
REMARK    8  A    between atoms: N_17  and  C_18
REMARK    9  A    between atoms: C_18  and  C_19
REMARK   10  A    between atoms: C_25  and  N_26
REMARK                            x       y       z     vdW  Elec       q    Type
REMARK                         _______ _______ _______ _____ _____    ______ ____
ROOT
ATOM      1  C   UNL     1      -0.709  11.211  18.747  0.00  0.00    +0.000 C 
ATOM      2  O   UNL     1      -1.662  11.310  17.966  0.00  0.00    +0.000 OA
ATOM      3  N   UNL     1       0.335  10.436  18.352  0.00  0.00    +0.000 N 
ATOM      4  H   UNL     1       0.140   9.905  17.513  0.00  0.00    +0.000 HD
ENDROOT
BRANCH   1  12
ATOM      5  C   UNL     1       0.584  14.055  19.072  0.00  0.00    +0.000 C 
ATOM      6  O   UNL     1       1.054  13.357  18.174  0.00  0.00    +0.000 OA
ATOM      7  N   UNL     1      -0.483  13.582  19.825  0.00  0.00    +0.000 N 
ATOM      8  C   UNL     1      -1.165  14.365  20.831  0.00  0.00    +0.000 C 
ATOM      9  S   UNL     1      -2.628  13.415  21.314  0.00  0.00    +0.000 S 
ATOM     10  O   UNL     1      -3.770  13.717  20.277  0.00  0.00    +0.000 OA
ATOM     11  C   UNL     1      -1.857  11.843  20.838  0.00  0.00    +0.000 C 
ATOM     12  C   UNL     1      -0.636  12.135  19.978  0.00  0.00    +0.000 C 
BRANCH   5  13
ATOM     13  C   UNL     1       1.177  15.445  19.446  0.00  0.00    +0.000 C 
BRANCH  13  15
ATOM     14  C   UNL     1       3.488  16.342  19.883  0.00  0.00    +0.000 C 
ATOM     15  C   UNL     1       2.369  15.441  20.454  0.00  0.00    +0.000 C 
ATOM     16  C   UNL     1       2.951  14.029  20.654  0.00  0.00    +0.000 C 
ATOM     17  C   UNL     1       1.972  16.034  21.823  0.00  0.00    +0.000 C 
ENDBRANCH  13  15
BRANCH  13  18
ATOM     18  O   UNL     1       1.507  16.225  18.299  0.00  0.00    +0.000 OA
ATOM     19  H   UNL     1       0.922  17.005  18.286  0.00  0.00    +0.000 HD
ENDBRANCH  13  18
ENDBRANCH   5  13
ENDBRANCH   1  12
BRANCH   3  20
ATOM     20  C   UNL     1       1.585  10.170  19.024  0.00  0.00    +0.000 C 
BRANCH  20  21
ATOM     21  C   UNL     1       1.868   8.697  19.224  0.00  0.00    +0.000 A 
ATOM     22  C   UNL     1       2.576   7.972  18.241  0.00  0.00    +0.000 A 
ATOM     23  C   UNL     1       2.875   6.625  18.416  0.00  0.00    +0.000 A 
ATOM     24 CL   UNL     1       3.813   5.799  17.233  0.00  0.00    +0.000 Cl
ATOM     25  C   UNL     1       2.440   5.952  19.550  0.00  0.00    +0.000 A 
ATOM     26  C   UNL     1       1.721   6.640  20.531  0.00  0.00    +0.000 A 
ATOM     27  C   UNL     1       1.471   8.015  20.397  0.00  0.00    +0.000 A 
BRANCH  27  28
ATOM     28  N   UNL     1       0.874   8.694  21.495  0.00  0.00    +0.000 N 
ATOM     29  C   UNL     1      -0.453   8.734  21.841  0.00  0.00    +0.000 A 
ATOM     30  N   UNL     1      -0.582   9.369  22.987  0.00  0.00    +0.000 NA
ATOM     31  N   UNL     1       0.684   9.747  23.341  0.00  0.00    +0.000 NA
ATOM     32  N   UNL     1       1.568   9.383  22.424  0.00  0.00    +0.000 NA
ENDBRANCH  27  28
ENDBRANCH  20  21
ENDBRANCH   3  20
TORSDOF 7
ENDMDL
MODEL 6
REMARK VINA RESULT:      -5.9      3.158      4.547
REMARK  Name = 
REMARK  10 active torsions:
REMARK  status: ('A' for Active; 'I' for Inactive)
REMARK    1  A    between atoms: C_1  and  C_2
REMARK    2  A    between atoms: C_2  and  C_3
REMARK    3  A    between atoms: C_2  and  C_4
REMARK    4  A    between atoms: C_2  and  C_5
REMARK    5  A    between atoms: C_5  and  O_6
REMARK    6  A    between atoms: C_5  and  C_7
REMARK    7  A    between atoms: C_14  and  C_15
REMARK    8  A    between atoms: N_17  and  C_18
REMARK    9  A    between atoms: C_18  and  C_19
REMARK   10  A    between atoms: C_25  and  N_26
REMARK                            x       y       z     vdW  Elec       q    Type
REMARK                         _______ _______ _______ _____ _____    ______ ____
ROOT
ATOM      1  C   UNL     1       1.443   9.395  19.535  0.00  0.00    +0.000 C 
ATOM      2  O   UNL     1       1.099   9.585  20.707  0.00  0.00    +0.000 OA
ATOM      3  N   UNL     1       1.841   8.139  19.203  0.00  0.00    +0.000 N 
ATOM      4  H   UNL     1       1.950   7.533  20.005  0.00  0.00    +0.000 HD
ENDROOT
BRANCH   1  12
ATOM      5  C   UNL     1      -1.226  10.863  18.765  0.00  0.00    +0.000 C 
ATOM      6  O   UNL     1      -1.359   9.751  19.276  0.00  0.00    +0.000 OA
ATOM      7  N   UNL     1       0.045  11.403  18.613  0.00  0.00    +0.000 N 
ATOM      8  C   UNL     1       0.295  12.738  18.118  0.00  0.00    +0.000 C 
ATOM      9  S   UNL     1       2.059  13.055  18.369  0.00  0.00    +0.000 S 
ATOM     10  O   UNL     1       2.259  13.545  19.849  0.00  0.00    +0.000 OA
ATOM     11  C   UNL     1       2.461  11.286  18.319  0.00  0.00    +0.000 C 
ATOM     12  C   UNL     1       1.176  10.486  18.478  0.00  0.00    +0.000 C 
BRANCH   5  13
ATOM     13  C   UNL     1      -2.433  11.682  18.221  0.00  0.00    +0.000 C 
BRANCH  13  15
ATOM     14  C   UNL     1      -2.612  10.821  15.863  0.00  0.00    +0.000 C 
ATOM     15  C   UNL     1      -3.366  10.949  17.207  0.00  0.00    +0.000 C 
ATOM     16  C   UNL     1      -4.666  11.734  16.948  0.00  0.00    +0.000 C 
ATOM     17  C   UNL     1      -3.710   9.517  17.665  0.00  0.00    +0.000 C 
ENDBRANCH  13  15
BRANCH  13  18
ATOM     18  O   UNL     1      -3.208  12.270  19.263  0.00  0.00    +0.000 OA
ATOM     19  H   UNL     1      -2.867  11.940  20.116  0.00  0.00    +0.000 HD
ENDBRANCH  13  18
ENDBRANCH   5  13
ENDBRANCH   1  12
BRANCH   3  20
ATOM     20  C   UNL     1       2.252   7.616  17.922  0.00  0.00    +0.000 C 
BRANCH  20  21
ATOM     21  C   UNL     1       3.521   6.794  17.978  0.00  0.00    +0.000 A 
ATOM     22  C   UNL     1       4.741   7.341  17.527  0.00  0.00    +0.000 A 
ATOM     23  C   UNL     1       5.925   6.615  17.596  0.00  0.00    +0.000 A 
ATOM     24 CL   UNL     1       7.405   7.350  17.115  0.00  0.00    +0.000 Cl
ATOM     25  C   UNL     1       5.921   5.312  18.074  0.00  0.00    +0.000 A 
ATOM     26  C   UNL     1       4.725   4.737  18.511  0.00  0.00    +0.000 A 
ATOM     27  C   UNL     1       3.535   5.482  18.507  0.00  0.00    +0.000 A 
BRANCH  27  28
ATOM     28  N   UNL     1       2.383   4.902  19.106  0.00  0.00    +0.000 N 
ATOM     29  C   UNL     1       1.555   3.940  18.585  0.00  0.00    +0.000 A 
ATOM     30  N   UNL     1       0.675   3.586  19.497  0.00  0.00    +0.000 NA
ATOM     31  N   UNL     1       0.950   4.360  20.592  0.00  0.00    +0.000 NA
ATOM     32  N   UNL     1       1.953   5.191  20.351  0.00  0.00    +0.000 NA
ENDBRANCH  27  28
ENDBRANCH  20  21
ENDBRANCH   3  20
TORSDOF 7
ENDMDL
MODEL 7
REMARK VINA RESULT:      -5.8      3.558      5.466
REMARK  Name = 
REMARK  10 active torsions:
REMARK  status: ('A' for Active; 'I' for Inactive)
REMARK    1  A    between atoms: C_1  and  C_2
REMARK    2  A    between atoms: C_2  and  C_3
REMARK    3  A    between atoms: C_2  and  C_4
REMARK    4  A    between atoms: C_2  and  C_5
REMARK    5  A    between atoms: C_5  and  O_6
REMARK    6  A    between atoms: C_5  and  C_7
REMARK    7  A    between atoms: C_14  and  C_15
REMARK    8  A    between atoms: N_17  and  C_18
REMARK    9  A    between atoms: C_18  and  C_19
REMARK   10  A    between atoms: C_25  and  N_26
REMARK                            x       y       z     vdW  Elec       q    Type
REMARK                         _______ _______ _______ _____ _____    ______ ____
ROOT
ATOM      1  C   UNL     1      -1.865  14.179  22.645  0.00  0.00    +0.000 C 
ATOM      2  O   UNL     1      -1.603  13.903  23.822  0.00  0.00    +0.000 OA
ATOM      3  N   UNL     1      -1.108  13.581  21.688  0.00  0.00    +0.000 N 
ATOM      4  H   UNL     1      -0.312  13.084  22.064  0.00  0.00    +0.000 HD
ENDROOT
BRANCH   1  12
ATOM      5  C   UNL     1      -4.829  13.183  22.350  0.00  0.00    +0.000 C 
ATOM      6  O   UNL     1      -3.961  12.334  22.151  0.00  0.00    +0.000 OA
ATOM      7  N   UNL     1      -4.462  14.468  22.730  0.00  0.00    +0.000 N 
ATOM      8  C   UNL     1      -5.408  15.502  23.083  0.00  0.00    +0.000 C 
ATOM      9  S   UNL     1      -4.440  16.873  23.759  0.00  0.00    +0.000 S 
ATOM     10  O   UNL     1      -4.169  16.575  25.279  0.00  0.00    +0.000 OA
ATOM     11  C   UNL     1      -2.959  16.384  22.832  0.00  0.00    +0.000 C 
ATOM     12  C   UNL     1      -3.150  14.965  22.316  0.00  0.00    +0.000 C 
BRANCH   5  13
ATOM     13  C   UNL     1      -6.344  12.893  22.139  0.00  0.00    +0.000 C 
BRANCH  13  15
ATOM     14  C   UNL     1      -7.916  13.556  20.289  0.00  0.00    +0.000 C 
ATOM     15  C   UNL     1      -6.790  12.571  20.679  0.00  0.00    +0.000 C 
ATOM     16  C   UNL     1      -7.346  11.140  20.548  0.00  0.00    +0.000 C 
ATOM     17  C   UNL     1      -5.646  12.775  19.664  0.00  0.00    +0.000 C 
ENDBRANCH  13  15
BRANCH  13  18
ATOM     18  O   UNL     1      -6.840  11.901  23.034  0.00  0.00    +0.000 OA
ATOM     19  H   UNL     1      -7.745  12.157  23.296  0.00  0.00    +0.000 HD
ENDBRANCH  13  18
ENDBRANCH   5  13
ENDBRANCH   1  12
BRANCH   3  20
ATOM     20  C   UNL     1      -1.206  13.677  20.250  0.00  0.00    +0.000 C 
BRANCH  20  21
ATOM     21  C   UNL     1      -0.892  12.383  19.531  0.00  0.00    +0.000 A 
ATOM     22  C   UNL     1      -1.925  11.649  18.909  0.00  0.00    +0.000 A 
ATOM     23  C   UNL     1      -1.656  10.473  18.217  0.00  0.00    +0.000 A 
ATOM     24 CL   UNL     1      -2.931   9.653  17.402  0.00  0.00    +0.000 Cl
ATOM     25  C   UNL     1      -0.362   9.973  18.162  0.00  0.00    +0.000 A 
ATOM     26  C   UNL     1       0.677  10.669  18.783  0.00  0.00    +0.000 A 
ATOM     27  C   UNL     1       0.430  11.890  19.428  0.00  0.00    +0.000 A 
BRANCH  27  28
ATOM     28  N   UNL     1       1.546  12.630  19.906  0.00  0.00    +0.000 N 
ATOM     29  C   UNL     1       2.405  13.422  19.186  0.00  0.00    +0.000 A 
ATOM     30  N   UNL     1       3.231  14.027  20.013  0.00  0.00    +0.000 NA
ATOM     31  N   UNL     1       2.892  13.582  21.262  0.00  0.00    +0.000 NA
ATOM     32  N   UNL     1       1.903  12.703  21.205  0.00  0.00    +0.000 NA
ENDBRANCH  27  28
ENDBRANCH  20  21
ENDBRANCH   3  20
TORSDOF 7
ENDMDL
MODEL 8
REMARK VINA RESULT:      -5.7      3.947      7.101
REMARK  Name = 
REMARK  10 active torsions:
REMARK  status: ('A' for Active; 'I' for Inactive)
REMARK    1  A    between atoms: C_1  and  C_2
REMARK    2  A    between atoms: C_2  and  C_3
REMARK    3  A    between atoms: C_2  and  C_4
REMARK    4  A    between atoms: C_2  and  C_5
REMARK    5  A    between atoms: C_5  and  O_6
REMARK    6  A    between atoms: C_5  and  C_7
REMARK    7  A    between atoms: C_14  and  C_15
REMARK    8  A    between atoms: N_17  and  C_18
REMARK    9  A    between atoms: C_18  and  C_19
REMARK   10  A    between atoms: C_25  and  N_26
REMARK                            x       y       z     vdW  Elec       q    Type
REMARK                         _______ _______ _______ _____ _____    ______ ____
ROOT
ATOM      1  C   UNL     1      -0.234  11.210  21.954  0.00  0.00    +0.000 C 
ATOM      2  O   UNL     1       0.453  10.330  22.486  0.00  0.00    +0.000 OA
ATOM      3  N   UNL     1      -0.970  12.001  22.779  0.00  0.00    +0.000 N 
ATOM      4  H   UNL     1      -0.980  11.675  23.736  0.00  0.00    +0.000 HD
ENDROOT
BRANCH   1  12
ATOM      5  C   UNL     1       1.808  13.127  20.532  0.00  0.00    +0.000 C 
ATOM      6  O   UNL     1       1.549  13.401  21.704  0.00  0.00    +0.000 OA
ATOM      7  N   UNL     1       1.244  12.000  19.948  0.00  0.00    +0.000 N 
ATOM      8  C   UNL     1       1.566  11.541  18.615  0.00  0.00    +0.000 C 
ATOM      9  S   UNL     1       0.796   9.913  18.435  0.00  0.00    +0.000 S 
ATOM     10  O   UNL     1       1.766   8.844  19.057  0.00  0.00    +0.000 OA
ATOM     11  C   UNL     1      -0.472  10.291  19.676  0.00  0.00    +0.000 C 
ATOM     12  C   UNL     1      -0.042  11.525  20.458  0.00  0.00    +0.000 C 
BRANCH   5  13
ATOM     13  C   UNL     1       2.711  14.031  19.644  0.00  0.00    +0.000 C 
BRANCH  13  15
ATOM     14  C   UNL     1       2.242  16.417  20.294  0.00  0.00    +0.000 C 
ATOM     15  C   UNL     1       2.083  15.377  19.162  0.00  0.00    +0.000 C 
ATOM     16  C   UNL     1       0.580  15.235  18.855  0.00  0.00    +0.000 C 
ATOM     17  C   UNL     1       2.811  15.947  17.926  0.00  0.00    +0.000 C 
ENDBRANCH  13  15
BRANCH  13  18
ATOM     18  O   UNL     1       3.990  14.268  20.226  0.00  0.00    +0.000 OA
ATOM     19  H   UNL     1       4.637  14.367  19.503  0.00  0.00    +0.000 HD
ENDBRANCH  13  18
ENDBRANCH   5  13
ENDBRANCH   1  12
BRANCH   3  20
ATOM     20  C   UNL     1      -1.822  13.121  22.455  0.00  0.00    +0.000 C 
BRANCH  20  21
ATOM     21  C   UNL     1      -1.875  14.179  23.535  0.00  0.00    +0.000 A 
ATOM     22  C   UNL     1      -0.806  15.088  23.690  0.00  0.00    +0.000 A 
ATOM     23  C   UNL     1      -0.845  16.088  24.655  0.00  0.00    +0.000 A 
ATOM     24 CL   UNL     1       0.440  17.227  24.755  0.00  0.00    +0.000 Cl
ATOM     25  C   UNL     1      -1.927  16.183  25.521  0.00  0.00    +0.000 A 
ATOM     26  C   UNL     1      -2.991  15.286  25.403  0.00  0.00    +0.000 A 
ATOM     27  C   UNL     1      -2.993  14.314  24.390  0.00  0.00    +0.000 A 
BRANCH  27  28
ATOM     28  N   UNL     1      -4.168  13.532  24.219  0.00  0.00    +0.000 N 
ATOM     29  C   UNL     1      -4.487  12.343  24.826  0.00  0.00    +0.000 A 
ATOM     30  N   UNL     1      -5.713  12.002  24.493  0.00  0.00    +0.000 NA
ATOM     31  N   UNL     1      -6.150  12.985  23.647  0.00  0.00    +0.000 NA
ATOM     32  N   UNL     1      -5.208  13.892  23.439  0.00  0.00    +0.000 NA
ENDBRANCH  27  28
ENDBRANCH  20  21
ENDBRANCH   3  20
TORSDOF 7
ENDMDL
MODEL 9
REMARK VINA RESULT:      -5.7      3.168      4.770
REMARK  Name = 
REMARK  10 active torsions:
REMARK  status: ('A' for Active; 'I' for Inactive)
REMARK    1  A    between atoms: C_1  and  C_2
REMARK    2  A    between atoms: C_2  and  C_3
REMARK    3  A    between atoms: C_2  and  C_4
REMARK    4  A    between atoms: C_2  and  C_5
REMARK    5  A    between atoms: C_5  and  O_6
REMARK    6  A    between atoms: C_5  and  C_7
REMARK    7  A    between atoms: C_14  and  C_15
REMARK    8  A    between atoms: N_17  and  C_18
REMARK    9  A    between atoms: C_18  and  C_19
REMARK   10  A    between atoms: C_25  and  N_26
REMARK                            x       y       z     vdW  Elec       q    Type
REMARK                         _______ _______ _______ _____ _____    ______ ____
ROOT
ATOM      1  C   UNL     1       1.568   9.172  19.504  0.00  0.00    +0.000 C 
ATOM      2  O   UNL     1       1.298   9.357  20.696  0.00  0.00    +0.000 OA
ATOM      3  N   UNL     1       1.929   7.914  19.141  0.00  0.00    +0.000 N 
ATOM      4  H   UNL     1       2.077   7.300  19.931  0.00  0.00    +0.000 HD
ENDROOT
BRANCH   1  12
ATOM      5  C   UNL     1      -1.113  10.705  18.927  0.00  0.00    +0.000 C 
ATOM      6  O   UNL     1      -1.236   9.593  19.442  0.00  0.00    +0.000 OA
ATOM      7  N   UNL     1       0.157  11.216  18.689  0.00  0.00    +0.000 N 
ATOM      8  C   UNL     1       0.403  12.548  18.183  0.00  0.00    +0.000 C 
ATOM      9  S   UNL     1       2.187  12.823  18.313  0.00  0.00    +0.000 S 
ATOM     10  O   UNL     1       2.501  13.301  19.777  0.00  0.00    +0.000 OA
ATOM     11  C   UNL     1       2.544  11.046  18.228  0.00  0.00    +0.000 C 
ATOM     12  C   UNL     1       1.255  10.274  18.472  0.00  0.00    +0.000 C 
BRANCH   5  13
ATOM     13  C   UNL     1      -2.335  11.554  18.472  0.00  0.00    +0.000 C 
BRANCH  13  15
ATOM     14  C   UNL     1      -4.576  11.713  17.337  0.00  0.00    +0.000 C 
ATOM     15  C   UNL     1      -3.251  10.919  17.378  0.00  0.00    +0.000 C 
ATOM     16  C   UNL     1      -3.588   9.449  17.690  0.00  0.00    +0.000 C 
ATOM     17  C   UNL     1      -2.626  11.018  15.970  0.00  0.00    +0.000 C 
ENDBRANCH  13  15
BRANCH  13  18
ATOM     18  O   UNL     1      -3.124  12.007  19.569  0.00  0.00    +0.000 OA
ATOM     19  H   UNL     1      -2.519  12.265  20.289  0.00  0.00    +0.000 HD
ENDBRANCH  13  18
ENDBRANCH   5  13
ENDBRANCH   1  12
BRANCH   3  20
ATOM     20  C   UNL     1       2.257   7.395  17.833  0.00  0.00    +0.000 C 
BRANCH  20  21
ATOM     21  C   UNL     1       3.577   6.658  17.783  0.00  0.00    +0.000 A 
ATOM     22  C   UNL     1       4.776   7.367  17.555  0.00  0.00    +0.000 A 
ATOM     23  C   UNL     1       6.005   6.716  17.534  0.00  0.00    +0.000 A 
ATOM     24 CL   UNL     1       7.450   7.629  17.338  0.00  0.00    +0.000 Cl
ATOM     25  C   UNL     1       6.070   5.339  17.695  0.00  0.00    +0.000 A 
ATOM     26  C   UNL     1       4.898   4.609  17.905  0.00  0.00    +0.000 A 
ATOM     27  C   UNL     1       3.659   5.262  17.994  0.00  0.00    +0.000 A 
BRANCH  27  28
ATOM     28  N   UNL     1       2.523   4.490  18.362  0.00  0.00    +0.000 N 
ATOM     29  C   UNL     1       2.017   4.279  19.620  0.00  0.00    +0.000 A 
ATOM     30  N   UNL     1       0.890   3.608  19.526  0.00  0.00    +0.000 NA
ATOM     31  N   UNL     1       0.709   3.379  18.189  0.00  0.00    +0.000 NA
ATOM     32  N   UNL     1       1.714   3.870  17.479  0.00  0.00    +0.000 NA
ENDBRANCH  27  28
ENDBRANCH  20  21
ENDBRANCH   3  20
TORSDOF 7
ENDMDL
