MODEL 1
REMARK VINA RESULT:      -7.7      0.000      0.000
REMARK  Name = 
REMARK  7 active torsions:
REMARK  status: ('A' for Active; 'I' for Inactive)
REMARK    1  A    between atoms: C_1  and  C_2
REMARK    2  A    between atoms: C_5  and  C_6
REMARK    3  A    between atoms: N_13  and  C_14
REMARK    4  A    between atoms: C_14  and  C_15
REMARK    5  A    between atoms: C_15  and  C_16
REMARK    6  A    between atoms: C_16  and  C_17
REMARK    7  A    between atoms: C_19  and  O_20
REMARK                            x       y       z     vdW  Elec       q    Type
REMARK                         _______ _______ _______ _____ _____    ______ ____
ROOT
ATOM      1  C   UNL     1       0.898   3.634  20.510  0.00  0.00    +0.000 C 
ATOM      2  C   UNL     1       2.286   3.510  19.975  0.00  0.00    +0.000 A 
ATOM      3  C   UNL     1       3.264   2.686  20.489  0.00  0.00    +0.000 A 
ATOM      4  C   UNL     1       4.404   2.818  19.688  0.00  0.00    +0.000 A 
ATOM      5  C   UNL     1       4.138   3.729  18.674  0.00  0.00    +0.000 A 
ATOM      6  N   UNL     1       2.830   4.188  18.891  0.00  0.00    +0.000 N 
ENDROOT
BRANCH   5   7
ATOM      7  C   UNL     1       5.076   4.161  17.614  0.00  0.00    +0.000 A 
ATOM      8  C   UNL     1       6.156   5.025  17.858  0.00  0.00    +0.000 A 
ATOM      9  C   UNL     1       7.053   5.366  16.842  0.00  0.00    +0.000 A 
ATOM     10  C   UNL     1       6.838   4.899  15.555  0.00  0.00    +0.000 A 
ATOM     11  F   UNL     1       7.688   5.238  14.579  0.00  0.00    +0.000 F 
ATOM     12  C   UNL     1       5.746   4.094  15.265  0.00  0.00    +0.000 A 
ATOM     13  C   UNL     1       4.876   3.720  16.293  0.00  0.00    +0.000 A 
ENDBRANCH   5   7
BRANCH   6  14
ATOM     14  C   UNL     1       2.175   5.187  18.042  0.00  0.00    +0.000 C 
BRANCH  14  15
ATOM     15  C   UNL     1       2.476   6.651  18.320  0.00  0.00    +0.000 C 
BRANCH  15  16
ATOM     16  C   UNL     1       2.446   7.007  19.806  0.00  0.00    +0.000 C 
BRANCH  16  17
ATOM     17  C   UNL     1       1.355   8.050  20.107  0.00  0.00    +0.000 C 
ATOM     18  C   UNL     1       1.434   9.254  19.176  0.00  0.00    +0.000 C 
ATOM     19  C   UNL     1       0.504  10.343  19.648  0.00  0.00    +0.000 C 
ATOM     20  C   UNL     1       0.824  10.735  21.071  0.00  0.00    +0.000 C 
ATOM     21  C   UNL     1       1.015   9.573  22.006  0.00  0.00    +0.000 C 
ATOM     22  O   UNL     1       0.855   9.702  23.216  0.00  0.00    +0.000 OA
ATOM     23  O   UNL     1       1.492   8.417  21.495  0.00  0.00    +0.000 OA
BRANCH  19  24
ATOM     24  O   UNL     1      -0.854   9.946  19.490  0.00  0.00    +0.000 OA
ATOM     25  H   UNL     1      -1.286   9.861  20.359  0.00  0.00    +0.000 HD
ENDBRANCH  19  24
ENDBRANCH  16  17
ENDBRANCH  15  16
ENDBRANCH  14  15
ENDBRANCH   6  14
TORSDOF 6
ENDMDL
MODEL 2
REMARK VINA RESULT:      -7.6      1.688      2.381
REMARK  Name = 
REMARK  7 active torsions:
REMARK  status: ('A' for Active; 'I' for Inactive)
REMARK    1  A    between atoms: C_1  and  C_2
REMARK    2  A    between atoms: C_5  and  C_6
REMARK    3  A    between atoms: N_13  and  C_14
REMARK    4  A    between atoms: C_14  and  C_15
REMARK    5  A    between atoms: C_15  and  C_16
REMARK    6  A    between atoms: C_16  and  C_17
REMARK    7  A    between atoms: C_19  and  O_20
REMARK                            x       y       z     vdW  Elec       q    Type
REMARK                         _______ _______ _______ _____ _____    ______ ____
ROOT
ATOM      1  C   UNL     1       1.131   2.486  19.900  0.00  0.00    +0.000 C 
ATOM      2  C   UNL     1       2.324   2.862  19.086  0.00  0.00    +0.000 A 
ATOM      3  C   UNL     1       2.812   2.143  18.015  0.00  0.00    +0.000 A 
ATOM      4  C   UNL     1       3.905   2.841  17.490  0.00  0.00    +0.000 A 
ATOM      5  C   UNL     1       4.103   3.995  18.236  0.00  0.00    +0.000 A 
ATOM      6  N   UNL     1       3.139   3.973  19.256  0.00  0.00    +0.000 N 
ENDROOT
BRANCH   5   7
ATOM      7  C   UNL     1       5.158   5.010  18.021  0.00  0.00    +0.000 A 
ATOM      8  C   UNL     1       6.385   4.990  18.703  0.00  0.00    +0.000 A 
ATOM      9  C   UNL     1       7.379   5.935  18.431  0.00  0.00    +0.000 A 
ATOM     10  C   UNL     1       7.127   6.950  17.521  0.00  0.00    +0.000 A 
ATOM     11  F   UNL     1       8.073   7.863  17.272  0.00  0.00    +0.000 F 
ATOM     12  C   UNL     1       5.902   7.037  16.875  0.00  0.00    +0.000 A 
ATOM     13  C   UNL     1       4.928   6.065  17.118  0.00  0.00    +0.000 A 
ENDBRANCH   5   7
BRANCH   6  14
ATOM     14  C   UNL     1       3.026   5.015  20.281  0.00  0.00    +0.000 C 
BRANCH  14  15
ATOM     15  C   UNL     1       1.897   6.024  20.135  0.00  0.00    +0.000 C 
BRANCH  15  16
ATOM     16  C   UNL     1       2.307   7.293  19.389  0.00  0.00    +0.000 C 
BRANCH  16  17
ATOM     17  C   UNL     1       1.759   8.551  20.087  0.00  0.00    +0.000 C 
ATOM     18  C   UNL     1       0.819   8.211  21.237  0.00  0.00    +0.000 C 
ATOM     19  C   UNL     1       0.134   9.456  21.739  0.00  0.00    +0.000 C 
ATOM     20  C   UNL     1      -0.607  10.145  20.617  0.00  0.00    +0.000 C 
ATOM     21  C   UNL     1       0.187  10.288  19.348  0.00  0.00    +0.000 C 
ATOM     22  O   UNL     1      -0.085  11.161  18.528  0.00  0.00    +0.000 OA
ATOM     23  O   UNL     1       1.123   9.354  19.073  0.00  0.00    +0.000 OA
BRANCH  19  24
ATOM     24  O   UNL     1       1.068  10.319  22.378  0.00  0.00    +0.000 OA
ATOM     25  H   UNL     1       1.972   9.970  22.285  0.00  0.00    +0.000 HD
ENDBRANCH  19  24
ENDBRANCH  16  17
ENDBRANCH  15  16
ENDBRANCH  14  15
ENDBRANCH   6  14
TORSDOF 6
ENDMDL
MODEL 3
REMARK VINA RESULT:      -7.6      1.887      2.638
REMARK  Name = 
REMARK  7 active torsions:
REMARK  status: ('A' for Active; 'I' for Inactive)
REMARK    1  A    between atoms: C_1  and  C_2
REMARK    2  A    between atoms: C_5  and  C_6
REMARK    3  A    between atoms: N_13  and  C_14
REMARK    4  A    between atoms: C_14  and  C_15
REMARK    5  A    between atoms: C_15  and  C_16
REMARK    6  A    between atoms: C_16  and  C_17
REMARK    7  A    between atoms: C_19  and  O_20
REMARK                            x       y       z     vdW  Elec       q    Type
REMARK                         _______ _______ _______ _____ _____    ______ ____
ROOT
ATOM      1  C   UNL     1       0.903   2.602  19.243  0.00  0.00    +0.000 C 
ATOM      2  C   UNL     1       2.215   2.956  18.624  0.00  0.00    +0.000 A 
ATOM      3  C   UNL     1       2.805   2.282  17.576  0.00  0.00    +0.000 A 
ATOM      4  C   UNL     1       3.995   2.943  17.254  0.00  0.00    +0.000 A 
ATOM      5  C   UNL     1       4.149   4.031  18.103  0.00  0.00    +0.000 A 
ATOM      6  N   UNL     1       3.056   4.001  18.983  0.00  0.00    +0.000 N 
ENDROOT
BRANCH   5   7
ATOM      7  C   UNL     1       5.276   4.991  18.105  0.00  0.00    +0.000 A 
ATOM      8  C   UNL     1       5.373   6.054  17.193  0.00  0.00    +0.000 A 
ATOM      9  C   UNL     1       6.424   6.972  17.262  0.00  0.00    +0.000 A 
ATOM     10  C   UNL     1       7.427   6.794  18.203  0.00  0.00    +0.000 A 
ATOM     11  F   UNL     1       8.441   7.665  18.259  0.00  0.00    +0.000 F 
ATOM     12  C   UNL     1       7.396   5.719  19.079  0.00  0.00    +0.000 A 
ATOM     13  C   UNL     1       6.320   4.829  19.035  0.00  0.00    +0.000 A 
ENDBRANCH   5   7
BRANCH   6  14
ATOM     14  C   UNL     1       2.859   4.978  20.058  0.00  0.00    +0.000 C 
BRANCH  14  15
ATOM     15  C   UNL     1       2.220   6.308  19.690  0.00  0.00    +0.000 C 
BRANCH  15  16
ATOM     16  C   UNL     1       1.521   6.992  20.864  0.00  0.00    +0.000 C 
BRANCH  16  17
ATOM     17  C   UNL     1       1.441   8.515  20.654  0.00  0.00    +0.000 C 
ATOM     18  C   UNL     1       0.103   9.091  21.100  0.00  0.00    +0.000 C 
ATOM     19  C   UNL     1      -0.017  10.530  20.669  0.00  0.00    +0.000 C 
ATOM     20  C   UNL     1       0.156  10.654  19.174  0.00  0.00    +0.000 C 
ATOM     21  C   UNL     1       1.328   9.890  18.621  0.00  0.00    +0.000 C 
ATOM     22  O   UNL     1       1.847  10.213  17.556  0.00  0.00    +0.000 OA
ATOM     23  O   UNL     1       1.712   8.764  19.260  0.00  0.00    +0.000 OA
BRANCH  19  24
ATOM     24  O   UNL     1       0.902  11.348  21.388  0.00  0.00    +0.000 OA
ATOM     25  H   UNL     1       0.533  12.239  21.519  0.00  0.00    +0.000 HD
ENDBRANCH  19  24
ENDBRANCH  16  17
ENDBRANCH  15  16
ENDBRANCH  14  15
ENDBRANCH   6  14
TORSDOF 6
ENDMDL
MODEL 4
REMARK VINA RESULT:      -7.6      1.157      1.343
REMARK  Name = 
REMARK  7 active torsions:
REMARK  status: ('A' for Active; 'I' for Inactive)
REMARK    1  A    between atoms: C_1  and  C_2
REMARK    2  A    between atoms: C_5  and  C_6
REMARK    3  A    between atoms: N_13  and  C_14
REMARK    4  A    between atoms: C_14  and  C_15
REMARK    5  A    between atoms: C_15  and  C_16
REMARK    6  A    between atoms: C_16  and  C_17
REMARK    7  A    between atoms: C_19  and  O_20
REMARK                            x       y       z     vdW  Elec       q    Type
REMARK                         _______ _______ _______ _____ _____    ______ ____
ROOT
ATOM      1  C   UNL     1       1.825   4.502  21.046  0.00  0.00    +0.000 C 
ATOM      2  C   UNL     1       2.812   3.985  20.052  0.00  0.00    +0.000 A 
ATOM      3  C   UNL     1       3.139   2.657  19.876  0.00  0.00    +0.000 A 
ATOM      4  C   UNL     1       4.060   2.576  18.825  0.00  0.00    +0.000 A 
ATOM      5  C   UNL     1       4.310   3.856  18.347  0.00  0.00    +0.000 A 
ATOM      6  N   UNL     1       3.561   4.729  19.150  0.00  0.00    +0.000 N 
ENDROOT
BRANCH   5   7
ATOM      7  C   UNL     1       5.229   4.216  17.244  0.00  0.00    +0.000 A 
ATOM      8  C   UNL     1       6.566   4.587  17.456  0.00  0.00    +0.000 A 
ATOM      9  C   UNL     1       7.418   4.866  16.384  0.00  0.00    +0.000 A 
ATOM     10  C   UNL     1       6.920   4.843  15.091  0.00  0.00    +0.000 A 
ATOM     11  F   UNL     1       7.732   5.125  14.066  0.00  0.00    +0.000 F 
ATOM     12  C   UNL     1       5.588   4.541  14.849  0.00  0.00    +0.000 A 
ATOM     13  C   UNL     1       4.751   4.220  15.921  0.00  0.00    +0.000 A 
ENDBRANCH   5   7
BRANCH   6  14
ATOM     14  C   UNL     1       3.569   6.185  18.981  0.00  0.00    +0.000 C 
BRANCH  14  15
ATOM     15  C   UNL     1       2.447   6.803  18.163  0.00  0.00    +0.000 C 
BRANCH  15  16
ATOM     16  C   UNL     1       2.718   8.250  17.752  0.00  0.00    +0.000 C 
BRANCH  16  17
ATOM     17  C   UNL     1       1.594   9.185  18.234  0.00  0.00    +0.000 C 
ATOM     18  C   UNL     1       1.986  10.655  18.142  0.00  0.00    +0.000 C 
ATOM     19  C   UNL     1       0.957  11.515  18.830  0.00  0.00    +0.000 C 
ATOM     20  C   UNL     1       0.784  11.089  20.269  0.00  0.00    +0.000 C 
ATOM     21  C   UNL     1       0.645   9.604  20.462  0.00  0.00    +0.000 C 
ATOM     22  O   UNL     1       0.090   9.145  21.456  0.00  0.00    +0.000 OA
ATOM     23  O   UNL     1       1.260   8.787  19.579  0.00  0.00    +0.000 OA
BRANCH  19  24
ATOM     24  O   UNL     1      -0.272  11.500  18.111  0.00  0.00    +0.000 OA
ATOM     25  H   UNL     1      -0.410  10.632  17.694  0.00  0.00    +0.000 HD
ENDBRANCH  19  24
ENDBRANCH  16  17
ENDBRANCH  15  16
ENDBRANCH  14  15
ENDBRANCH   6  14
TORSDOF 6
ENDMDL
MODEL 5
REMARK VINA RESULT:      -7.6      3.555      6.145
REMARK  Name = 
REMARK  7 active torsions:
REMARK  status: ('A' for Active; 'I' for Inactive)
REMARK    1  A    between atoms: C_1  and  C_2
REMARK    2  A    between atoms: C_5  and  C_6
REMARK    3  A    between atoms: N_13  and  C_14
REMARK    4  A    between atoms: C_14  and  C_15
REMARK    5  A    between atoms: C_15  and  C_16
REMARK    6  A    between atoms: C_16  and  C_17
REMARK    7  A    between atoms: C_19  and  O_20
REMARK                            x       y       z     vdW  Elec       q    Type
REMARK                         _______ _______ _______ _____ _____    ______ ____
ROOT
ATOM      1  C   UNL     1       7.557   4.426  16.944  0.00  0.00    +0.000 C 
ATOM      2  C   UNL     1       6.405   5.372  16.876  0.00  0.00    +0.000 A 
ATOM      3  C   UNL     1       5.994   6.043  15.744  0.00  0.00    +0.000 A 
ATOM      4  C   UNL     1       4.859   6.791  16.074  0.00  0.00    +0.000 A 
ATOM      5  C   UNL     1       4.562   6.590  17.415  0.00  0.00    +0.000 A 
ATOM      6  N   UNL     1       5.560   5.739  17.916  0.00  0.00    +0.000 N 
ENDROOT
BRANCH   5   7
ATOM      7  C   UNL     1       3.443   7.201  18.168  0.00  0.00    +0.000 A 
ATOM      8  C   UNL     1       2.919   6.639  19.343  0.00  0.00    +0.000 A 
ATOM      9  C   UNL     1       1.899   7.276  20.056  0.00  0.00    +0.000 A 
ATOM     10  C   UNL     1       1.347   8.447  19.561  0.00  0.00    +0.000 A 
ATOM     11  F   UNL     1       0.361   9.048  20.236  0.00  0.00    +0.000 F 
ATOM     12  C   UNL     1       1.799   8.997  18.370  0.00  0.00    +0.000 A 
ATOM     13  C   UNL     1       2.848   8.380  17.684  0.00  0.00    +0.000 A 
ENDBRANCH   5   7
BRANCH   6  14
ATOM     14  C   UNL     1       5.618   5.300  19.313  0.00  0.00    +0.000 C 
BRANCH  14  15
ATOM     15  C   UNL     1       5.199   3.871  19.617  0.00  0.00    +0.000 C 
BRANCH  15  16
ATOM     16  C   UNL     1       4.490   3.182  18.452  0.00  0.00    +0.000 C 
BRANCH  16  17
ATOM     17  C   UNL     1       3.080   2.716  18.855  0.00  0.00    +0.000 C 
ATOM     18  C   UNL     1       1.987   3.453  18.091  0.00  0.00    +0.000 C 
ATOM     19  C   UNL     1       0.634   3.134  18.674  0.00  0.00    +0.000 C 
ATOM     20  C   UNL     1       0.594   3.477  20.144  0.00  0.00    +0.000 C 
ATOM     21  C   UNL     1       1.785   2.994  20.925  0.00  0.00    +0.000 C 
ATOM     22  O   UNL     1       1.714   2.811  22.137  0.00  0.00    +0.000 OA
ATOM     23  O   UNL     1       2.968   2.890  20.282  0.00  0.00    +0.000 OA
BRANCH  19  24
ATOM     24  O   UNL     1       0.289   1.774  18.427  0.00  0.00    +0.000 OA
ATOM     25  H   UNL     1       0.076   1.322  19.262  0.00  0.00    +0.000 HD
ENDBRANCH  19  24
ENDBRANCH  16  17
ENDBRANCH  15  16
ENDBRANCH  14  15
ENDBRANCH   6  14
TORSDOF 6
ENDMDL
MODEL 6
REMARK VINA RESULT:      -7.5      1.169      2.015
REMARK  Name = 
REMARK  7 active torsions:
REMARK  status: ('A' for Active; 'I' for Inactive)
REMARK    1  A    between atoms: C_1  and  C_2
REMARK    2  A    between atoms: C_5  and  C_6
REMARK    3  A    between atoms: N_13  and  C_14
REMARK    4  A    between atoms: C_14  and  C_15
REMARK    5  A    between atoms: C_15  and  C_16
REMARK    6  A    between atoms: C_16  and  C_17
REMARK    7  A    between atoms: C_19  and  O_20
REMARK                            x       y       z     vdW  Elec       q    Type
REMARK                         _______ _______ _______ _____ _____    ______ ____
ROOT
ATOM      1  C   UNL     1       0.984   4.104  20.518  0.00  0.00    +0.000 C 
ATOM      2  C   UNL     1       2.320   3.832  19.910  0.00  0.00    +0.000 A 
ATOM      3  C   UNL     1       3.186   2.836  20.310  0.00  0.00    +0.000 A 
ATOM      4  C   UNL     1       4.304   2.874  19.470  0.00  0.00    +0.000 A 
ATOM      5  C   UNL     1       4.138   3.898  18.546  0.00  0.00    +0.000 A 
ATOM      6  N   UNL     1       2.918   4.516  18.860  0.00  0.00    +0.000 N 
ENDROOT
BRANCH   5   7
ATOM      7  C   UNL     1       5.091   4.282  17.482  0.00  0.00    +0.000 A 
ATOM      8  C   UNL     1       6.125   5.211  17.684  0.00  0.00    +0.000 A 
ATOM      9  C   UNL     1       7.040   5.507  16.670  0.00  0.00    +0.000 A 
ATOM     10  C   UNL     1       6.887   4.926  15.420  0.00  0.00    +0.000 A 
ATOM     11  F   UNL     1       7.754   5.221  14.445  0.00  0.00    +0.000 F 
ATOM     12  C   UNL     1       5.840   4.052  15.167  0.00  0.00    +0.000 A 
ATOM     13  C   UNL     1       4.954   3.725  16.197  0.00  0.00    +0.000 A 
ENDBRANCH   5   7
BRANCH   6  14
ATOM     14  C   UNL     1       2.386   5.667  18.125  0.00  0.00    +0.000 C 
BRANCH  14  15
ATOM     15  C   UNL     1       2.479   7.031  18.791  0.00  0.00    +0.000 C 
BRANCH  15  16
ATOM     16  C   UNL     1       2.276   8.196  17.824  0.00  0.00    +0.000 C 
BRANCH  16  17
ATOM     17  C   UNL     1       1.572   9.377  18.516  0.00  0.00    +0.000 C 
ATOM     18  C   UNL     1       1.309   9.110  19.993  0.00  0.00    +0.000 C 
ATOM     19  C   UNL     1       0.423  10.184  20.570  0.00  0.00    +0.000 C 
ATOM     20  C   UNL     1      -0.871  10.278  19.797  0.00  0.00    +0.000 C 
ATOM     21  C   UNL     1      -0.701  10.289  18.304  0.00  0.00    +0.000 C 
ATOM     22  O   UNL     1      -1.560  10.775  17.573  0.00  0.00    +0.000 OA
ATOM     23  O   UNL     1       0.360   9.637  17.779  0.00  0.00    +0.000 OA
BRANCH  19  24
ATOM     24  O   UNL     1       1.112  11.429  20.622  0.00  0.00    +0.000 OA
ATOM     25  H   UNL     1       1.497  11.640  19.753  0.00  0.00    +0.000 HD
ENDBRANCH  19  24
ENDBRANCH  16  17
ENDBRANCH  15  16
ENDBRANCH  14  15
ENDBRANCH   6  14
TORSDOF 6
ENDMDL
MODEL 7
REMARK VINA RESULT:      -7.5      1.273      1.887
REMARK  Name = 
REMARK  7 active torsions:
REMARK  status: ('A' for Active; 'I' for Inactive)
REMARK    1  A    between atoms: C_1  and  C_2
REMARK    2  A    between atoms: C_5  and  C_6
REMARK    3  A    between atoms: N_13  and  C_14
REMARK    4  A    between atoms: C_14  and  C_15
REMARK    5  A    between atoms: C_15  and  C_16
REMARK    6  A    between atoms: C_16  and  C_17
REMARK    7  A    between atoms: C_19  and  O_20
REMARK                            x       y       z     vdW  Elec       q    Type
REMARK                         _______ _______ _______ _____ _____    ______ ____
ROOT
ATOM      1  C   UNL     1       1.122   3.260  20.807  0.00  0.00    +0.000 C 
ATOM      2  C   UNL     1       2.068   3.029  19.676  0.00  0.00    +0.000 A 
ATOM      3  C   UNL     1       2.099   1.900  18.885  0.00  0.00    +0.000 A 
ATOM      4  C   UNL     1       3.087   2.082  17.911  0.00  0.00    +0.000 A 
ATOM      5  C   UNL     1       3.676   3.327  18.096  0.00  0.00    +0.000 A 
ATOM      6  N   UNL     1       3.063   3.887  19.227  0.00  0.00    +0.000 N 
ENDROOT
BRANCH   5   7
ATOM      7  C   UNL     1       4.769   3.909  17.286  0.00  0.00    +0.000 A 
ATOM      8  C   UNL     1       6.031   4.220  17.820  0.00  0.00    +0.000 A 
ATOM      9  C   UNL     1       7.055   4.717  17.010  0.00  0.00    +0.000 A 
ATOM     10  C   UNL     1       6.805   4.973  15.671  0.00  0.00    +0.000 A 
ATOM     11  F   UNL     1       7.782   5.463  14.899  0.00  0.00    +0.000 F 
ATOM     12  C   UNL     1       5.552   4.737  15.124  0.00  0.00    +0.000 A 
ATOM     13  C   UNL     1       4.544   4.198  15.928  0.00  0.00    +0.000 A 
ENDBRANCH   5   7
BRANCH   6  14
ATOM     14  C   UNL     1       3.423   5.200  19.771  0.00  0.00    +0.000 C 
BRANCH  14  15
ATOM     15  C   UNL     1       2.464   6.352  19.517  0.00  0.00    +0.000 C 
BRANCH  15  16
ATOM     16  C   UNL     1       1.634   6.734  20.742  0.00  0.00    +0.000 C 
BRANCH  16  17
ATOM     17  C   UNL     1       1.408   8.256  20.809  0.00  0.00    +0.000 C 
ATOM     18  C   UNL     1       0.035   8.613  21.364  0.00  0.00    +0.000 C 
ATOM     19  C   UNL     1      -0.229  10.088  21.200  0.00  0.00    +0.000 C 
ATOM     20  C   UNL     1      -0.109  10.491  19.749  0.00  0.00    +0.000 C 
ATOM     21  C   UNL     1       1.113   9.953  19.057  0.00  0.00    +0.000 C 
ATOM     22  O   UNL     1       1.571  10.508  18.062  0.00  0.00    +0.000 OA
ATOM     23  O   UNL     1       1.617   8.773  19.480  0.00  0.00    +0.000 OA
BRANCH  19  24
ATOM     24  O   UNL     1       0.629  10.848  22.044  0.00  0.00    +0.000 OA
ATOM     25  H   UNL     1       1.430  10.340  22.260  0.00  0.00    +0.000 HD
ENDBRANCH  19  24
ENDBRANCH  16  17
ENDBRANCH  15  16
ENDBRANCH  14  15
ENDBRANCH   6  14
TORSDOF 6
ENDMDL
MODEL 8
REMARK VINA RESULT:      -7.5      1.198      1.646
REMARK  Name = 
REMARK  7 active torsions:
REMARK  status: ('A' for Active; 'I' for Inactive)
REMARK    1  A    between atoms: C_1  and  C_2
REMARK    2  A    between atoms: C_5  and  C_6
REMARK    3  A    between atoms: N_13  and  C_14
REMARK    4  A    between atoms: C_14  and  C_15
REMARK    5  A    between atoms: C_15  and  C_16
REMARK    6  A    between atoms: C_16  and  C_17
REMARK    7  A    between atoms: C_19  and  O_20
REMARK                            x       y       z     vdW  Elec       q    Type
REMARK                         _______ _______ _______ _____ _____    ______ ____
ROOT
ATOM      1  C   UNL     1       1.479   4.479  20.801  0.00  0.00    +0.000 C 
ATOM      2  C   UNL     1       2.467   3.943  19.818  0.00  0.00    +0.000 A 
ATOM      3  C   UNL     1       2.705   2.606  19.581  0.00  0.00    +0.000 A 
ATOM      4  C   UNL     1       3.660   2.513  18.562  0.00  0.00    +0.000 A 
ATOM      5  C   UNL     1       4.020   3.794  18.165  0.00  0.00    +0.000 A 
ATOM      6  N   UNL     1       3.303   4.677  18.987  0.00  0.00    +0.000 N 
ENDROOT
BRANCH   5   7
ATOM      7  C   UNL     1       5.006   4.143  17.118  0.00  0.00    +0.000 A 
ATOM      8  C   UNL     1       4.683   4.194  15.752  0.00  0.00    +0.000 A 
ATOM      9  C   UNL     1       5.628   4.582  14.799  0.00  0.00    +0.000 A 
ATOM     10  C   UNL     1       6.927   4.857  15.197  0.00  0.00    +0.000 A 
ATOM     11  F   UNL     1       7.836   5.213  14.282  0.00  0.00    +0.000 F 
ATOM     12  C   UNL     1       7.298   4.755  16.530  0.00  0.00    +0.000 A 
ATOM     13  C   UNL     1       6.338   4.409  17.485  0.00  0.00    +0.000 A 
ENDBRANCH   5   7
BRANCH   6  14
ATOM     14  C   UNL     1       3.421   6.135  18.899  0.00  0.00    +0.000 C 
BRANCH  14  15
ATOM     15  C   UNL     1       2.361   6.879  18.103  0.00  0.00    +0.000 C 
BRANCH  15  16
ATOM     16  C   UNL     1       2.718   8.340  17.830  0.00  0.00    +0.000 C 
BRANCH  16  17
ATOM     17  C   UNL     1       1.581   9.281  18.267  0.00  0.00    +0.000 C 
ATOM     18  C   UNL     1       1.983  10.749  18.186  0.00  0.00    +0.000 C 
ATOM     19  C   UNL     1       0.933  11.616  18.834  0.00  0.00    +0.000 C 
ATOM     20  C   UNL     1       0.704  11.194  20.266  0.00  0.00    +0.000 C 
ATOM     21  C   UNL     1       0.551   9.710  20.457  0.00  0.00    +0.000 C 
ATOM     22  O   UNL     1      -0.044   9.256  21.430  0.00  0.00    +0.000 OA
ATOM     23  O   UNL     1       1.194   8.888  19.599  0.00  0.00    +0.000 OA
BRANCH  19  24
ATOM     24  O   UNL     1      -0.268  11.605  18.069  0.00  0.00    +0.000 OA
ATOM     25  H   UNL     1      -0.933  12.189  18.473  0.00  0.00    +0.000 HD
ENDBRANCH  19  24
ENDBRANCH  16  17
ENDBRANCH  15  16
ENDBRANCH  14  15
ENDBRANCH   6  14
TORSDOF 6
ENDMDL
MODEL 9
REMARK VINA RESULT:      -7.5      1.764      2.546
REMARK  Name = 
REMARK  7 active torsions:
REMARK  status: ('A' for Active; 'I' for Inactive)
REMARK    1  A    between atoms: C_1  and  C_2
REMARK    2  A    between atoms: C_5  and  C_6
REMARK    3  A    between atoms: N_13  and  C_14
REMARK    4  A    between atoms: C_14  and  C_15
REMARK    5  A    between atoms: C_15  and  C_16
REMARK    6  A    between atoms: C_16  and  C_17
REMARK    7  A    between atoms: C_19  and  O_20
REMARK                            x       y       z     vdW  Elec       q    Type
REMARK                         _______ _______ _______ _____ _____    ______ ____
ROOT
ATOM      1  C   UNL     1       0.694   2.911  19.874  0.00  0.00    +0.000 C 
ATOM      2  C   UNL     1       1.862   3.234  19.003  0.00  0.00    +0.000 A 
ATOM      3  C   UNL     1       2.175   2.590  17.825  0.00  0.00    +0.000 A 
ATOM      4  C   UNL     1       3.306   3.209  17.282  0.00  0.00    +0.000 A 
ATOM      5  C   UNL     1       3.702   4.240  18.124  0.00  0.00    +0.000 A 
ATOM      6  N   UNL     1       2.821   4.216  19.216  0.00  0.00    +0.000 N 
ENDROOT
BRANCH   5   7
ATOM      7  C   UNL     1       4.858   5.143  17.924  0.00  0.00    +0.000 A 
ATOM      8  C   UNL     1       4.820   6.251  17.062  0.00  0.00    +0.000 A 
ATOM      9  C   UNL     1       5.915   7.111  16.942  0.00  0.00    +0.000 A 
ATOM     10  C   UNL     1       7.083   6.831  17.633  0.00  0.00    +0.000 A 
ATOM     11  F   UNL     1       8.136   7.647  17.505  0.00  0.00    +0.000 F 
ATOM     12  C   UNL     1       7.177   5.710  18.444  0.00  0.00    +0.000 A 
ATOM     13  C   UNL     1       6.066   4.877  18.595  0.00  0.00    +0.000 A 
ENDBRANCH   5   7
BRANCH   6  14
ATOM     14  C   UNL     1       2.916   5.141  20.349  0.00  0.00    +0.000 C 
BRANCH  14  15
ATOM     15  C   UNL     1       1.925   6.293  20.400  0.00  0.00    +0.000 C 
BRANCH  15  16
ATOM     16  C   UNL     1       2.206   7.384  19.368  0.00  0.00    +0.000 C 
BRANCH  16  17
ATOM     17  C   UNL     1       1.676   8.749  19.843  0.00  0.00    +0.000 C 
ATOM     18  C   UNL     1       0.978   8.660  21.195  0.00  0.00    +0.000 C 
ATOM     19  C   UNL     1       0.281   9.959  21.511  0.00  0.00    +0.000 C 
ATOM     20  C   UNL     1      -0.698  10.317  20.417  0.00  0.00    +0.000 C 
ATOM     21  C   UNL     1      -0.147  10.180  19.025  0.00  0.00    +0.000 C 
ATOM     22  O   UNL     1      -0.631  10.811  18.089  0.00  0.00    +0.000 OA
ATOM     23  O   UNL     1       0.807   9.250  18.806  0.00  0.00    +0.000 OA
BRANCH  19  24
ATOM     24  O   UNL     1       1.230  10.994  21.746  0.00  0.00    +0.000 OA
ATOM     25  H   UNL     1       1.280  11.589  20.977  0.00  0.00    +0.000 HD
ENDBRANCH  19  24
ENDBRANCH  16  17
ENDBRANCH  15  16
ENDBRANCH  14  15
ENDBRANCH   6  14
TORSDOF 6
ENDMDL
