MODEL 1
REMARK VINA RESULT:      -7.4      0.000      0.000
REMARK  Name = 
REMARK  12 active torsions:
REMARK  status: ('A' for Active; 'I' for Inactive)
REMARK    1  A    between atoms: C_1  and  C_2
REMARK    2  A    between atoms: C_2  and  C_3
REMARK    3  A    between atoms: C_3  and  C_4
REMARK    4  A    between atoms: C_4  and  C_5
REMARK    5  A    between atoms: C_5  and  C_6
REMARK    6  A    between atoms: C_6  and  N_7
REMARK    7  A    between atoms: C_8  and  C_10
REMARK    8  A    between atoms: C_10  and  C_11
REMARK    9  A    between atoms: C_12  and  C_13
REMARK   10  A    between atoms: C_15  and  C_17
REMARK   11  A    between atoms: C_27  and  O_28
REMARK   12  A    between atoms: O_28  and  C_29
REMARK                            x       y       z     vdW  Elec       q    Type
REMARK                         _______ _______ _______ _____ _____    ______ ____
ROOT
ATOM      1  C   UNL     1       4.101   5.296  17.631  0.00  0.00    +0.000 A 
ATOM      2  C   UNL     1       3.786   6.623  17.376  0.00  0.00    +0.000 A 
ATOM      3  C   UNL     1       4.415   7.549  16.383  0.00  0.00    +0.000 C 
ATOM      4  N   UNL     1       2.755   7.018  18.232  0.00  0.00    +0.000 N 
ATOM      5  C   UNL     1       2.176   8.320  18.283  0.00  0.00    +0.000 C 
ATOM      6  O   UNL     1       2.212   9.008  17.269  0.00  0.00    +0.000 OA
ATOM      7  C   UNL     1       2.389   5.900  19.000  0.00  0.00    +0.000 A 
ATOM      8  C   UNL     1       1.332   5.690  19.907  0.00  0.00    +0.000 A 
ATOM      9  C   UNL     1       1.257   4.490  20.620  0.00  0.00    +0.000 A 
ATOM     10  C   UNL     1       2.150   3.458  20.377  0.00  0.00    +0.000 A 
ATOM     11  C   UNL     1       3.131   3.625  19.393  0.00  0.00    +0.000 A 
ATOM     12  C   UNL     1       3.261   4.854  18.695  0.00  0.00    +0.000 A 
ENDROOT
BRANCH   5  13
ATOM     13  C   UNL     1       1.504   8.898  19.479  0.00  0.00    +0.000 A 
ATOM     14  C   UNL     1       1.917   8.561  20.772  0.00  0.00    +0.000 A 
ATOM     15  C   UNL     1       1.138   8.933  21.870  0.00  0.00    +0.000 A 
ATOM     16  C   UNL     1      -0.004   9.711  21.672  0.00  0.00    +0.000 A 
ATOM     17 CL   UNL     1      -1.019  10.078  23.011  0.00  0.00    +0.000 Cl
ATOM     18  C   UNL     1      -0.346  10.159  20.398  0.00  0.00    +0.000 A 
ATOM     19  C   UNL     1       0.411   9.755  19.296  0.00  0.00    +0.000 A 
ENDBRANCH   5  13
BRANCH  10  20
ATOM     20  O   UNL     1       2.146   2.243  21.009  0.00  0.00    +0.000 OA
ATOM     21  C   UNL     1       3.371   1.850  21.625  0.00  0.00    +0.000 C 
ENDBRANCH  10  20
BRANCH   1  22
ATOM     22  C   UNL     1       5.102   4.461  16.890  0.00  0.00    +0.000 C 
BRANCH  22  24
ATOM     23  N   UNL     1       6.638   5.280  18.606  0.00  0.00    +0.000 N 
ATOM     24  C   UNL     1       6.519   4.676  17.371  0.00  0.00    +0.000 C 
ATOM     25  O   UNL     1       7.494   4.277  16.729  0.00  0.00    +0.000 OA
ATOM     26  H   UNL     1       5.819   5.692  19.032  0.00  0.00    +0.000 HD
BRANCH  23  27
ATOM     27  C   UNL     1       7.936   5.584  19.160  0.00  0.00    +0.000 C 
BRANCH  27  28
ATOM     28  C   UNL     1       8.338   7.046  18.966  0.00  0.00    +0.000 C 
BRANCH  28  29
ATOM     29  C   UNL     1       7.733   7.629  17.689  0.00  0.00    +0.000 C 
BRANCH  29  30
ATOM     30  C   UNL     1       7.884   9.146  17.641  0.00  0.00    +0.000 C 
BRANCH  30  32
ATOM     31  C   UNL     1       9.492  10.952  18.320  0.00  0.00    +0.000 C 
ATOM     32  C   UNL     1       8.845   9.638  18.722  0.00  0.00    +0.000 C 
ENDBRANCH  30  32
ENDBRANCH  29  30
ENDBRANCH  28  29
ENDBRANCH  27  28
ENDBRANCH  23  27
ENDBRANCH  22  24
ENDBRANCH   1  22
TORSDOF 9
ENDMDL
MODEL 2
REMARK VINA RESULT:      -7.2      3.854      7.535
REMARK  Name = 
REMARK  12 active torsions:
REMARK  status: ('A' for Active; 'I' for Inactive)
REMARK    1  A    between atoms: C_1  and  C_2
REMARK    2  A    between atoms: C_2  and  C_3
REMARK    3  A    between atoms: C_3  and  C_4
REMARK    4  A    between atoms: C_4  and  C_5
REMARK    5  A    between atoms: C_5  and  C_6
REMARK    6  A    between atoms: C_6  and  N_7
REMARK    7  A    between atoms: C_8  and  C_10
REMARK    8  A    between atoms: C_10  and  C_11
REMARK    9  A    between atoms: C_12  and  C_13
REMARK   10  A    between atoms: C_15  and  C_17
REMARK   11  A    between atoms: C_27  and  O_28
REMARK   12  A    between atoms: O_28  and  C_29
REMARK                            x       y       z     vdW  Elec       q    Type
REMARK                         _______ _______ _______ _____ _____    ______ ____
ROOT
ATOM      1  C   UNL     1       0.524  10.767  18.882  0.00  0.00    +0.000 A 
ATOM      2  C   UNL     1       0.713  11.593  19.980  0.00  0.00    +0.000 A 
ATOM      3  C   UNL     1       1.979  11.858  20.733  0.00  0.00    +0.000 C 
ATOM      4  N   UNL     1      -0.511  12.168  20.333  0.00  0.00    +0.000 N 
ATOM      5  C   UNL     1      -0.721  13.058  21.426  0.00  0.00    +0.000 C 
ATOM      6  O   UNL     1       0.225  13.737  21.809  0.00  0.00    +0.000 OA
ATOM      7  C   UNL     1      -1.469  11.728  19.405  0.00  0.00    +0.000 A 
ATOM      8  C   UNL     1      -2.813  12.095  19.198  0.00  0.00    +0.000 A 
ATOM      9  C   UNL     1      -3.580  11.415  18.247  0.00  0.00    +0.000 A 
ATOM     10  C   UNL     1      -3.013  10.450  17.430  0.00  0.00    +0.000 A 
ATOM     11  C   UNL     1      -1.648  10.167  17.558  0.00  0.00    +0.000 A 
ATOM     12  C   UNL     1      -0.862  10.804  18.552  0.00  0.00    +0.000 A 
ENDROOT
BRANCH   5  13
ATOM     13  C   UNL     1      -2.024  13.243  22.124  0.00  0.00    +0.000 A 
ATOM     14  C   UNL     1      -2.458  12.335  23.095  0.00  0.00    +0.000 A 
ATOM     15  C   UNL     1      -3.769  12.401  23.571  0.00  0.00    +0.000 A 
ATOM     16  C   UNL     1      -4.610  13.425  23.135  0.00  0.00    +0.000 A 
ATOM     17 CL   UNL     1      -6.254  13.442  23.638  0.00  0.00    +0.000 Cl
ATOM     18  C   UNL     1      -4.140  14.409  22.266  0.00  0.00    +0.000 A 
ATOM     19  C   UNL     1      -2.841  14.321  21.760  0.00  0.00    +0.000 A 
ENDBRANCH   5  13
BRANCH  10  20
ATOM     20  O   UNL     1      -3.676   9.745  16.460  0.00  0.00    +0.000 OA
ATOM     21  C   UNL     1      -3.243   9.960  15.118  0.00  0.00    +0.000 C 
ENDBRANCH  10  20
BRANCH   1  22
ATOM     22  C   UNL     1       1.589  10.013  18.143  0.00  0.00    +0.000 C 
BRANCH  22  24
ATOM     23  N   UNL     1       2.713   7.846  18.017  0.00  0.00    +0.000 N 
ATOM     24  C   UNL     1       1.906   8.674  18.770  0.00  0.00    +0.000 C 
ATOM     25  O   UNL     1       1.522   8.377  19.904  0.00  0.00    +0.000 OA
ATOM     26  H   UNL     1       2.901   8.086  17.053  0.00  0.00    +0.000 HD
BRANCH  23  27
ATOM     27  C   UNL     1       3.053   6.521  18.480  0.00  0.00    +0.000 C 
BRANCH  27  28
ATOM     28  C   UNL     1       2.152   5.435  17.893  0.00  0.00    +0.000 C 
BRANCH  28  29
ATOM     29  C   UNL     1       2.108   4.198  18.789  0.00  0.00    +0.000 C 
BRANCH  29  30
ATOM     30  C   UNL     1       1.406   4.491  20.112  0.00  0.00    +0.000 C 
BRANCH  30  32
ATOM     31  C   UNL     1       2.436   2.746  21.595  0.00  0.00    +0.000 C 
ATOM     32  C   UNL     1       1.165   3.207  20.903  0.00  0.00    +0.000 C 
ENDBRANCH  30  32
ENDBRANCH  29  30
ENDBRANCH  28  29
ENDBRANCH  27  28
ENDBRANCH  23  27
ENDBRANCH  22  24
ENDBRANCH   1  22
TORSDOF 9
ENDMDL
MODEL 3
REMARK VINA RESULT:      -7.0      2.756      4.442
REMARK  Name = 
REMARK  12 active torsions:
REMARK  status: ('A' for Active; 'I' for Inactive)
REMARK    1  A    between atoms: C_1  and  C_2
REMARK    2  A    between atoms: C_2  and  C_3
REMARK    3  A    between atoms: C_3  and  C_4
REMARK    4  A    between atoms: C_4  and  C_5
REMARK    5  A    between atoms: C_5  and  C_6
REMARK    6  A    between atoms: C_6  and  N_7
REMARK    7  A    between atoms: C_8  and  C_10
REMARK    8  A    between atoms: C_10  and  C_11
REMARK    9  A    between atoms: C_12  and  C_13
REMARK   10  A    between atoms: C_15  and  C_17
REMARK   11  A    between atoms: C_27  and  O_28
REMARK   12  A    between atoms: O_28  and  C_29
REMARK                            x       y       z     vdW  Elec       q    Type
REMARK                         _______ _______ _______ _____ _____    ______ ____
ROOT
ATOM      1  C   UNL     1       4.692   5.635  18.032  0.00  0.00    +0.000 A 
ATOM      2  C   UNL     1       4.223   6.878  17.633  0.00  0.00    +0.000 A 
ATOM      3  C   UNL     1       4.843   7.834  16.663  0.00  0.00    +0.000 C 
ATOM      4  N   UNL     1       3.032   7.153  18.310  0.00  0.00    +0.000 N 
ATOM      5  C   UNL     1       2.264   8.348  18.180  0.00  0.00    +0.000 C 
ATOM      6  O   UNL     1       2.342   8.972  17.129  0.00  0.00    +0.000 OA
ATOM      7  C   UNL     1       2.730   6.038  19.109  0.00  0.00    +0.000 A 
ATOM      8  C   UNL     1       1.597   5.714  19.881  0.00  0.00    +0.000 A 
ATOM      9  C   UNL     1       1.600   4.561  20.670  0.00  0.00    +0.000 A 
ATOM     10  C   UNL     1       2.663   3.672  20.630  0.00  0.00    +0.000 A 
ATOM     11  C   UNL     1       3.739   3.935  19.776  0.00  0.00    +0.000 A 
ATOM     12  C   UNL     1       3.783   5.127  19.007  0.00  0.00    +0.000 A 
ENDROOT
BRANCH   5  13
ATOM     13  C   UNL     1       1.348   8.879  19.227  0.00  0.00    +0.000 A 
ATOM     14  C   UNL     1       0.258   9.688  18.890  0.00  0.00    +0.000 A 
ATOM     15  C   UNL     1      -0.449  10.354  19.893  0.00  0.00    +0.000 A 
ATOM     16  C   UNL     1      -0.116  10.139  21.230  0.00  0.00    +0.000 A 
ATOM     17 CL   UNL     1      -0.916  11.040  22.457  0.00  0.00    +0.000 Cl
ATOM     18  C   UNL     1       0.884   9.232  21.576  0.00  0.00    +0.000 A 
ATOM     19  C   UNL     1       1.618   8.596  20.573  0.00  0.00    +0.000 A 
ENDBRANCH   5  13
BRANCH  10  20
ATOM     20  O   UNL     1       2.749   2.509  21.351  0.00  0.00    +0.000 OA
ATOM     21  C   UNL     1       1.574   2.121  22.060  0.00  0.00    +0.000 C 
ENDBRANCH  10  20
BRANCH   1  22
ATOM     22  C   UNL     1       5.903   4.928  17.500  0.00  0.00    +0.000 C 
BRANCH  22  24
ATOM     23  N   UNL     1       6.430   4.222  15.220  0.00  0.00    +0.000 N 
ATOM     24  C   UNL     1       5.597   4.052  16.307  0.00  0.00    +0.000 C 
ATOM     25  O   UNL     1       4.705   3.200  16.335  0.00  0.00    +0.000 OA
ATOM     26  H   UNL     1       7.064   5.009  15.205  0.00  0.00    +0.000 HD
BRANCH  23  27
ATOM     27  C   UNL     1       6.217   3.478  14.000  0.00  0.00    +0.000 C 
BRANCH  27  28
ATOM     28  C   UNL     1       5.105   4.066  13.132  0.00  0.00    +0.000 C 
BRANCH  28  29
ATOM     29  C   UNL     1       4.917   3.265  11.844  0.00  0.00    +0.000 C 
BRANCH  29  30
ATOM     30  C   UNL     1       3.525   3.474  11.254  0.00  0.00    +0.000 C 
BRANCH  30  32
ATOM     31  C   UNL     1       2.377   4.617   9.334  0.00  0.00    +0.000 C 
ATOM     32  C   UNL     1       3.605   3.837   9.772  0.00  0.00    +0.000 C 
ENDBRANCH  30  32
ENDBRANCH  29  30
ENDBRANCH  28  29
ENDBRANCH  27  28
ENDBRANCH  23  27
ENDBRANCH  22  24
ENDBRANCH   1  22
TORSDOF 9
ENDMDL
MODEL 4
REMARK VINA RESULT:      -7.0      3.953      7.188
REMARK  Name = 
REMARK  12 active torsions:
REMARK  status: ('A' for Active; 'I' for Inactive)
REMARK    1  A    between atoms: C_1  and  C_2
REMARK    2  A    between atoms: C_2  and  C_3
REMARK    3  A    between atoms: C_3  and  C_4
REMARK    4  A    between atoms: C_4  and  C_5
REMARK    5  A    between atoms: C_5  and  C_6
REMARK    6  A    between atoms: C_6  and  N_7
REMARK    7  A    between atoms: C_8  and  C_10
REMARK    8  A    between atoms: C_10  and  C_11
REMARK    9  A    between atoms: C_12  and  C_13
REMARK   10  A    between atoms: C_15  and  C_17
REMARK   11  A    between atoms: C_27  and  O_28
REMARK   12  A    between atoms: O_28  and  C_29
REMARK                            x       y       z     vdW  Elec       q    Type
REMARK                         _______ _______ _______ _____ _____    ______ ____
ROOT
ATOM      1  C   UNL     1       0.443  10.785  18.817  0.00  0.00    +0.000 A 
ATOM      2  C   UNL     1       0.464  11.645  19.906  0.00  0.00    +0.000 A 
ATOM      3  C   UNL     1       1.620  11.984  20.795  0.00  0.00    +0.000 C 
ATOM      4  N   UNL     1      -0.816  12.172  20.095  0.00  0.00    +0.000 N 
ATOM      5  C   UNL     1      -1.193  13.077  21.131  0.00  0.00    +0.000 C 
ATOM      6  O   UNL     1      -0.328  13.806  21.603  0.00  0.00    +0.000 OA
ATOM      7  C   UNL     1      -1.637  11.667  19.074  0.00  0.00    +0.000 A 
ATOM      8  C   UNL     1      -2.962  11.968  18.699  0.00  0.00    +0.000 A 
ATOM      9  C   UNL     1      -3.580  11.233  17.684  0.00  0.00    +0.000 A 
ATOM     10  C   UNL     1      -2.879  10.276  16.967  0.00  0.00    +0.000 A 
ATOM     11  C   UNL     1      -1.529  10.058  17.263  0.00  0.00    +0.000 A 
ATOM     12  C   UNL     1      -0.895  10.753  18.325  0.00  0.00    +0.000 A 
ENDROOT
BRANCH   5  13
ATOM     13  C   UNL     1      -2.576  13.218  21.664  0.00  0.00    +0.000 A 
ATOM     14  C   UNL     1      -3.446  14.192  21.164  0.00  0.00    +0.000 A 
ATOM     15  C   UNL     1      -4.648  14.455  21.824  0.00  0.00    +0.000 A 
ATOM     16  C   UNL     1      -5.010  13.685  22.929  0.00  0.00    +0.000 A 
ATOM     17 CL   UNL     1      -6.437  14.078  23.805  0.00  0.00    +0.000 Cl
ATOM     18  C   UNL     1      -4.207  12.626  23.352  0.00  0.00    +0.000 A 
ATOM     19  C   UNL     1      -2.986  12.389  22.716  0.00  0.00    +0.000 A 
ENDBRANCH   5  13
BRANCH  10  20
ATOM     20  O   UNL     1      -3.393   9.520  15.946  0.00  0.00    +0.000 OA
ATOM     21  C   UNL     1      -3.269  10.067  14.635  0.00  0.00    +0.000 C 
ENDBRANCH  10  20
BRANCH   1  22
ATOM     22  C   UNL     1       1.619  10.064  18.231  0.00  0.00    +0.000 C 
BRANCH  22  24
ATOM     23  N   UNL     1       2.403   7.763  17.974  0.00  0.00    +0.000 N 
ATOM     24  C   UNL     1       1.816   8.684  18.817  0.00  0.00    +0.000 C 
ATOM     25  O   UNL     1       1.530   8.426  19.989  0.00  0.00    +0.000 OA
ATOM     26  H   UNL     1       2.508   7.990  16.995  0.00  0.00    +0.000 HD
BRANCH  23  27
ATOM     27  C   UNL     1       2.606   6.396  18.396  0.00  0.00    +0.000 C 
BRANCH  27  28
ATOM     28  C   UNL     1       3.934   5.815  17.911  0.00  0.00    +0.000 C 
BRANCH  28  29
ATOM     29  C   UNL     1       4.581   6.705  16.851  0.00  0.00    +0.000 C 
BRANCH  29  30
ATOM     30  C   UNL     1       5.948   6.171  16.432  0.00  0.00    +0.000 C 
BRANCH  30  32
ATOM     31  C   UNL     1       5.681   4.230  14.861  0.00  0.00    +0.000 C 
ATOM     32  C   UNL     1       5.927   4.649  16.300  0.00  0.00    +0.000 C 
ENDBRANCH  30  32
ENDBRANCH  29  30
ENDBRANCH  28  29
ENDBRANCH  27  28
ENDBRANCH  23  27
ENDBRANCH  22  24
ENDBRANCH   1  22
TORSDOF 9
ENDMDL
MODEL 5
REMARK VINA RESULT:      -7.0      0.550      1.188
REMARK  Name = 
REMARK  12 active torsions:
REMARK  status: ('A' for Active; 'I' for Inactive)
REMARK    1  A    between atoms: C_1  and  C_2
REMARK    2  A    between atoms: C_2  and  C_3
REMARK    3  A    between atoms: C_3  and  C_4
REMARK    4  A    between atoms: C_4  and  C_5
REMARK    5  A    between atoms: C_5  and  C_6
REMARK    6  A    between atoms: C_6  and  N_7
REMARK    7  A    between atoms: C_8  and  C_10
REMARK    8  A    between atoms: C_10  and  C_11
REMARK    9  A    between atoms: C_12  and  C_13
REMARK   10  A    between atoms: C_15  and  C_17
REMARK   11  A    between atoms: C_27  and  O_28
REMARK   12  A    between atoms: O_28  and  C_29
REMARK                            x       y       z     vdW  Elec       q    Type
REMARK                         _______ _______ _______ _____ _____    ______ ____
ROOT
ATOM      1  C   UNL     1       4.178   5.266  17.734  0.00  0.00    +0.000 A 
ATOM      2  C   UNL     1       3.884   6.601  17.496  0.00  0.00    +0.000 A 
ATOM      3  C   UNL     1       4.625   7.573  16.633  0.00  0.00    +0.000 C 
ATOM      4  N   UNL     1       2.748   6.954  18.229  0.00  0.00    +0.000 N 
ATOM      5  C   UNL     1       2.153   8.250  18.259  0.00  0.00    +0.000 C 
ATOM      6  O   UNL     1       2.311   8.980  17.288  0.00  0.00    +0.000 OA
ATOM      7  C   UNL     1       2.298   5.803  18.896  0.00  0.00    +0.000 A 
ATOM      8  C   UNL     1       1.136   5.548  19.650  0.00  0.00    +0.000 A 
ATOM      9  C   UNL     1       0.983   4.318  20.296  0.00  0.00    +0.000 A 
ATOM     10  C   UNL     1       1.911   3.302  20.127  0.00  0.00    +0.000 A 
ATOM     11  C   UNL     1       3.008   3.517  19.285  0.00  0.00    +0.000 A 
ATOM     12  C   UNL     1       3.213   4.775  18.662  0.00  0.00    +0.000 A 
ENDROOT
BRANCH   5  13
ATOM     13  C   UNL     1       1.327   8.772  19.382  0.00  0.00    +0.000 A 
ATOM     14  C   UNL     1       0.238   9.617  19.146  0.00  0.00    +0.000 A 
ATOM     15  C   UNL     1      -0.380  10.270  20.214  0.00  0.00    +0.000 A 
ATOM     16  C   UNL     1       0.040  10.008  21.518  0.00  0.00    +0.000 A 
ATOM     17 CL   UNL     1      -0.649  10.890  22.823  0.00  0.00    +0.000 Cl
ATOM     18  C   UNL     1       1.038   9.066  21.767  0.00  0.00    +0.000 A 
ATOM     19  C   UNL     1       1.683   8.442  20.697  0.00  0.00    +0.000 A 
ENDBRANCH   5  13
BRANCH  10  20
ATOM     20  O   UNL     1       1.839   2.061  20.702  0.00  0.00    +0.000 OA
ATOM     21  C   UNL     1       2.394   1.940  22.010  0.00  0.00    +0.000 C 
ENDBRANCH  10  20
BRANCH   1  22
ATOM     22  C   UNL     1       5.275   4.470  17.094  0.00  0.00    +0.000 C 
BRANCH  22  24
ATOM     23  N   UNL     1       6.794   5.858  18.412  0.00  0.00    +0.000 N 
ATOM     24  C   UNL     1       6.639   5.096  17.272  0.00  0.00    +0.000 C 
ATOM     25  O   UNL     1       7.564   4.882  16.484  0.00  0.00    +0.000 OA
ATOM     26  H   UNL     1       5.978   6.097  18.959  0.00  0.00    +0.000 HD
BRANCH  23  27
ATOM     27  C   UNL     1       8.034   6.549  18.679  0.00  0.00    +0.000 C 
BRANCH  27  28
ATOM     28  C   UNL     1       8.120   7.907  17.982  0.00  0.00    +0.000 C 
BRANCH  28  29
ATOM     29  C   UNL     1       8.810   8.947  18.865  0.00  0.00    +0.000 C 
BRANCH  29  30
ATOM     30  C   UNL     1       8.730  10.342  18.251  0.00  0.00    +0.000 C 
BRANCH  30  32
ATOM     31  C   UNL     1      10.788  11.675  17.708  0.00  0.00    +0.000 C 
ATOM     32  C   UNL     1       9.827  11.250  18.804  0.00  0.00    +0.000 C 
ENDBRANCH  30  32
ENDBRANCH  29  30
ENDBRANCH  28  29
ENDBRANCH  27  28
ENDBRANCH  23  27
ENDBRANCH  22  24
ENDBRANCH   1  22
TORSDOF 9
ENDMDL
MODEL 6
REMARK VINA RESULT:      -7.0      4.053      7.737
REMARK  Name = 
REMARK  12 active torsions:
REMARK  status: ('A' for Active; 'I' for Inactive)
REMARK    1  A    between atoms: C_1  and  C_2
REMARK    2  A    between atoms: C_2  and  C_3
REMARK    3  A    between atoms: C_3  and  C_4
REMARK    4  A    between atoms: C_4  and  C_5
REMARK    5  A    between atoms: C_5  and  C_6
REMARK    6  A    between atoms: C_6  and  N_7
REMARK    7  A    between atoms: C_8  and  C_10
REMARK    8  A    between atoms: C_10  and  C_11
REMARK    9  A    between atoms: C_12  and  C_13
REMARK   10  A    between atoms: C_15  and  C_17
REMARK   11  A    between atoms: C_27  and  O_28
REMARK   12  A    between atoms: O_28  and  C_29
REMARK                            x       y       z     vdW  Elec       q    Type
REMARK                         _______ _______ _______ _____ _____    ______ ____
ROOT
ATOM      1  C   UNL     1       0.322  10.782  18.902  0.00  0.00    +0.000 A 
ATOM      2  C   UNL     1       0.333  11.667  19.970  0.00  0.00    +0.000 A 
ATOM      3  C   UNL     1       1.468  11.996  20.888  0.00  0.00    +0.000 C 
ATOM      4  N   UNL     1      -0.937  12.235  20.104  0.00  0.00    +0.000 N 
ATOM      5  C   UNL     1      -1.320  13.176  21.105  0.00  0.00    +0.000 C 
ATOM      6  O   UNL     1      -0.451  13.892  21.587  0.00  0.00    +0.000 OA
ATOM      7  C   UNL     1      -1.739  11.729  19.068  0.00  0.00    +0.000 A 
ATOM      8  C   UNL     1      -3.041  12.058  18.643  0.00  0.00    +0.000 A 
ATOM      9  C   UNL     1      -3.648  11.315  17.626  0.00  0.00    +0.000 A 
ATOM     10  C   UNL     1      -2.952  10.321  16.956  0.00  0.00    +0.000 A 
ATOM     11  C   UNL     1      -1.620  10.072  17.301  0.00  0.00    +0.000 A 
ATOM     12  C   UNL     1      -1.000  10.775  18.366  0.00  0.00    +0.000 A 
ENDROOT
BRANCH   5  13
ATOM     13  C   UNL     1      -2.715  13.370  21.588  0.00  0.00    +0.000 A 
ATOM     14  C   UNL     1      -3.521  14.391  21.076  0.00  0.00    +0.000 A 
ATOM     15  C   UNL     1      -4.735  14.696  21.696  0.00  0.00    +0.000 A 
ATOM     16  C   UNL     1      -5.173  13.922  22.771  0.00  0.00    +0.000 A 
ATOM     17 CL   UNL     1      -6.614  14.363  23.600  0.00  0.00    +0.000 Cl
ATOM     18  C   UNL     1      -4.434  12.821  23.201  0.00  0.00    +0.000 A 
ATOM     19  C   UNL     1      -3.202  12.540  22.607  0.00  0.00    +0.000 A 
ENDBRANCH   5  13
BRANCH  10  20
ATOM     20  O   UNL     1      -3.454   9.554  15.937  0.00  0.00    +0.000 OA
ATOM     21  C   UNL     1      -3.140   9.984  14.613  0.00  0.00    +0.000 C 
ENDBRANCH  10  20
BRANCH   1  22
ATOM     22  C   UNL     1       1.495  10.013  18.372  0.00  0.00    +0.000 C 
BRANCH  22  24
ATOM     23  N   UNL     1       2.400   7.742  18.356  0.00  0.00    +0.000 N 
ATOM     24  C   UNL     1       1.696   8.689  19.073  0.00  0.00    +0.000 C 
ATOM     25  O   UNL     1       1.314   8.498  20.230  0.00  0.00    +0.000 OA
ATOM     26  H   UNL     1       2.585   7.906  17.376  0.00  0.00    +0.000 HD
BRANCH  23  27
ATOM     27  C   UNL     1       2.621   6.420  18.893  0.00  0.00    +0.000 C 
BRANCH  27  28
ATOM     28  C   UNL     1       2.159   5.310  17.950  0.00  0.00    +0.000 C 
BRANCH  28  29
ATOM     29  C   UNL     1       2.828   3.976  18.284  0.00  0.00    +0.000 C 
BRANCH  29  30
ATOM     30  C   UNL     1       3.076   3.836  19.784  0.00  0.00    +0.000 C 
BRANCH  30  32
ATOM     31  C   UNL     1       1.452   2.825  21.411  0.00  0.00    +0.000 C 
ATOM     32  C   UNL     1       2.472   2.541  20.323  0.00  0.00    +0.000 C 
ENDBRANCH  30  32
ENDBRANCH  29  30
ENDBRANCH  28  29
ENDBRANCH  27  28
ENDBRANCH  23  27
ENDBRANCH  22  24
ENDBRANCH   1  22
TORSDOF 9
ENDMDL
MODEL 7
REMARK VINA RESULT:      -6.9      4.218      7.848
REMARK  Name = 
REMARK  12 active torsions:
REMARK  status: ('A' for Active; 'I' for Inactive)
REMARK    1  A    between atoms: C_1  and  C_2
REMARK    2  A    between atoms: C_2  and  C_3
REMARK    3  A    between atoms: C_3  and  C_4
REMARK    4  A    between atoms: C_4  and  C_5
REMARK    5  A    between atoms: C_5  and  C_6
REMARK    6  A    between atoms: C_6  and  N_7
REMARK    7  A    between atoms: C_8  and  C_10
REMARK    8  A    between atoms: C_10  and  C_11
REMARK    9  A    between atoms: C_12  and  C_13
REMARK   10  A    between atoms: C_15  and  C_17
REMARK   11  A    between atoms: C_27  and  O_28
REMARK   12  A    between atoms: O_28  and  C_29
REMARK                            x       y       z     vdW  Elec       q    Type
REMARK                         _______ _______ _______ _____ _____    ______ ____
ROOT
ATOM      1  C   UNL     1       0.280  10.620  18.943  0.00  0.00    +0.000 A 
ATOM      2  C   UNL     1       0.265  11.556  19.967  0.00  0.00    +0.000 A 
ATOM      3  C   UNL     1       1.349  11.871  20.950  0.00  0.00    +0.000 C 
ATOM      4  N   UNL     1      -0.977  12.195  19.981  0.00  0.00    +0.000 N 
ATOM      5  C   UNL     1      -1.378  13.204  20.906  0.00  0.00    +0.000 C 
ATOM      6  O   UNL     1      -0.506  13.897  21.418  0.00  0.00    +0.000 OA
ATOM      7  C   UNL     1      -1.731  11.680  18.913  0.00  0.00    +0.000 A 
ATOM      8  C   UNL     1      -2.979  12.055  18.379  0.00  0.00    +0.000 A 
ATOM      9  C   UNL     1      -3.553  11.295  17.356  0.00  0.00    +0.000 A 
ATOM     10  C   UNL     1      -2.868  10.233  16.785  0.00  0.00    +0.000 A 
ATOM     11  C   UNL     1      -1.579   9.933  17.239  0.00  0.00    +0.000 A 
ATOM     12  C   UNL     1      -0.998  10.655  18.313  0.00  0.00    +0.000 A 
ENDROOT
BRANCH   5  13
ATOM     13  C   UNL     1      -2.790  13.495  21.276  0.00  0.00    +0.000 A 
ATOM     14  C   UNL     1      -3.541  12.586  22.029  0.00  0.00    +0.000 A 
ATOM     15  C   UNL     1      -4.917  12.773  22.173  0.00  0.00    +0.000 A 
ATOM     16  C   UNL     1      -5.518  13.911  21.634  0.00  0.00    +0.000 A 
ATOM     17 CL   UNL     1      -7.227  14.087  21.719  0.00  0.00    +0.000 Cl
ATOM     18  C   UNL     1      -4.752  14.885  20.996  0.00  0.00    +0.000 A 
ATOM     19  C   UNL     1      -3.382  14.680  20.818  0.00  0.00    +0.000 A 
ENDBRANCH   5  13
BRANCH  10  20
ATOM     20  O   UNL     1      -3.338   9.444  15.769  0.00  0.00    +0.000 OA
ATOM     21  C   UNL     1      -3.557  10.093  14.518  0.00  0.00    +0.000 C 
ENDBRANCH  10  20
BRANCH   1  22
ATOM     22  C   UNL     1       1.443   9.765  18.537  0.00  0.00    +0.000 C 
BRANCH  22  24
ATOM     23  N   UNL     1       2.478   7.586  18.930  0.00  0.00    +0.000 N 
ATOM     24  C   UNL     1       1.611   8.545  19.413  0.00  0.00    +0.000 C 
ATOM     25  O   UNL     1       1.061   8.450  20.513  0.00  0.00    +0.000 OA
ATOM     26  H   UNL     1       2.808   7.657  17.977  0.00  0.00    +0.000 HD
BRANCH  23  27
ATOM     27  C   UNL     1       2.693   6.351  19.648  0.00  0.00    +0.000 C 
BRANCH  27  28
ATOM     28  C   UNL     1       1.689   5.262  19.271  0.00  0.00    +0.000 C 
BRANCH  28  29
ATOM     29  C   UNL     1       1.412   4.324  20.446  0.00  0.00    +0.000 C 
BRANCH  29  30
ATOM     30  C   UNL     1       1.606   2.862  20.052  0.00  0.00    +0.000 C 
BRANCH  30  32
ATOM     31  C   UNL     1       2.432   2.130  17.796  0.00  0.00    +0.000 C 
ATOM     32  C   UNL     1       1.238   2.634  18.587  0.00  0.00    +0.000 C 
ENDBRANCH  30  32
ENDBRANCH  29  30
ENDBRANCH  28  29
ENDBRANCH  27  28
ENDBRANCH  23  27
ENDBRANCH  22  24
ENDBRANCH   1  22
TORSDOF 9
ENDMDL
MODEL 8
REMARK VINA RESULT:      -6.9      2.371      3.998
REMARK  Name = 
REMARK  12 active torsions:
REMARK  status: ('A' for Active; 'I' for Inactive)
REMARK    1  A    between atoms: C_1  and  C_2
REMARK    2  A    between atoms: C_2  and  C_3
REMARK    3  A    between atoms: C_3  and  C_4
REMARK    4  A    between atoms: C_4  and  C_5
REMARK    5  A    between atoms: C_5  and  C_6
REMARK    6  A    between atoms: C_6  and  N_7
REMARK    7  A    between atoms: C_8  and  C_10
REMARK    8  A    between atoms: C_10  and  C_11
REMARK    9  A    between atoms: C_12  and  C_13
REMARK   10  A    between atoms: C_15  and  C_17
REMARK   11  A    between atoms: C_27  and  O_28
REMARK   12  A    between atoms: O_28  and  C_29
REMARK                            x       y       z     vdW  Elec       q    Type
REMARK                         _______ _______ _______ _____ _____    ______ ____
ROOT
ATOM      1  C   UNL     1       4.992   5.455  18.787  0.00  0.00    +0.000 A 
ATOM      2  C   UNL     1       4.687   6.597  18.062  0.00  0.00    +0.000 A 
ATOM      3  C   UNL     1       5.564   7.356  17.116  0.00  0.00    +0.000 C 
ATOM      4  N   UNL     1       3.379   6.990  18.361  0.00  0.00    +0.000 N 
ATOM      5  C   UNL     1       2.718   8.135  17.827  0.00  0.00    +0.000 C 
ATOM      6  O   UNL     1       3.076   8.550  16.731  0.00  0.00    +0.000 OA
ATOM      7  C   UNL     1       2.845   6.045  19.252  0.00  0.00    +0.000 A 
ATOM      8  C   UNL     1       1.546   5.868  19.765  0.00  0.00    +0.000 A 
ATOM      9  C   UNL     1       1.308   4.884  20.730  0.00  0.00    +0.000 A 
ATOM     10  C   UNL     1       2.310   4.009  21.119  0.00  0.00    +0.000 A 
ATOM     11  C   UNL     1       3.572   4.112  20.523  0.00  0.00    +0.000 A 
ATOM     12  C   UNL     1       3.852   5.136  19.583  0.00  0.00    +0.000 A 
ENDROOT
BRANCH   5  13
ATOM     13  C   UNL     1       1.597   8.850  18.498  0.00  0.00    +0.000 A 
ATOM     14  C   UNL     1       0.492   9.304  17.771  0.00  0.00    +0.000 A 
ATOM     15  C   UNL     1      -0.431  10.161  18.373  0.00  0.00    +0.000 A 
ATOM     16  C   UNL     1      -0.289  10.489  19.721  0.00  0.00    +0.000 A 
ATOM     17 CL   UNL     1      -1.365  11.627  20.433  0.00  0.00    +0.000 Cl
ATOM     18  C   UNL     1       0.737   9.933  20.484  0.00  0.00    +0.000 A 
ATOM     19  C   UNL     1       1.683   9.108  19.872  0.00  0.00    +0.000 A 
ENDBRANCH   5  13
BRANCH  10  20
ATOM     20  O   UNL     1       2.168   3.005  22.040  0.00  0.00    +0.000 OA
ATOM     21  C   UNL     1       2.625   1.714  21.639  0.00  0.00    +0.000 C 
ENDBRANCH  10  20
BRANCH   1  22
ATOM     22  C   UNL     1       6.265   4.666  18.711  0.00  0.00    +0.000 C 
BRANCH  22  24
ATOM     23  N   UNL     1       5.599   3.821  16.516  0.00  0.00    +0.000 N 
ATOM     24  C   UNL     1       6.638   4.286  17.296  0.00  0.00    +0.000 C 
ATOM     25  O   UNL     1       7.780   4.445  16.857  0.00  0.00    +0.000 OA
ATOM     26  H   UNL     1       4.716   3.600  16.955  0.00  0.00    +0.000 HD
BRANCH  23  27
ATOM     27  C   UNL     1       5.830   3.380  15.160  0.00  0.00    +0.000 C 
BRANCH  27  28
ATOM     28  C   UNL     1       6.289   4.509  14.238  0.00  0.00    +0.000 C 
BRANCH  28  29
ATOM     29  C   UNL     1       6.611   3.992  12.836  0.00  0.00    +0.000 C 
BRANCH  29  30
ATOM     30  C   UNL     1       5.401   3.314  12.200  0.00  0.00    +0.000 C 
BRANCH  30  32
ATOM     31  C   UNL     1       7.235   1.976  11.124  0.00  0.00    +0.000 C 
ATOM     32  C   UNL     1       5.785   1.972  11.579  0.00  0.00    +0.000 C 
ENDBRANCH  30  32
ENDBRANCH  29  30
ENDBRANCH  28  29
ENDBRANCH  27  28
ENDBRANCH  23  27
ENDBRANCH  22  24
ENDBRANCH   1  22
TORSDOF 9
ENDMDL
MODEL 9
REMARK VINA RESULT:      -6.9      4.171      7.653
REMARK  Name = 
REMARK  12 active torsions:
REMARK  status: ('A' for Active; 'I' for Inactive)
REMARK    1  A    between atoms: C_1  and  C_2
REMARK    2  A    between atoms: C_2  and  C_3
REMARK    3  A    between atoms: C_3  and  C_4
REMARK    4  A    between atoms: C_4  and  C_5
REMARK    5  A    between atoms: C_5  and  C_6
REMARK    6  A    between atoms: C_6  and  N_7
REMARK    7  A    between atoms: C_8  and  C_10
REMARK    8  A    between atoms: C_10  and  C_11
REMARK    9  A    between atoms: C_12  and  C_13
REMARK   10  A    between atoms: C_15  and  C_17
REMARK   11  A    between atoms: C_27  and  O_28
REMARK   12  A    between atoms: O_28  and  C_29
REMARK                            x       y       z     vdW  Elec       q    Type
REMARK                         _______ _______ _______ _____ _____    ______ ____
ROOT
ATOM      1  C   UNL     1       0.308  10.413  18.905  0.00  0.00    +0.000 A 
ATOM      2  C   UNL     1       0.348  11.334  19.941  0.00  0.00    +0.000 A 
ATOM      3  C   UNL     1       1.461  11.594  20.907  0.00  0.00    +0.000 C 
ATOM      4  N   UNL     1      -0.869  12.019  19.988  0.00  0.00    +0.000 N 
ATOM      5  C   UNL     1      -1.214  13.029  20.934  0.00  0.00    +0.000 C 
ATOM      6  O   UNL     1      -0.307  13.681  21.438  0.00  0.00    +0.000 OA
ATOM      7  C   UNL     1      -1.662  11.548  18.928  0.00  0.00    +0.000 A 
ATOM      8  C   UNL     1      -2.905  11.978  18.423  0.00  0.00    +0.000 A 
ATOM      9  C   UNL     1      -3.526  11.254  17.401  0.00  0.00    +0.000 A 
ATOM     10  C   UNL     1      -2.893  10.176  16.803  0.00  0.00    +0.000 A 
ATOM     11  C   UNL     1      -1.608   9.821  17.227  0.00  0.00    +0.000 A 
ATOM     12  C   UNL     1      -0.980  10.505  18.300  0.00  0.00    +0.000 A 
ENDROOT
BRANCH   5  13
ATOM     13  C   UNL     1      -2.607  13.368  21.335  0.00  0.00    +0.000 A 
ATOM     14  C   UNL     1      -3.213  14.554  20.909  0.00  0.00    +0.000 A 
ATOM     15  C   UNL     1      -4.425  14.957  21.473  0.00  0.00    +0.000 A 
ATOM     16  C   UNL     1      -5.064  14.129  22.398  0.00  0.00    +0.000 A 
ATOM     17 CL   UNL     1      -6.500  14.674  23.170  0.00  0.00    +0.000 Cl
ATOM     18  C   UNL     1      -4.528  12.885  22.727  0.00  0.00    +0.000 A 
ATOM     19  C   UNL     1      -3.296  12.499  22.192  0.00  0.00    +0.000 A 
ENDBRANCH   5  13
BRANCH  10  20
ATOM     20  O   UNL     1      -3.412   9.419  15.785  0.00  0.00    +0.000 OA
ATOM     21  C   UNL     1      -3.381  10.006  14.486  0.00  0.00    +0.000 C 
ENDBRANCH  10  20
BRANCH   1  22
ATOM     22  C   UNL     1       1.430   9.520  18.465  0.00  0.00    +0.000 C 
BRANCH  22  24
ATOM     23  N   UNL     1       2.475   7.357  18.917  0.00  0.00    +0.000 N 
ATOM     24  C   UNL     1       1.665   8.362  19.407  0.00  0.00    +0.000 C 
ATOM     25  O   UNL     1       1.216   8.353  20.555  0.00  0.00    +0.000 OA
ATOM     26  H   UNL     1       2.717   7.357  17.935  0.00  0.00    +0.000 HD
BRANCH  23  27
ATOM     27  C   UNL     1       2.741   6.172  19.698  0.00  0.00    +0.000 C 
BRANCH  27  28
ATOM     28  C   UNL     1       1.842   4.996  19.321  0.00  0.00    +0.000 C 
BRANCH  28  29
ATOM     29  C   UNL     1       1.837   4.757  17.811  0.00  0.00    +0.000 C 
BRANCH  29  30
ATOM     30  C   UNL     1       2.393   3.379  17.462  0.00  0.00    +0.000 C 
BRANCH  30  32
ATOM     31  C   UNL     1       3.529   1.418  18.545  0.00  0.00    +0.000 C 
ATOM     32  C   UNL     1       2.455   2.482  18.697  0.00  0.00    +0.000 C 
ENDBRANCH  30  32
ENDBRANCH  29  30
ENDBRANCH  28  29
ENDBRANCH  27  28
ENDBRANCH  23  27
ENDBRANCH  22  24
ENDBRANCH   1  22
TORSDOF 9
ENDMDL
