MODEL 1
REMARK VINA RESULT:      -9.1      0.000      0.000
REMARK  Name = 
REMARK  4 active torsions:
REMARK  status: ('A' for Active; 'I' for Inactive)
REMARK    1  A    between atoms: C_2  and  C_3
REMARK    2  A    between atoms: C_3  and  N_4
REMARK    3  A    between atoms: N_17  and  C_18
REMARK    4  A    between atoms: C_21  and  C_22
REMARK                            x       y       z     vdW  Elec       q    Type
REMARK                         _______ _______ _______ _____ _____    ______ ____
ROOT
ATOM      1  O   UNL     1       0.944   7.532  20.863  0.00  0.00    +0.000 OA
ATOM      2  C   UNL     1       1.785   7.769  19.998  0.00  0.00    +0.000 C 
ATOM      3  N   UNL     1       1.674   8.738  19.011  0.00  0.00    +0.000 N 
ATOM      4  H   UNL     1       2.352   8.709  18.258  0.00  0.00    +0.000 HD
ENDROOT
BRANCH   3   5
ATOM      5  C   UNL     1       0.571   9.600  18.819  0.00  0.00    +0.000 A 
ATOM      6  C   UNL     1       0.218  10.625  19.701  0.00  0.00    +0.000 A 
ATOM      7  C   UNL     1      -0.987  11.324  19.544  0.00  0.00    +0.000 A 
ATOM      8  C   UNL     1      -1.863  11.013  18.499  0.00  0.00    +0.000 A 
ATOM      9  C   UNL     1      -1.435  10.081  17.540  0.00  0.00    +0.000 A 
ATOM     10  C   UNL     1      -0.232   9.382  17.698  0.00  0.00    +0.000 A 
BRANCH   8  11
ATOM     11  C   UNL     1      -3.217  11.598  18.474  0.00  0.00    +0.000 A 
ATOM     12  N   UNL     1      -3.822  12.180  19.492  0.00  0.00    +0.000 NA
ATOM     13  C   UNL     1      -5.121  12.523  19.149  0.00  0.00    +0.000 A 
ATOM     14  C   UNL     1      -6.063  13.168  19.977  0.00  0.00    +0.000 A 
ATOM     15  C   UNL     1      -7.344  13.455  19.484  0.00  0.00    +0.000 A 
ATOM     16  C   UNL     1      -7.699  13.102  18.188  0.00  0.00    +0.000 A 
ATOM     17  C   UNL     1      -6.789  12.453  17.351  0.00  0.00    +0.000 A 
ATOM     18  C   UNL     1      -5.506  12.180  17.853  0.00  0.00    +0.000 A 
ATOM     19  S   UNL     1      -4.193  11.412  17.065  0.00  0.00    +0.000 S 
ENDBRANCH   8  11
ENDBRANCH   3   5
BRANCH   2  20
ATOM     20  C   UNL     1       3.092   6.999  19.971  0.00  0.00    +0.000 C 
BRANCH  20  21
ATOM     21  N   UNL     1       3.105   5.907  19.006  0.00  0.00    +0.000 N 
ATOM     22  C   UNL     1       2.366   4.743  19.128  0.00  0.00    +0.000 A 
ATOM     23  C   UNL     1       1.424   4.335  20.089  0.00  0.00    +0.000 A 
ATOM     24  C   UNL     1       0.806   3.090  19.932  0.00  0.00    +0.000 A 
ATOM     25  C   UNL     1       1.130   2.262  18.864  0.00  0.00    +0.000 A 
ATOM     26  C   UNL     1       2.081   2.664  17.923  0.00  0.00    +0.000 A 
ATOM     27  C   UNL     1       2.704   3.925  18.048  0.00  0.00    +0.000 A 
ATOM     28  C   UNL     1       3.685   4.617  17.274  0.00  0.00    +0.000 A 
ATOM     29  C   UNL     1       4.394   4.289  16.097  0.00  0.00    +0.000 A 
ATOM     30  C   UNL     1       5.321   5.190  15.570  0.00  0.00    +0.000 A 
ATOM     31  C   UNL     1       5.553   6.407  16.203  0.00  0.00    +0.000 A 
ATOM     32  C   UNL     1       4.866   6.756  17.370  0.00  0.00    +0.000 A 
ATOM     33  C   UNL     1       3.926   5.847  17.891  0.00  0.00    +0.000 A 
ENDBRANCH  20  21
ENDBRANCH   2  20
TORSDOF 4
ENDMDL
MODEL 2
REMARK VINA RESULT:      -9.0      0.868      2.938
REMARK  Name = 
REMARK  4 active torsions:
REMARK  status: ('A' for Active; 'I' for Inactive)
REMARK    1  A    between atoms: C_2  and  C_3
REMARK    2  A    between atoms: C_3  and  N_4
REMARK    3  A    between atoms: N_17  and  C_18
REMARK    4  A    between atoms: C_21  and  C_22
REMARK                            x       y       z     vdW  Elec       q    Type
REMARK                         _______ _______ _______ _____ _____    ______ ____
ROOT
ATOM      1  O   UNL     1       2.290   8.517  17.349  0.00  0.00    +0.000 OA
ATOM      2  C   UNL     1       2.306   8.270  18.553  0.00  0.00    +0.000 C 
ATOM      3  N   UNL     1       1.406   8.763  19.488  0.00  0.00    +0.000 N 
ATOM      4  H   UNL     1       1.636   8.627  20.465  0.00  0.00    +0.000 HD
ENDROOT
BRANCH   3   5
ATOM      5  C   UNL     1       0.337   9.649  19.219  0.00  0.00    +0.000 A 
ATOM      6  C   UNL     1      -0.076  10.660  20.091  0.00  0.00    +0.000 A 
ATOM      7  C   UNL     1      -1.251  11.383  19.845  0.00  0.00    +0.000 A 
ATOM      8  C   UNL     1      -2.036  11.111  18.720  0.00  0.00    +0.000 A 
ATOM      9  C   UNL     1      -1.539  10.193  17.781  0.00  0.00    +0.000 A 
ATOM     10  C   UNL     1      -0.367   9.470  18.028  0.00  0.00    +0.000 A 
BRANCH   8  11
ATOM     11  C   UNL     1      -3.373  11.721  18.589  0.00  0.00    +0.000 A 
ATOM     12  N   UNL     1      -4.016  12.374  19.539  0.00  0.00    +0.000 NA
ATOM     13  C   UNL     1      -5.288  12.721  19.109  0.00  0.00    +0.000 A 
ATOM     14  C   UNL     1      -6.256  13.433  19.847  0.00  0.00    +0.000 A 
ATOM     15  C   UNL     1      -7.502  13.716  19.271  0.00  0.00    +0.000 A 
ATOM     16  C   UNL     1      -7.799  13.294  17.981  0.00  0.00    +0.000 A 
ATOM     17  C   UNL     1      -6.862  12.579  17.232  0.00  0.00    +0.000 A 
ATOM     18  C   UNL     1      -5.613  12.310  17.816  0.00  0.00    +0.000 A 
ATOM     19  S   UNL     1      -4.279  11.471  17.145  0.00  0.00    +0.000 S 
ENDBRANCH   8  11
ENDBRANCH   3   5
BRANCH   2  20
ATOM     20  C   UNL     1       3.344   7.325  19.127  0.00  0.00    +0.000 C 
BRANCH  20  21
ATOM     21  N   UNL     1       3.358   6.015  18.490  0.00  0.00    +0.000 N 
ATOM     22  C   UNL     1       4.138   5.682  17.396  0.00  0.00    +0.000 A 
ATOM     23  C   UNL     1       5.104   6.416  16.684  0.00  0.00    +0.000 A 
ATOM     24  C   UNL     1       5.763   5.794  15.618  0.00  0.00    +0.000 A 
ATOM     25  C   UNL     1       5.457   4.489  15.253  0.00  0.00    +0.000 A 
ATOM     26  C   UNL     1       4.482   3.772  15.952  0.00  0.00    +0.000 A 
ATOM     27  C   UNL     1       3.817   4.370  17.045  0.00  0.00    +0.000 A 
ATOM     28  C   UNL     1       2.805   3.918  17.945  0.00  0.00    +0.000 A 
ATOM     29  C   UNL     1       2.095   2.703  18.069  0.00  0.00    +0.000 A 
ATOM     30  C   UNL     1       1.132   2.560  19.070  0.00  0.00    +0.000 A 
ATOM     31  C   UNL     1       0.865   3.612  19.941  0.00  0.00    +0.000 A 
ATOM     32  C   UNL     1       1.552   4.825  19.839  0.00  0.00    +0.000 A 
ATOM     33  C   UNL     1       2.528   4.960  18.834  0.00  0.00    +0.000 A 
ENDBRANCH  20  21
ENDBRANCH   2  20
TORSDOF 4
ENDMDL
MODEL 3
REMARK VINA RESULT:      -8.9      3.404      4.791
REMARK  Name = 
REMARK  4 active torsions:
REMARK  status: ('A' for Active; 'I' for Inactive)
REMARK    1  A    between atoms: C_2  and  C_3
REMARK    2  A    between atoms: C_3  and  N_4
REMARK    3  A    between atoms: N_17  and  C_18
REMARK    4  A    between atoms: C_21  and  C_22
REMARK                            x       y       z     vdW  Elec       q    Type
REMARK                         _______ _______ _______ _____ _____    ______ ____
ROOT
ATOM      1  O   UNL     1       2.394   7.401  19.944  0.00  0.00    +0.000 OA
ATOM      2  C   UNL     1       2.096   7.900  18.861  0.00  0.00    +0.000 C 
ATOM      3  N   UNL     1       1.435   9.108  18.685  0.00  0.00    +0.000 N 
ATOM      4  H   UNL     1       1.094   9.316  17.754  0.00  0.00    +0.000 HD
ENDROOT
BRANCH   3   5
ATOM      5  C   UNL     1       0.975   9.956  19.718  0.00  0.00    +0.000 A 
ATOM      6  C   UNL     1       0.151   9.535  20.765  0.00  0.00    +0.000 A 
ATOM      7  C   UNL     1      -0.413  10.462  21.653  0.00  0.00    +0.000 A 
ATOM      8  C   UNL     1      -0.161  11.830  21.512  0.00  0.00    +0.000 A 
ATOM      9  C   UNL     1       0.777  12.229  20.546  0.00  0.00    +0.000 A 
ATOM     10  C   UNL     1       1.338  11.303  19.659  0.00  0.00    +0.000 A 
BRANCH   8  11
ATOM     11  C   UNL     1      -0.930  12.806  22.309  0.00  0.00    +0.000 A 
ATOM     12  N   UNL     1      -0.438  13.585  23.254  0.00  0.00    +0.000 NA
ATOM     13  C   UNL     1      -1.455  14.302  23.866  0.00  0.00    +0.000 A 
ATOM     14  C   UNL     1      -1.308  15.238  24.910  0.00  0.00    +0.000 A 
ATOM     15  C   UNL     1      -2.436  15.890  25.425  0.00  0.00    +0.000 A 
ATOM     16  C   UNL     1      -3.703  15.617  24.924  0.00  0.00    +0.000 A 
ATOM     17  C   UNL     1      -3.878  14.686  23.898  0.00  0.00    +0.000 A 
ATOM     18  C   UNL     1      -2.738  14.047  23.382  0.00  0.00    +0.000 A 
ATOM     19  S   UNL     1      -2.643  12.879  22.132  0.00  0.00    +0.000 S 
ENDBRANCH   8  11
ENDBRANCH   3   5
BRANCH   2  20
ATOM     20  C   UNL     1       2.483   7.209  17.567  0.00  0.00    +0.000 C 
BRANCH  20  21
ATOM     21  N   UNL     1       3.324   6.035  17.762  0.00  0.00    +0.000 N 
ATOM     22  C   UNL     1       4.703   6.028  17.640  0.00  0.00    +0.000 A 
ATOM     23  C   UNL     1       5.619   7.064  17.383  0.00  0.00    +0.000 A 
ATOM     24  C   UNL     1       6.983   6.754  17.345  0.00  0.00    +0.000 A 
ATOM     25  C   UNL     1       7.425   5.451  17.533  0.00  0.00    +0.000 A 
ATOM     26  C   UNL     1       6.508   4.422  17.768  0.00  0.00    +0.000 A 
ATOM     27  C   UNL     1       5.127   4.712  17.832  0.00  0.00    +0.000 A 
ATOM     28  C   UNL     1       3.966   3.914  18.055  0.00  0.00    +0.000 A 
ATOM     29  C   UNL     1       3.773   2.534  18.293  0.00  0.00    +0.000 A 
ATOM     30  C   UNL     1       2.482   2.033  18.468  0.00  0.00    +0.000 A 
ATOM     31  C   UNL     1       1.384   2.885  18.403  0.00  0.00    +0.000 A 
ATOM     32  C   UNL     1       1.546   4.254  18.168  0.00  0.00    +0.000 A 
ATOM     33  C   UNL     1       2.851   4.755  18.002  0.00  0.00    +0.000 A 
ENDBRANCH  20  21
ENDBRANCH   2  20
TORSDOF 4
ENDMDL
MODEL 4
REMARK VINA RESULT:      -8.9      2.828     10.564
REMARK  Name = 
REMARK  4 active torsions:
REMARK  status: ('A' for Active; 'I' for Inactive)
REMARK    1  A    between atoms: C_2  and  C_3
REMARK    2  A    between atoms: C_3  and  N_4
REMARK    3  A    between atoms: N_17  and  C_18
REMARK    4  A    between atoms: C_21  and  C_22
REMARK                            x       y       z     vdW  Elec       q    Type
REMARK                         _______ _______ _______ _____ _____    ______ ____
ROOT
ATOM      1  O   UNL     1      -2.112  10.453  18.491  0.00  0.00    +0.000 OA
ATOM      2  C   UNL     1      -1.474  11.362  19.019  0.00  0.00    +0.000 C 
ATOM      3  N   UNL     1      -0.157  11.276  19.448  0.00  0.00    +0.000 N 
ATOM      4  H   UNL     1       0.191  12.034  20.024  0.00  0.00    +0.000 HD
ENDROOT
BRANCH   3   5
ATOM      5  C   UNL     1       0.664  10.127  19.374  0.00  0.00    +0.000 A 
ATOM      6  C   UNL     1       1.303   9.699  18.207  0.00  0.00    +0.000 A 
ATOM      7  C   UNL     1       1.953   8.458  18.159  0.00  0.00    +0.000 A 
ATOM      8  C   UNL     1       1.981   7.621  19.280  0.00  0.00    +0.000 A 
ATOM      9  C   UNL     1       1.459   8.121  20.484  0.00  0.00    +0.000 A 
ATOM     10  C   UNL     1       0.808   9.360  20.531  0.00  0.00    +0.000 A 
BRANCH   8  11
ATOM     11  C   UNL     1       2.472   6.236  19.153  0.00  0.00    +0.000 A 
ATOM     12  N   UNL     1       2.958   5.690  18.054  0.00  0.00    +0.000 NA
ATOM     13  C   UNL     1       3.228   4.346  18.262  0.00  0.00    +0.000 A 
ATOM     14  C   UNL     1       3.764   3.445  17.320  0.00  0.00    +0.000 A 
ATOM     15  C   UNL     1       3.987   2.109  17.681  0.00  0.00    +0.000 A 
ATOM     16  C   UNL     1       3.677   1.660  18.959  0.00  0.00    +0.000 A 
ATOM     17  C   UNL     1       3.136   2.529  19.909  0.00  0.00    +0.000 A 
ATOM     18  C   UNL     1       2.926   3.868  19.537  0.00  0.00    +0.000 A 
ATOM     19  S   UNL     1       2.291   5.150  20.479  0.00  0.00    +0.000 S 
ENDBRANCH   8  11
ENDBRANCH   3   5
BRANCH   2  20
ATOM     20  C   UNL     1      -2.104  12.727  19.214  0.00  0.00    +0.000 C 
BRANCH  20  21
ATOM     21  N   UNL     1      -3.266  12.714  20.092  0.00  0.00    +0.000 N 
ATOM     22  C   UNL     1      -3.218  12.912  21.462  0.00  0.00    +0.000 A 
ATOM     23  C   UNL     1      -2.147  13.221  22.319  0.00  0.00    +0.000 A 
ATOM     24  C   UNL     1      -2.413  13.394  23.682  0.00  0.00    +0.000 A 
ATOM     25  C   UNL     1      -3.699  13.241  24.184  0.00  0.00    +0.000 A 
ATOM     26  C   UNL     1      -4.755  12.914  23.330  0.00  0.00    +0.000 A 
ATOM     27  C   UNL     1      -4.517  12.755  21.947  0.00  0.00    +0.000 A 
ATOM     28  C   UNL     1      -5.357  12.437  20.837  0.00  0.00    +0.000 A 
ATOM     29  C   UNL     1      -6.737  12.162  20.717  0.00  0.00    +0.000 A 
ATOM     30  C   UNL     1      -7.282  11.867  19.466  0.00  0.00    +0.000 A 
ATOM     31  C   UNL     1      -6.468  11.837  18.337  0.00  0.00    +0.000 A 
ATOM     32  C   UNL     1      -5.099  12.104  18.428  0.00  0.00    +0.000 A 
ATOM     33  C   UNL     1      -4.558  12.410  19.691  0.00  0.00    +0.000 A 
ENDBRANCH  20  21
ENDBRANCH   2  20
TORSDOF 4
ENDMDL
MODEL 5
REMARK VINA RESULT:      -8.9      2.841     10.594
REMARK  Name = 
REMARK  4 active torsions:
REMARK  status: ('A' for Active; 'I' for Inactive)
REMARK    1  A    between atoms: C_2  and  C_3
REMARK    2  A    between atoms: C_3  and  N_4
REMARK    3  A    between atoms: N_17  and  C_18
REMARK    4  A    between atoms: C_21  and  C_22
REMARK                            x       y       z     vdW  Elec       q    Type
REMARK                         _______ _______ _______ _____ _____    ______ ____
ROOT
ATOM      1  O   UNL     1      -2.104  10.503  18.521  0.00  0.00    +0.000 OA
ATOM      2  C   UNL     1      -1.502  11.373  19.147  0.00  0.00    +0.000 C 
ATOM      3  N   UNL     1      -0.213  11.258  19.648  0.00  0.00    +0.000 N 
ATOM      4  H   UNL     1       0.096  11.974  20.295  0.00  0.00    +0.000 HD
ENDROOT
BRANCH   3   5
ATOM      5  C   UNL     1       0.617  10.118  19.542  0.00  0.00    +0.000 A 
ATOM      6  C   UNL     1       1.251   9.721  18.362  0.00  0.00    +0.000 A 
ATOM      7  C   UNL     1       1.911   8.487  18.282  0.00  0.00    +0.000 A 
ATOM      8  C   UNL     1       1.953   7.626  19.384  0.00  0.00    +0.000 A 
ATOM      9  C   UNL     1       1.436   8.095  20.602  0.00  0.00    +0.000 A 
ATOM     10  C   UNL     1       0.775   9.326  20.681  0.00  0.00    +0.000 A 
BRANCH   8  11
ATOM     11  C   UNL     1       2.455   6.247  19.223  0.00  0.00    +0.000 A 
ATOM     12  N   UNL     1       2.957   5.737  18.114  0.00  0.00    +0.000 NA
ATOM     13  C   UNL     1       3.233   4.389  18.287  0.00  0.00    +0.000 A 
ATOM     14  C   UNL     1       3.786   3.518  17.325  0.00  0.00    +0.000 A 
ATOM     15  C   UNL     1       4.014   2.174  17.651  0.00  0.00    +0.000 A 
ATOM     16  C   UNL     1       3.691   1.687  18.912  0.00  0.00    +0.000 A 
ATOM     17  C   UNL     1       3.133   2.525  19.879  0.00  0.00    +0.000 A 
ATOM     18  C   UNL     1       2.919   3.872  19.544  0.00  0.00    +0.000 A 
ATOM     19  S   UNL     1       2.265   5.122  20.514  0.00  0.00    +0.000 S 
ENDBRANCH   8  11
ENDBRANCH   3   5
BRANCH   2  20
ATOM     20  C   UNL     1      -2.150  12.721  19.400  0.00  0.00    +0.000 C 
BRANCH  20  21
ATOM     21  N   UNL     1      -3.338  12.649  20.240  0.00  0.00    +0.000 N 
ATOM     22  C   UNL     1      -4.618  12.410  19.771  0.00  0.00    +0.000 A 
ATOM     23  C   UNL     1      -5.098  12.128  18.479  0.00  0.00    +0.000 A 
ATOM     24  C   UNL     1      -6.468  11.899  18.311  0.00  0.00    +0.000 A 
ATOM     25  C   UNL     1      -7.341  11.972  19.389  0.00  0.00    +0.000 A 
ATOM     26  C   UNL     1      -6.862  12.273  20.666  0.00  0.00    +0.000 A 
ATOM     27  C   UNL     1      -5.480  12.488  20.866  0.00  0.00    +0.000 A 
ATOM     28  C   UNL     1      -4.691  12.798  22.014  0.00  0.00    +0.000 A 
ATOM     29  C   UNL     1      -5.006  13.008  23.375  0.00  0.00    +0.000 A 
ATOM     30  C   UNL     1      -3.992  13.315  24.284  0.00  0.00    +0.000 A 
ATOM     31  C   UNL     1      -2.673  13.421  23.854  0.00  0.00    +0.000 A 
ATOM     32  C   UNL     1      -2.334  13.220  22.513  0.00  0.00    +0.000 A 
ATOM     33  C   UNL     1      -3.359  12.901  21.603  0.00  0.00    +0.000 A 
ENDBRANCH  20  21
ENDBRANCH   2  20
TORSDOF 4
ENDMDL
MODEL 6
REMARK VINA RESULT:      -8.8      3.448      3.991
REMARK  Name = 
REMARK  4 active torsions:
REMARK  status: ('A' for Active; 'I' for Inactive)
REMARK    1  A    between atoms: C_2  and  C_3
REMARK    2  A    between atoms: C_3  and  N_4
REMARK    3  A    between atoms: N_17  and  C_18
REMARK    4  A    between atoms: C_21  and  C_22
REMARK                            x       y       z     vdW  Elec       q    Type
REMARK                         _______ _______ _______ _____ _____    ______ ____
ROOT
ATOM      1  O   UNL     1       2.319   7.332  19.850  0.00  0.00    +0.000 OA
ATOM      2  C   UNL     1       2.052   7.866  18.776  0.00  0.00    +0.000 C 
ATOM      3  N   UNL     1       1.433   9.099  18.622  0.00  0.00    +0.000 N 
ATOM      4  H   UNL     1       1.110   9.340  17.693  0.00  0.00    +0.000 HD
ENDROOT
BRANCH   3   5
ATOM      5  C   UNL     1       0.986   9.937  19.670  0.00  0.00    +0.000 A 
ATOM      6  C   UNL     1       0.219   9.493  20.751  0.00  0.00    +0.000 A 
ATOM      7  C   UNL     1      -0.339  10.406  21.657  0.00  0.00    +0.000 A 
ATOM      8  C   UNL     1      -0.139  11.781  21.502  0.00  0.00    +0.000 A 
ATOM      9  C   UNL     1       0.746  12.205  20.497  0.00  0.00    +0.000 A 
ATOM     10  C   UNL     1       1.302  11.294  19.592  0.00  0.00    +0.000 A 
BRANCH   8  11
ATOM     11  C   UNL     1      -0.907  12.735  22.325  0.00  0.00    +0.000 A 
ATOM     12  N   UNL     1      -0.394  13.593  23.186  0.00  0.00    +0.000 NA
ATOM     13  C   UNL     1      -1.405  14.262  23.860  0.00  0.00    +0.000 A 
ATOM     14  C   UNL     1      -1.238  15.256  24.845  0.00  0.00    +0.000 A 
ATOM     15  C   UNL     1      -2.364  15.847  25.437  0.00  0.00    +0.000 A 
ATOM     16  C   UNL     1      -3.645  15.456  25.068  0.00  0.00    +0.000 A 
ATOM     17  C   UNL     1      -3.838  14.465  24.103  0.00  0.00    +0.000 A 
ATOM     18  C   UNL     1      -2.703  13.888  23.510  0.00  0.00    +0.000 A 
ATOM     19  S   UNL     1      -2.629  12.671  22.307  0.00  0.00    +0.000 S 
ENDBRANCH   8  11
ENDBRANCH   3   5
BRANCH   2  20
ATOM     20  C   UNL     1       2.434   7.195  17.471  0.00  0.00    +0.000 C 
BRANCH  20  21
ATOM     21  N   UNL     1       3.295   6.032  17.643  0.00  0.00    +0.000 N 
ATOM     22  C   UNL     1       2.843   4.757  17.939  0.00  0.00    +0.000 A 
ATOM     23  C   UNL     1       1.542   4.242  18.083  0.00  0.00    +0.000 A 
ATOM     24  C   UNL     1       1.391   2.879  18.362  0.00  0.00    +0.000 A 
ATOM     25  C   UNL     1       2.499   2.055  18.517  0.00  0.00    +0.000 A 
ATOM     26  C   UNL     1       3.789   2.577  18.393  0.00  0.00    +0.000 A 
ATOM     27  C   UNL     1       3.968   3.946  18.091  0.00  0.00    +0.000 A 
ATOM     28  C   UNL     1       5.120   4.766  17.897  0.00  0.00    +0.000 A 
ATOM     29  C   UNL     1       6.508   4.507  17.939  0.00  0.00    +0.000 A 
ATOM     30  C   UNL     1       7.416   5.543  17.711  0.00  0.00    +0.000 A 
ATOM     31  C   UNL     1       6.958   6.831  17.450  0.00  0.00    +0.000 A 
ATOM     32  C   UNL     1       5.590   7.115  17.404  0.00  0.00    +0.000 A 
ATOM     33  C   UNL     1       4.680   6.064  17.625  0.00  0.00    +0.000 A 
ENDBRANCH  20  21
ENDBRANCH   2  20
TORSDOF 4
ENDMDL
MODEL 7
REMARK VINA RESULT:      -8.8      1.159      1.433
REMARK  Name = 
REMARK  4 active torsions:
REMARK  status: ('A' for Active; 'I' for Inactive)
REMARK    1  A    between atoms: C_2  and  C_3
REMARK    2  A    between atoms: C_3  and  N_4
REMARK    3  A    between atoms: N_17  and  C_18
REMARK    4  A    between atoms: C_21  and  C_22
REMARK                            x       y       z     vdW  Elec       q    Type
REMARK                         _______ _______ _______ _____ _____    ______ ____
ROOT
ATOM      1  O   UNL     1       2.030   8.522  17.375  0.00  0.00    +0.000 OA
ATOM      2  C   UNL     1       2.163   8.344  18.584  0.00  0.00    +0.000 C 
ATOM      3  N   UNL     1       1.361   8.898  19.572  0.00  0.00    +0.000 N 
ATOM      4  H   UNL     1       1.685   8.817  20.528  0.00  0.00    +0.000 HD
ENDROOT
BRANCH   3   5
ATOM      5  C   UNL     1       0.273   9.775  19.358  0.00  0.00    +0.000 A 
ATOM      6  C   UNL     1      -0.159  10.725  20.288  0.00  0.00    +0.000 A 
ATOM      7  C   UNL     1      -1.350  11.436  20.088  0.00  0.00    +0.000 A 
ATOM      8  C   UNL     1      -2.132  11.214  18.950  0.00  0.00    +0.000 A 
ATOM      9  C   UNL     1      -1.620  10.363  17.958  0.00  0.00    +0.000 A 
ATOM     10  C   UNL     1      -0.431   9.651  18.160  0.00  0.00    +0.000 A 
BRANCH   8  11
ATOM     11  C   UNL     1      -3.483  11.802  18.859  0.00  0.00    +0.000 A 
ATOM     12  N   UNL     1      -4.270  11.757  17.801  0.00  0.00    +0.000 NA
ATOM     13  C   UNL     1      -5.421  12.498  18.025  0.00  0.00    +0.000 A 
ATOM     14  C   UNL     1      -6.493  12.671  17.126  0.00  0.00    +0.000 A 
ATOM     15  C   UNL     1      -7.598  13.449  17.500  0.00  0.00    +0.000 A 
ATOM     16  C   UNL     1      -7.643  14.061  18.747  0.00  0.00    +0.000 A 
ATOM     17  C   UNL     1      -6.590  13.914  19.652  0.00  0.00    +0.000 A 
ATOM     18  C   UNL     1      -5.494  13.124  19.270  0.00  0.00    +0.000 A 
ATOM     19  S   UNL     1      -4.077  12.761  20.161  0.00  0.00    +0.000 S 
ENDBRANCH   8  11
ENDBRANCH   3   5
BRANCH   2  20
ATOM     20  C   UNL     1       3.251   7.426  19.108  0.00  0.00    +0.000 C 
BRANCH  20  21
ATOM     21  N   UNL     1       3.240   6.102  18.501  0.00  0.00    +0.000 N 
ATOM     22  C   UNL     1       2.493   5.032  18.965  0.00  0.00    +0.000 A 
ATOM     23  C   UNL     1       1.564   4.932  20.016  0.00  0.00    +0.000 A 
ATOM     24  C   UNL     1       0.934   3.703  20.235  0.00  0.00    +0.000 A 
ATOM     25  C   UNL     1       1.232   2.597  19.448  0.00  0.00    +0.000 A 
ATOM     26  C   UNL     1       2.171   2.697  18.418  0.00  0.00    +0.000 A 
ATOM     27  C   UNL     1       2.807   3.933  18.164  0.00  0.00    +0.000 A 
ATOM     28  C   UNL     1       3.779   4.358  17.210  0.00  0.00    +0.000 A 
ATOM     29  C   UNL     1       4.466   3.694  16.168  0.00  0.00    +0.000 A 
ATOM     30  C   UNL     1       5.391   4.392  15.390  0.00  0.00    +0.000 A 
ATOM     31  C   UNL     1       5.644   5.738  15.640  0.00  0.00    +0.000 A 
ATOM     32  C   UNL     1       4.979   6.418  16.665  0.00  0.00    +0.000 A 
ATOM     33  C   UNL     1       4.041   5.711  17.440  0.00  0.00    +0.000 A 
ENDBRANCH  20  21
ENDBRANCH   2  20
TORSDOF 4
ENDMDL
MODEL 8
REMARK VINA RESULT:      -8.8      7.587     10.635
REMARK  Name = 
REMARK  4 active torsions:
REMARK  status: ('A' for Active; 'I' for Inactive)
REMARK    1  A    between atoms: C_2  and  C_3
REMARK    2  A    between atoms: C_3  and  N_4
REMARK    3  A    between atoms: N_17  and  C_18
REMARK    4  A    between atoms: C_21  and  C_22
REMARK                            x       y       z     vdW  Elec       q    Type
REMARK                         _______ _______ _______ _____ _____    ______ ____
ROOT
ATOM      1  O   UNL     1       6.988   8.029  16.842  0.00  0.00    +0.000 OA
ATOM      2  C   UNL     1       7.683   7.565  17.744  0.00  0.00    +0.000 C 
ATOM      3  N   UNL     1       8.476   8.303  18.611  0.00  0.00    +0.000 N 
ATOM      4  H   UNL     1       9.132   7.789  19.187  0.00  0.00    +0.000 HD
ENDROOT
BRANCH   3   5
ATOM      5  C   UNL     1       8.637   9.708  18.591  0.00  0.00    +0.000 A 
ATOM      6  C   UNL     1       7.910  10.565  17.760  0.00  0.00    +0.000 A 
ATOM      7  C   UNL     1       8.244  11.923  17.662  0.00  0.00    +0.000 A 
ATOM      8  C   UNL     1       9.310  12.452  18.396  0.00  0.00    +0.000 A 
ATOM      9  C   UNL     1       9.943  11.615  19.329  0.00  0.00    +0.000 A 
ATOM     10  C   UNL     1       9.610  10.259  19.426  0.00  0.00    +0.000 A 
BRANCH   8  11
ATOM     11  C   UNL     1       9.788  13.820  18.119  0.00  0.00    +0.000 A 
ATOM     12  N   UNL     1      11.051  14.184  18.000  0.00  0.00    +0.000 NA
ATOM     13  C   UNL     1      11.143  15.559  17.844  0.00  0.00    +0.000 A 
ATOM     14  C   UNL     1      12.328  16.305  17.678  0.00  0.00    +0.000 A 
ATOM     15  C   UNL     1      12.261  17.697  17.527  0.00  0.00    +0.000 A 
ATOM     16  C   UNL     1      11.036  18.353  17.549  0.00  0.00    +0.000 A 
ATOM     17  C   UNL     1       9.848  17.640  17.722  0.00  0.00    +0.000 A 
ATOM     18  C   UNL     1       9.928  16.244  17.862  0.00  0.00    +0.000 A 
ATOM     19  S   UNL     1       8.655  15.119  18.079  0.00  0.00    +0.000 S 
ENDBRANCH   8  11
ENDBRANCH   3   5
BRANCH   2  20
ATOM     20  C   UNL     1       7.694   6.072  18.009  0.00  0.00    +0.000 C 
BRANCH  20  21
ATOM     21  N   UNL     1       6.580   5.361  17.395  0.00  0.00    +0.000 N 
ATOM     22  C   UNL     1       6.540   4.958  16.071  0.00  0.00    +0.000 A 
ATOM     23  C   UNL     1       7.495   5.047  15.043  0.00  0.00    +0.000 A 
ATOM     24  C   UNL     1       7.176   4.516  13.788  0.00  0.00    +0.000 A 
ATOM     25  C   UNL     1       5.936   3.935  13.553  0.00  0.00    +0.000 A 
ATOM     26  C   UNL     1       4.983   3.869  14.573  0.00  0.00    +0.000 A 
ATOM     27  C   UNL     1       5.289   4.378  15.855  0.00  0.00    +0.000 A 
ATOM     28  C   UNL     1       4.560   4.456  17.079  0.00  0.00    +0.000 A 
ATOM     29  C   UNL     1       3.260   4.051  17.457  0.00  0.00    +0.000 A 
ATOM     30  C   UNL     1       2.813   4.276  18.760  0.00  0.00    +0.000 A 
ATOM     31  C   UNL     1       3.641   4.904  19.687  0.00  0.00    +0.000 A 
ATOM     32  C   UNL     1       4.930   5.316  19.339  0.00  0.00    +0.000 A 
ATOM     33  C   UNL     1       5.379   5.077  18.026  0.00  0.00    +0.000 A 
ENDBRANCH  20  21
ENDBRANCH   2  20
TORSDOF 4
ENDMDL
MODEL 9
REMARK VINA RESULT:      -8.8      3.173      4.759
REMARK  Name = 
REMARK  4 active torsions:
REMARK  status: ('A' for Active; 'I' for Inactive)
REMARK    1  A    between atoms: C_2  and  C_3
REMARK    2  A    between atoms: C_3  and  N_4
REMARK    3  A    between atoms: N_17  and  C_18
REMARK    4  A    between atoms: C_21  and  C_22
REMARK                            x       y       z     vdW  Elec       q    Type
REMARK                         _______ _______ _______ _____ _____    ______ ____
ROOT
ATOM      1  O   UNL     1       2.207   7.954  19.312  0.00  0.00    +0.000 OA
ATOM      2  C   UNL     1       2.242   8.371  18.156  0.00  0.00    +0.000 C 
ATOM      3  N   UNL     1       1.703   9.572  17.716  0.00  0.00    +0.000 N 
ATOM      4  H   UNL     1       1.644   9.711  16.714  0.00  0.00    +0.000 HD
ENDROOT
BRANCH   3   5
ATOM      5  C   UNL     1       1.005  10.507  18.515  0.00  0.00    +0.000 A 
ATOM      6  C   UNL     1       1.549  11.716  18.956  0.00  0.00    +0.000 A 
ATOM      7  C   UNL     1       0.868  12.510  19.890  0.00  0.00    +0.000 A 
ATOM      8  C   UNL     1      -0.372  12.112  20.398  0.00  0.00    +0.000 A 
ATOM      9  C   UNL     1      -0.971  10.969  19.844  0.00  0.00    +0.000 A 
ATOM     10  C   UNL     1      -0.290  10.175  18.914  0.00  0.00    +0.000 A 
BRANCH   8  11
ATOM     11  C   UNL     1      -0.970  12.838  21.535  0.00  0.00    +0.000 A 
ATOM     12  N   UNL     1      -0.360  13.745  22.275  0.00  0.00    +0.000 NA
ATOM     13  C   UNL     1      -1.180  14.148  23.318  0.00  0.00    +0.000 A 
ATOM     14  C   UNL     1      -0.870  15.107  24.303  0.00  0.00    +0.000 A 
ATOM     15  C   UNL     1      -1.810  15.414  25.297  0.00  0.00    +0.000 A 
ATOM     16  C   UNL     1      -3.043  14.775  25.327  0.00  0.00    +0.000 A 
ATOM     17  C   UNL     1      -3.371  13.813  24.369  0.00  0.00    +0.000 A 
ATOM     18  C   UNL     1      -2.425  13.522  23.372  0.00  0.00    +0.000 A 
ATOM     19  S   UNL     1      -2.548  12.408  22.077  0.00  0.00    +0.000 S 
ENDBRANCH   8  11
ENDBRANCH   3   5
BRANCH   2  20
ATOM     20  C   UNL     1       2.949   7.574  17.076  0.00  0.00    +0.000 C 
BRANCH  20  21
ATOM     21  N   UNL     1       3.648   6.399  17.581  0.00  0.00    +0.000 N 
ATOM     22  C   UNL     1       5.023   6.301  17.716  0.00  0.00    +0.000 A 
ATOM     23  C   UNL     1       6.048   7.237  17.491  0.00  0.00    +0.000 A 
ATOM     24  C   UNL     1       7.369   6.853  17.747  0.00  0.00    +0.000 A 
ATOM     25  C   UNL     1       7.667   5.570  18.190  0.00  0.00    +0.000 A 
ATOM     26  C   UNL     1       6.646   4.639  18.392  0.00  0.00    +0.000 A 
ATOM     27  C   UNL     1       5.302   5.008  18.161  0.00  0.00    +0.000 A 
ATOM     28  C   UNL     1       4.060   4.314  18.276  0.00  0.00    +0.000 A 
ATOM     29  C   UNL     1       3.720   2.998  18.662  0.00  0.00    +0.000 A 
ATOM     30  C   UNL     1       2.383   2.598  18.665  0.00  0.00    +0.000 A 
ATOM     31  C   UNL     1       1.384   3.488  18.284  0.00  0.00    +0.000 A 
ATOM     32  C   UNL     1       1.692   4.795  17.896  0.00  0.00    +0.000 A 
ATOM     33  C   UNL     1       3.041   5.196  17.904  0.00  0.00    +0.000 A 
ENDBRANCH  20  21
ENDBRANCH   2  20
TORSDOF 4
ENDMDL
