MODEL 1
REMARK VINA RESULT:      -8.7      0.000      0.000
REMARK  Name = 
REMARK  6 active torsions:
REMARK  status: ('A' for Active; 'I' for Inactive)
REMARK    1  A    between atoms: C_1  and  N_2
REMARK    2  A    between atoms: N_2  and  C_3
REMARK    3  A    between atoms: N_2  and  C_4
REMARK    4  A    between atoms: C_12  and  C_13
REMARK    5  A    between atoms: N_15  and  C_16
REMARK    6  A    between atoms: C_16  and  C_17
REMARK                            x       y       z     vdW  Elec       q    Type
REMARK                         _______ _______ _______ _____ _____    ______ ____
ROOT
ATOM      1  C   UNL     1       0.832  12.302  20.854  0.00  0.00    +0.000 C 
ATOM      2  C   UNL     1       1.866  12.577  19.744  0.00  0.00    +0.000 C 
ATOM      3  C   UNL     1       1.572  11.532  18.671  0.00  0.00    +0.000 C 
ATOM      4  N   UNL     1       1.063  10.390  19.414  0.00  0.00    +0.000 N 
ATOM      5  C   UNL     1       1.490   9.101  19.200  0.00  0.00    +0.000 A 
ATOM      6  C   UNL     1       1.947   8.664  17.978  0.00  0.00    +0.000 A 
ATOM      7  C   UNL     1       2.308   7.330  17.822  0.00  0.00    +0.000 A 
ATOM      8  C   UNL     1       2.170   6.379  18.861  0.00  0.00    +0.000 A 
ATOM      9  C   UNL     1       2.449   4.961  18.810  0.00  0.00    +0.000 A 
ATOM     10  C   UNL     1       2.282   4.190  19.988  0.00  0.00    +0.000 A 
ATOM     11 CL   UNL     1       2.584   2.492  20.129  0.00  0.00    +0.000 Cl
ATOM     12  C   UNL     1       1.817   4.792  21.161  0.00  0.00    +0.000 A 
ATOM     13  C   UNL     1       1.543   6.153  21.185  0.00  0.00    +0.000 A 
ATOM     14  C   UNL     1       1.716   6.941  20.068  0.00  0.00    +0.000 A 
ATOM     15  N   UNL     1       1.401   8.230  20.223  0.00  0.00    +0.000 NA
ATOM     16  C   UNL     1       0.752  10.757  20.804  0.00  0.00    +0.000 C 
ENDROOT
BRANCH   9  17
ATOM     17  C   UNL     1       2.933   4.305  17.538  0.00  0.00    +0.000 C 
ATOM     18  O   UNL     1       2.192   3.647  16.845  0.00  0.00    +0.000 OA
ATOM     19  N   UNL     1       4.273   4.488  17.184  0.00  0.00    +0.000 N 
ATOM     20  H   UNL     1       4.877   5.099  17.706  0.00  0.00    +0.000 HD
BRANCH  19  21
ATOM     21  C   UNL     1       4.830   3.863  15.995  0.00  0.00    +0.000 C 
BRANCH  21  22
ATOM     22  C   UNL     1       5.768   4.825  15.239  0.00  0.00    +0.000 C 
ATOM     23  C   UNL     1       7.239   4.562  15.607  0.00  0.00    +0.000 C 
ATOM     24  C   UNL     1       7.545   4.943  17.055  0.00  0.00    +0.000 C 
ATOM     25  C   UNL     1       7.172   6.388  17.334  0.00  0.00    +0.000 C 
ATOM     26  F   UNL     1       8.016   7.201  16.644  0.00  0.00    +0.000 F 
ATOM     27  F   UNL     1       7.363   6.663  18.647  0.00  0.00    +0.000 F 
ATOM     28  C   UNL     1       5.740   6.727  16.948  0.00  0.00    +0.000 C 
ATOM     29  C   UNL     1       5.419   6.299  15.516  0.00  0.00    +0.000 C 
ENDBRANCH  21  22
ENDBRANCH  19  21
ENDBRANCH   9  17
BRANCH   1  31
ATOM     30  C   UNL     1      -1.155  13.271  22.037  0.00  0.00    +0.000 C 
ATOM     31  N   UNL     1      -0.407  13.115  20.796  0.00  0.00    +0.000 NA
ATOM     32  C   UNL     1      -0.165  14.439  20.205  0.00  0.00    +0.000 C 
ENDBRANCH   1  31
TORSDOF 4
ENDMDL
MODEL 2
REMARK VINA RESULT:      -8.4      4.168      8.629
REMARK  Name = 
REMARK  6 active torsions:
REMARK  status: ('A' for Active; 'I' for Inactive)
REMARK    1  A    between atoms: C_1  and  N_2
REMARK    2  A    between atoms: N_2  and  C_3
REMARK    3  A    between atoms: N_2  and  C_4
REMARK    4  A    between atoms: C_12  and  C_13
REMARK    5  A    between atoms: N_15  and  C_16
REMARK    6  A    between atoms: C_16  and  C_17
REMARK                            x       y       z     vdW  Elec       q    Type
REMARK                         _______ _______ _______ _____ _____    ______ ____
ROOT
ATOM      1  C   UNL     1       2.906   4.155  19.485  0.00  0.00    +0.000 C 
ATOM      2  C   UNL     1       2.468   4.504  18.049  0.00  0.00    +0.000 C 
ATOM      3  C   UNL     1       2.802   5.985  17.889  0.00  0.00    +0.000 C 
ATOM      4  N   UNL     1       2.651   6.532  19.228  0.00  0.00    +0.000 N 
ATOM      5  C   UNL     1       1.967   7.696  19.493  0.00  0.00    +0.000 A 
ATOM      6  C   UNL     1       1.870   8.722  18.582  0.00  0.00    +0.000 A 
ATOM      7  C   UNL     1       1.211   9.893  18.943  0.00  0.00    +0.000 A 
ATOM      8  C   UNL     1       0.681  10.099  20.240  0.00  0.00    +0.000 A 
ATOM      9  C   UNL     1       0.033  11.283  20.757  0.00  0.00    +0.000 A 
ATOM     10  C   UNL     1      -0.467  11.264  22.083  0.00  0.00    +0.000 A 
ATOM     11 CL   UNL     1      -1.287  12.570  22.867  0.00  0.00    +0.000 Cl
ATOM     12  C   UNL     1      -0.296  10.129  22.881  0.00  0.00    +0.000 A 
ATOM     13  C   UNL     1       0.341   9.005  22.369  0.00  0.00    +0.000 A 
ATOM     14  C   UNL     1       0.819   8.977  21.077  0.00  0.00    +0.000 A 
ATOM     15  N   UNL     1       1.424   7.842  20.717  0.00  0.00    +0.000 NA
ATOM     16  C   UNL     1       2.538   5.461  20.229  0.00  0.00    +0.000 C 
ENDROOT
BRANCH   9  17
ATOM     17  C   UNL     1      -0.135  12.518  19.902  0.00  0.00    +0.000 C 
ATOM     18  O   UNL     1      -1.207  12.819  19.430  0.00  0.00    +0.000 OA
ATOM     19  N   UNL     1       0.996  13.308  19.676  0.00  0.00    +0.000 N 
ATOM     20  H   UNL     1       1.873  13.115  20.128  0.00  0.00    +0.000 HD
BRANCH  19  21
ATOM     21  C   UNL     1       0.931  14.493  18.836  0.00  0.00    +0.000 C 
BRANCH  21  22
ATOM     22  C   UNL     1       1.686  15.677  19.472  0.00  0.00    +0.000 C 
ATOM     23  C   UNL     1       2.086  16.712  18.406  0.00  0.00    +0.000 C 
ATOM     24  C   UNL     1       3.153  16.172  17.454  0.00  0.00    +0.000 C 
ATOM     25  C   UNL     1       4.373  15.685  18.214  0.00  0.00    +0.000 C 
ATOM     26  F   UNL     1       5.005  16.756  18.765  0.00  0.00    +0.000 F 
ATOM     27  F   UNL     1       5.254  15.122  17.351  0.00  0.00    +0.000 F 
ATOM     28  C   UNL     1       4.040  14.691  19.317  0.00  0.00    +0.000 C 
ATOM     29  C   UNL     1       2.937  15.211  20.239  0.00  0.00    +0.000 C 
ENDBRANCH  21  22
ENDBRANCH  19  21
ENDBRANCH   9  17
BRANCH   1  31
ATOM     30  C   UNL     1       4.355   2.132  19.790  0.00  0.00    +0.000 C 
ATOM     31  N   UNL     1       4.265   3.576  19.621  0.00  0.00    +0.000 NA
ATOM     32  C   UNL     1       5.150   3.993  18.523  0.00  0.00    +0.000 C 
ENDBRANCH   1  31
TORSDOF 4
ENDMDL
MODEL 3
REMARK VINA RESULT:      -8.3      4.428      9.177
REMARK  Name = 
REMARK  6 active torsions:
REMARK  status: ('A' for Active; 'I' for Inactive)
REMARK    1  A    between atoms: C_1  and  N_2
REMARK    2  A    between atoms: N_2  and  C_3
REMARK    3  A    between atoms: N_2  and  C_4
REMARK    4  A    between atoms: C_12  and  C_13
REMARK    5  A    between atoms: N_15  and  C_16
REMARK    6  A    between atoms: C_16  and  C_17
REMARK                            x       y       z     vdW  Elec       q    Type
REMARK                         _______ _______ _______ _____ _____    ______ ____
ROOT
ATOM      1  C   UNL     1       4.443   4.578  18.621  0.00  0.00    +0.000 C 
ATOM      2  C   UNL     1       3.772   4.818  17.254  0.00  0.00    +0.000 C 
ATOM      3  C   UNL     1       3.666   6.335  17.133  0.00  0.00    +0.000 C 
ATOM      4  N   UNL     1       3.518   6.794  18.505  0.00  0.00    +0.000 N 
ATOM      5  C   UNL     1       2.575   7.717  18.893  0.00  0.00    +0.000 A 
ATOM      6  C   UNL     1       2.100   8.692  18.047  0.00  0.00    +0.000 A 
ATOM      7  C   UNL     1       1.188   9.627  18.528  0.00  0.00    +0.000 A 
ATOM      8  C   UNL     1       0.769   9.653  19.880  0.00  0.00    +0.000 A 
ATOM      9  C   UNL     1      -0.119  10.600  20.515  0.00  0.00    +0.000 A 
ATOM     10  C   UNL     1      -0.446  10.418  21.882  0.00  0.00    +0.000 A 
ATOM     11 CL   UNL     1      -1.502  11.430  22.807  0.00  0.00    +0.000 Cl
ATOM     12  C   UNL     1       0.117   9.361  22.603  0.00  0.00    +0.000 A 
ATOM     13  C   UNL     1       0.977   8.469  21.977  0.00  0.00    +0.000 A 
ATOM     14  C   UNL     1       1.300   8.598  20.644  0.00  0.00    +0.000 A 
ATOM     15  N   UNL     1       2.150   7.683  20.170  0.00  0.00    +0.000 NA
ATOM     16  C   UNL     1       3.816   5.716  19.460  0.00  0.00    +0.000 C 
ENDROOT
BRANCH   9  17
ATOM     17  C   UNL     1      -0.713  11.755  19.742  0.00  0.00    +0.000 C 
ATOM     18  O   UNL     1      -1.780  11.658  19.181  0.00  0.00    +0.000 OA
ATOM     19  N   UNL     1       0.015  12.948  19.699  0.00  0.00    +0.000 N 
ATOM     20  H   UNL     1       0.862  13.068  20.227  0.00  0.00    +0.000 HD
BRANCH  19  21
ATOM     21  C   UNL     1      -0.466  14.096  18.948  0.00  0.00    +0.000 C 
BRANCH  21  22
ATOM     22  C   UNL     1      -0.433  15.381  19.799  0.00  0.00    +0.000 C 
ATOM     23  C   UNL     1      -0.974  16.583  19.005  0.00  0.00    +0.000 C 
ATOM     24  C   UNL     1      -0.045  16.977  17.857  0.00  0.00    +0.000 C 
ATOM     25  C   UNL     1       1.361  17.253  18.358  0.00  0.00    +0.000 C 
ATOM     26  F   UNL     1       1.346  18.387  19.109  0.00  0.00    +0.000 F 
ATOM     27  F   UNL     1       2.180  17.502  17.307  0.00  0.00    +0.000 F 
ATOM     28  C   UNL     1       1.939  16.120  19.193  0.00  0.00    +0.000 C 
ATOM     29  C   UNL     1       0.986  15.692  20.309  0.00  0.00    +0.000 C 
ENDBRANCH  21  22
ENDBRANCH  19  21
ENDBRANCH   9  17
BRANCH   1  31
ATOM     30  C   UNL     1       6.549   4.340  17.279  0.00  0.00    +0.000 C 
ATOM     31  N   UNL     1       5.916   4.398  18.591  0.00  0.00    +0.000 NA
ATOM     32  C   UNL     1       6.606   5.396  19.421  0.00  0.00    +0.000 C 
ENDBRANCH   1  31
TORSDOF 4
ENDMDL
MODEL 4
REMARK VINA RESULT:      -8.3      0.714      1.003
REMARK  Name = 
REMARK  6 active torsions:
REMARK  status: ('A' for Active; 'I' for Inactive)
REMARK    1  A    between atoms: C_1  and  N_2
REMARK    2  A    between atoms: N_2  and  C_3
REMARK    3  A    between atoms: N_2  and  C_4
REMARK    4  A    between atoms: C_12  and  C_13
REMARK    5  A    between atoms: N_15  and  C_16
REMARK    6  A    between atoms: C_16  and  C_17
REMARK                            x       y       z     vdW  Elec       q    Type
REMARK                         _______ _______ _______ _____ _____    ______ ____
ROOT
ATOM      1  C   UNL     1       0.767  12.098  20.679  0.00  0.00    +0.000 C 
ATOM      2  C   UNL     1       1.825  12.390  19.597  0.00  0.00    +0.000 C 
ATOM      3  C   UNL     1       1.603  11.317  18.535  0.00  0.00    +0.000 C 
ATOM      4  N   UNL     1       1.109  10.171  19.283  0.00  0.00    +0.000 N 
ATOM      5  C   UNL     1       1.588   8.894  19.106  0.00  0.00    +0.000 A 
ATOM      6  C   UNL     1       2.099   8.453  17.908  0.00  0.00    +0.000 A 
ATOM      7  C   UNL     1       2.511   7.129  17.788  0.00  0.00    +0.000 A 
ATOM      8  C   UNL     1       2.372   6.192  18.840  0.00  0.00    +0.000 A 
ATOM      9  C   UNL     1       2.702   4.785  18.824  0.00  0.00    +0.000 A 
ATOM     10  C   UNL     1       2.524   4.029  20.010  0.00  0.00    +0.000 A 
ATOM     11 CL   UNL     1       2.880   2.345  20.191  0.00  0.00    +0.000 Cl
ATOM     12  C   UNL     1       2.000   4.634  21.156  0.00  0.00    +0.000 A 
ATOM     13  C   UNL     1       1.679   5.985  21.146  0.00  0.00    +0.000 A 
ATOM     14  C   UNL     1       1.860   6.759  20.021  0.00  0.00    +0.000 A 
ATOM     15  N   UNL     1       1.496   8.039  20.142  0.00  0.00    +0.000 NA
ATOM     16  C   UNL     1       0.741  10.552  20.655  0.00  0.00    +0.000 C 
ENDROOT
BRANCH   9  17
ATOM     17  C   UNL     1       3.249   4.124  17.580  0.00  0.00    +0.000 C 
ATOM     18  O   UNL     1       2.518   3.623  16.756  0.00  0.00    +0.000 OA
ATOM     19  N   UNL     1       4.636   4.114  17.409  0.00  0.00    +0.000 N 
ATOM     20  H   UNL     1       5.249   4.598  18.042  0.00  0.00    +0.000 HD
BRANCH  19  21
ATOM     21  C   UNL     1       5.248   3.469  16.258  0.00  0.00    +0.000 C 
BRANCH  21  22
ATOM     22  C   UNL     1       6.573   4.153  15.867  0.00  0.00    +0.000 C 
ATOM     23  C   UNL     1       7.401   4.507  17.114  0.00  0.00    +0.000 C 
ATOM     24  C   UNL     1       6.745   5.610  17.944  0.00  0.00    +0.000 C 
ATOM     25  C   UNL     1       6.483   6.847  17.105  0.00  0.00    +0.000 C 
ATOM     26  F   UNL     1       7.674   7.415  16.775  0.00  0.00    +0.000 F 
ATOM     27  F   UNL     1       5.812   7.766  17.843  0.00  0.00    +0.000 F 
ATOM     28  C   UNL     1       5.706   6.558  15.829  0.00  0.00    +0.000 C 
ATOM     29  C   UNL     1       6.334   5.420  15.025  0.00  0.00    +0.000 C 
ENDBRANCH  21  22
ENDBRANCH  19  21
ENDBRANCH   9  17
BRANCH   1  31
ATOM     30  C   UNL     1      -0.516  13.974  19.619  0.00  0.00    +0.000 C 
ATOM     31  N   UNL     1      -0.498  12.867  20.567  0.00  0.00    +0.000 NA
ATOM     32  C   UNL     1      -1.650  11.990  20.315  0.00  0.00    +0.000 C 
ENDBRANCH   1  31
TORSDOF 4
ENDMDL
MODEL 5
REMARK VINA RESULT:      -8.3      4.762      9.324
REMARK  Name = 
REMARK  6 active torsions:
REMARK  status: ('A' for Active; 'I' for Inactive)
REMARK    1  A    between atoms: C_1  and  N_2
REMARK    2  A    between atoms: N_2  and  C_3
REMARK    3  A    between atoms: N_2  and  C_4
REMARK    4  A    between atoms: C_12  and  C_13
REMARK    5  A    between atoms: N_15  and  C_16
REMARK    6  A    between atoms: C_16  and  C_17
REMARK                            x       y       z     vdW  Elec       q    Type
REMARK                         _______ _______ _______ _____ _____    ______ ____
ROOT
ATOM      1  C   UNL     1       3.092   3.657  19.031  0.00  0.00    +0.000 C 
ATOM      2  C   UNL     1       2.706   4.053  17.592  0.00  0.00    +0.000 C 
ATOM      3  C   UNL     1       3.119   5.517  17.467  0.00  0.00    +0.000 C 
ATOM      4  N   UNL     1       2.966   6.048  18.812  0.00  0.00    +0.000 N 
ATOM      5  C   UNL     1       2.338   7.241  19.083  0.00  0.00    +0.000 A 
ATOM      6  C   UNL     1       2.314   8.287  18.190  0.00  0.00    +0.000 A 
ATOM      7  C   UNL     1       1.708   9.484  18.558  0.00  0.00    +0.000 A 
ATOM      8  C   UNL     1       1.161   9.694  19.846  0.00  0.00    +0.000 A 
ATOM      9  C   UNL     1       0.563  10.902  20.371  0.00  0.00    +0.000 A 
ATOM     10  C   UNL     1       0.032  10.885  21.685  0.00  0.00    +0.000 A 
ATOM     11 CL   UNL     1      -0.737  12.219  22.475  0.00  0.00    +0.000 Cl
ATOM     12  C   UNL     1       0.127   9.729  22.465  0.00  0.00    +0.000 A 
ATOM     13  C   UNL     1       0.716   8.584  21.947  0.00  0.00    +0.000 A 
ATOM     14  C   UNL     1       1.221   8.553  20.666  0.00  0.00    +0.000 A 
ATOM     15  N   UNL     1       1.775   7.394  20.297  0.00  0.00    +0.000 NA
ATOM     16  C   UNL     1       2.776   4.967  19.791  0.00  0.00    +0.000 C 
ENDROOT
BRANCH   9  17
ATOM     17  C   UNL     1       0.478  12.158  19.535  0.00  0.00    +0.000 C 
ATOM     18  O   UNL     1      -0.534  12.457  18.944  0.00  0.00    +0.000 OA
ATOM     19  N   UNL     1       1.614  12.970  19.470  0.00  0.00    +0.000 N 
ATOM     20  H   UNL     1       2.433  12.777  20.021  0.00  0.00    +0.000 HD
BRANCH  19  21
ATOM     21  C   UNL     1       1.630  14.178  18.661  0.00  0.00    +0.000 C 
BRANCH  21  22
ATOM     22  C   UNL     1       1.592  15.446  19.538  0.00  0.00    +0.000 C 
ATOM     23  C   UNL     1       0.143  15.897  19.791  0.00  0.00    +0.000 C 
ATOM     24  C   UNL     1      -0.528  16.411  18.517  0.00  0.00    +0.000 C 
ATOM     25  C   UNL     1       0.280  17.528  17.882  0.00  0.00    +0.000 C 
ATOM     26  F   UNL     1       0.227  18.623  18.688  0.00  0.00    +0.000 F 
ATOM     27  F   UNL     1      -0.289  17.891  16.706  0.00  0.00    +0.000 F 
ATOM     28  C   UNL     1       1.737  17.161  17.647  0.00  0.00    +0.000 C 
ATOM     29  C   UNL     1       2.394  16.600  18.908  0.00  0.00    +0.000 C 
ENDBRANCH  21  22
ENDBRANCH  19  21
ENDBRANCH   9  17
BRANCH   1  31
ATOM     30  C   UNL     1       5.581   3.882  19.248  0.00  0.00    +0.000 C 
ATOM     31  N   UNL     1       4.417   3.006  19.186  0.00  0.00    +0.000 NA
ATOM     32  C   UNL     1       4.442   2.081  20.327  0.00  0.00    +0.000 C 
ENDBRANCH   1  31
TORSDOF 4
ENDMDL
MODEL 6
REMARK VINA RESULT:      -8.2      5.733      9.783
REMARK  Name = 
REMARK  6 active torsions:
REMARK  status: ('A' for Active; 'I' for Inactive)
REMARK    1  A    between atoms: C_1  and  N_2
REMARK    2  A    between atoms: N_2  and  C_3
REMARK    3  A    between atoms: N_2  and  C_4
REMARK    4  A    between atoms: C_12  and  C_13
REMARK    5  A    between atoms: N_15  and  C_16
REMARK    6  A    between atoms: C_16  and  C_17
REMARK                            x       y       z     vdW  Elec       q    Type
REMARK                         _______ _______ _______ _____ _____    ______ ____
ROOT
ATOM      1  C   UNL     1       4.735   4.485  18.742  0.00  0.00    +0.000 C 
ATOM      2  C   UNL     1       3.940   4.462  17.422  0.00  0.00    +0.000 C 
ATOM      3  C   UNL     1       3.680   5.931  17.098  0.00  0.00    +0.000 C 
ATOM      4  N   UNL     1       3.594   6.574  18.400  0.00  0.00    +0.000 N 
ATOM      5  C   UNL     1       2.599   7.461  18.738  0.00  0.00    +0.000 A 
ATOM      6  C   UNL     1       1.969   8.256  17.810  0.00  0.00    +0.000 A 
ATOM      7  C   UNL     1       1.011   9.172  18.235  0.00  0.00    +0.000 A 
ATOM      8  C   UNL     1       0.695   9.362  19.602  0.00  0.00    +0.000 A 
ATOM      9  C   UNL     1      -0.228  10.316  20.175  0.00  0.00    +0.000 A 
ATOM     10  C   UNL     1      -0.430  10.311  21.578  0.00  0.00    +0.000 A 
ATOM     11 CL   UNL     1      -1.504  11.355  22.443  0.00  0.00    +0.000 Cl
ATOM     12  C   UNL     1       0.286   9.423  22.387  0.00  0.00    +0.000 A 
ATOM     13  C   UNL     1       1.178   8.524  21.817  0.00  0.00    +0.000 A 
ATOM     14  C   UNL     1       1.383   8.481  20.456  0.00  0.00    +0.000 A 
ATOM     15  N   UNL     1       2.279   7.581  20.040  0.00  0.00    +0.000 NA
ATOM     16  C   UNL     1       4.066   5.678  19.466  0.00  0.00    +0.000 C 
ENDROOT
BRANCH   9  17
ATOM     17  C   UNL     1      -0.988  11.289  19.304  0.00  0.00    +0.000 C 
ATOM     18  O   UNL     1      -0.487  12.321  18.924  0.00  0.00    +0.000 OA
ATOM     19  N   UNL     1      -2.297  10.952  18.947  0.00  0.00    +0.000 N 
ATOM     20  H   UNL     1      -2.697  10.061  19.187  0.00  0.00    +0.000 HD
BRANCH  19  21
ATOM     21  C   UNL     1      -3.111  11.848  18.141  0.00  0.00    +0.000 C 
BRANCH  21  22
ATOM     22  C   UNL     1      -4.345  11.124  17.565  0.00  0.00    +0.000 C 
ATOM     23  C   UNL     1      -5.221  12.091  16.750  0.00  0.00    +0.000 C 
ATOM     24  C   UNL     1      -5.892  13.141  17.635  0.00  0.00    +0.000 C 
ATOM     25  C   UNL     1      -6.700  12.490  18.744  0.00  0.00    +0.000 C 
ATOM     26  F   UNL     1      -7.772  11.858  18.195  0.00  0.00    +0.000 F 
ATOM     27  F   UNL     1      -7.199  13.445  19.566  0.00  0.00    +0.000 F 
ATOM     28  C   UNL     1      -5.902  11.485  19.561  0.00  0.00    +0.000 C 
ATOM     29  C   UNL     1      -5.189  10.466  18.672  0.00  0.00    +0.000 C 
ENDBRANCH  21  22
ENDBRANCH  19  21
ENDBRANCH   9  17
BRANCH   1  31
ATOM     30  C   UNL     1       6.749   4.383  17.252  0.00  0.00    +0.000 C 
ATOM     31  N   UNL     1       6.211   4.427  18.606  0.00  0.00    +0.000 NA
ATOM     32  C   UNL     1       6.873   5.504  19.357  0.00  0.00    +0.000 C 
ENDBRANCH   1  31
TORSDOF 4
ENDMDL
MODEL 7
REMARK VINA RESULT:      -8.1      3.110      4.662
REMARK  Name = 
REMARK  6 active torsions:
REMARK  status: ('A' for Active; 'I' for Inactive)
REMARK    1  A    between atoms: C_1  and  N_2
REMARK    2  A    between atoms: N_2  and  C_3
REMARK    3  A    between atoms: N_2  and  C_4
REMARK    4  A    between atoms: C_12  and  C_13
REMARK    5  A    between atoms: N_15  and  C_16
REMARK    6  A    between atoms: C_16  and  C_17
REMARK                            x       y       z     vdW  Elec       q    Type
REMARK                         _______ _______ _______ _____ _____    ______ ____
ROOT
ATOM      1  C   UNL     1      -1.989  13.548  21.114  0.00  0.00    +0.000 C 
ATOM      2  C   UNL     1      -2.723  12.477  21.945  0.00  0.00    +0.000 C 
ATOM      3  C   UNL     1      -1.616  11.584  22.496  0.00  0.00    +0.000 C 
ATOM      4  N   UNL     1      -0.575  11.639  21.482  0.00  0.00    +0.000 N 
ATOM      5  C   UNL     1       0.073  10.522  21.006  0.00  0.00    +0.000 A 
ATOM      6  C   UNL     1       0.257   9.391  21.767  0.00  0.00    +0.000 A 
ATOM      7  C   UNL     1       0.972   8.322  21.237  0.00  0.00    +0.000 A 
ATOM      8  C   UNL     1       1.576   8.371  19.958  0.00  0.00    +0.000 A 
ATOM      9  C   UNL     1       2.391   7.361  19.321  0.00  0.00    +0.000 A 
ATOM     10  C   UNL     1       2.865   7.596  18.006  0.00  0.00    +0.000 A 
ATOM     11 CL   UNL     1       3.832   6.503  17.076  0.00  0.00    +0.000 Cl
ATOM     12  C   UNL     1       2.578   8.802  17.362  0.00  0.00    +0.000 A 
ATOM     13  C   UNL     1       1.804   9.765  17.996  0.00  0.00    +0.000 A 
ATOM     14  C   UNL     1       1.304   9.564  19.264  0.00  0.00    +0.000 A 
ATOM     15  N   UNL     1       0.589  10.576  19.763  0.00  0.00    +0.000 NA
ATOM     16  C   UNL     1      -0.837  12.711  20.510  0.00  0.00    +0.000 C 
ENDROOT
BRANCH   9  17
ATOM     17  C   UNL     1       2.718   6.064  20.024  0.00  0.00    +0.000 C 
ATOM     18  O   UNL     1       3.860   5.684  20.151  0.00  0.00    +0.000 OA
ATOM     19  N   UNL     1       1.652   5.315  20.530  0.00  0.00    +0.000 N 
ATOM     20  H   UNL     1       0.708   5.657  20.504  0.00  0.00    +0.000 HD
BRANCH  19  21
ATOM     21  C   UNL     1       1.875   4.038  21.189  0.00  0.00    +0.000 C 
BRANCH  21  22
ATOM     22  C   UNL     1       1.239   2.876  20.399  0.00  0.00    +0.000 C 
ATOM     23  C   UNL     1       2.265   1.760  20.138  0.00  0.00    +0.000 C 
ATOM     24  C   UNL     1       3.359   2.202  19.166  0.00  0.00    +0.000 C 
ATOM     25  C   UNL     1       2.766   2.702  17.861  0.00  0.00    +0.000 C 
ATOM     26  F   UNL     1       2.209   1.651  17.199  0.00  0.00    +0.000 F 
ATOM     27  F   UNL     1       3.753   3.177  17.063  0.00  0.00    +0.000 F 
ATOM     28  C   UNL     1       1.707   3.778  18.052  0.00  0.00    +0.000 C 
ATOM     29  C   UNL     1       0.641   3.355  19.063  0.00  0.00    +0.000 C 
ENDBRANCH  21  22
ENDBRANCH  19  21
ENDBRANCH   9  17
BRANCH   1  31
ATOM     30  C   UNL     1      -0.729  15.714  21.196  0.00  0.00    +0.000 C 
ATOM     31  N   UNL     1      -1.697  14.820  21.819  0.00  0.00    +0.000 NA
ATOM     32  C   UNL     1      -2.924  15.570  22.127  0.00  0.00    +0.000 C 
ENDBRANCH   1  31
TORSDOF 4
ENDMDL
MODEL 8
REMARK VINA RESULT:      -8.1      2.492      3.042
REMARK  Name = 
REMARK  6 active torsions:
REMARK  status: ('A' for Active; 'I' for Inactive)
REMARK    1  A    between atoms: C_1  and  N_2
REMARK    2  A    between atoms: N_2  and  C_3
REMARK    3  A    between atoms: N_2  and  C_4
REMARK    4  A    between atoms: C_12  and  C_13
REMARK    5  A    between atoms: N_15  and  C_16
REMARK    6  A    between atoms: C_16  and  C_17
REMARK                            x       y       z     vdW  Elec       q    Type
REMARK                         _______ _______ _______ _____ _____    ______ ____
ROOT
ATOM      1  C   UNL     1      -0.221  11.149  20.376  0.00  0.00    +0.000 C 
ATOM      2  C   UNL     1       1.000  11.842  19.740  0.00  0.00    +0.000 C 
ATOM      3  C   UNL     1       1.399  10.938  18.578  0.00  0.00    +0.000 C 
ATOM      4  N   UNL     1       1.021   9.604  19.016  0.00  0.00    +0.000 N 
ATOM      5  C   UNL     1       1.847   8.511  18.900  0.00  0.00    +0.000 A 
ATOM      6  C   UNL     1       2.794   8.399  17.909  0.00  0.00    +0.000 A 
ATOM      7  C   UNL     1       3.555   7.237  17.821  0.00  0.00    +0.000 A 
ATOM      8  C   UNL     1       3.354   6.130  18.681  0.00  0.00    +0.000 A 
ATOM      9  C   UNL     1       4.030   4.852  18.656  0.00  0.00    +0.000 A 
ATOM     10  C   UNL     1       3.705   3.889  19.644  0.00  0.00    +0.000 A 
ATOM     11 CL   UNL     1       4.417   2.319  19.790  0.00  0.00    +0.000 Cl
ATOM     12  C   UNL     1       2.720   4.166  20.596  0.00  0.00    +0.000 A 
ATOM     13  C   UNL     1       2.074   5.395  20.596  0.00  0.00    +0.000 A 
ATOM     14  C   UNL     1       2.379   6.366  19.667  0.00  0.00    +0.000 A 
ATOM     15  N   UNL     1       1.673   7.496  19.768  0.00  0.00    +0.000 NA
ATOM     16  C   UNL     1       0.168   9.661  20.212  0.00  0.00    +0.000 C 
ENDROOT
BRANCH   9  17
ATOM     17  C   UNL     1       5.081   4.545  17.615  0.00  0.00    +0.000 C 
ATOM     18  O   UNL     1       6.244   4.827  17.788  0.00  0.00    +0.000 OA
ATOM     19  N   UNL     1       4.663   3.915  16.439  0.00  0.00    +0.000 N 
ATOM     20  H   UNL     1       3.716   3.601  16.317  0.00  0.00    +0.000 HD
BRANCH  19  21
ATOM     21  C   UNL     1       5.602   3.615  15.370  0.00  0.00    +0.000 C 
BRANCH  21  22
ATOM     22  C   UNL     1       5.618   4.729  14.304  0.00  0.00    +0.000 C 
ATOM     23  C   UNL     1       4.885   4.280  13.028  0.00  0.00    +0.000 C 
ATOM     24  C   UNL     1       5.637   3.171  12.294  0.00  0.00    +0.000 C 
ATOM     25  C   UNL     1       7.061   3.589  11.976  0.00  0.00    +0.000 C 
ATOM     26  F   UNL     1       7.031   4.576  11.039  0.00  0.00    +0.000 F 
ATOM     27  F   UNL     1       7.728   2.551  11.416  0.00  0.00    +0.000 F 
ATOM     28  C   UNL     1       7.829   4.089  13.190  0.00  0.00    +0.000 C 
ATOM     29  C   UNL     1       7.053   5.162  13.953  0.00  0.00    +0.000 C 
ENDBRANCH  21  22
ENDBRANCH  19  21
ENDBRANCH   9  17
BRANCH   1  31
ATOM     30  C   UNL     1      -2.227  12.606  20.753  0.00  0.00    +0.000 C 
ATOM     31  N   UNL     1      -1.547  11.628  19.913  0.00  0.00    +0.000 NA
ATOM     32  C   UNL     1      -1.497  12.125  18.531  0.00  0.00    +0.000 C 
ENDBRANCH   1  31
TORSDOF 4
ENDMDL
MODEL 9
REMARK VINA RESULT:      -8.1      4.166      8.635
REMARK  Name = 
REMARK  6 active torsions:
REMARK  status: ('A' for Active; 'I' for Inactive)
REMARK    1  A    between atoms: C_1  and  N_2
REMARK    2  A    between atoms: N_2  and  C_3
REMARK    3  A    between atoms: N_2  and  C_4
REMARK    4  A    between atoms: C_12  and  C_13
REMARK    5  A    between atoms: N_15  and  C_16
REMARK    6  A    between atoms: C_16  and  C_17
REMARK                            x       y       z     vdW  Elec       q    Type
REMARK                         _______ _______ _______ _____ _____    ______ ____
ROOT
ATOM      1  C   UNL     1       2.722   4.615  19.329  0.00  0.00    +0.000 C 
ATOM      2  C   UNL     1       2.431   5.177  17.923  0.00  0.00    +0.000 C 
ATOM      3  C   UNL     1       2.767   6.663  18.021  0.00  0.00    +0.000 C 
ATOM      4  N   UNL     1       2.474   7.005  19.405  0.00  0.00    +0.000 N 
ATOM      5  C   UNL     1       1.758   8.121  19.768  0.00  0.00    +0.000 A 
ATOM      6  C   UNL     1       1.745   9.272  19.016  0.00  0.00    +0.000 A 
ATOM      7  C   UNL     1       1.043  10.381  19.478  0.00  0.00    +0.000 A 
ATOM      8  C   UNL     1       0.381  10.394  20.730  0.00  0.00    +0.000 A 
ATOM      9  C   UNL     1      -0.326  11.493  21.348  0.00  0.00    +0.000 A 
ATOM     10  C   UNL     1      -0.960  11.279  22.598  0.00  0.00    +0.000 A 
ATOM     11 CL   UNL     1      -1.867  12.459  23.480  0.00  0.00    +0.000 Cl
ATOM     12  C   UNL     1      -0.862  10.036  23.231  0.00  0.00    +0.000 A 
ATOM     13  C   UNL     1      -0.167   8.997  22.625  0.00  0.00    +0.000 A 
ATOM     14  C   UNL     1       0.442   9.159  21.400  0.00  0.00    +0.000 A 
ATOM     15  N   UNL     1       1.090   8.086  20.938  0.00  0.00    +0.000 NA
ATOM     16  C   UNL     1       2.269   5.797  20.218  0.00  0.00    +0.000 C 
ENDROOT
BRANCH   9  17
ATOM     17  C   UNL     1      -0.416  12.842  20.675  0.00  0.00    +0.000 C 
ATOM     18  O   UNL     1      -1.339  13.125  19.947  0.00  0.00    +0.000 OA
ATOM     19  N   UNL     1       0.608  13.760  20.925  0.00  0.00    +0.000 N 
ATOM     20  H   UNL     1       1.336  13.569  21.591  0.00  0.00    +0.000 HD
BRANCH  19  21
ATOM     21  C   UNL     1       0.618  15.068  20.290  0.00  0.00    +0.000 C 
BRANCH  21  22
ATOM     22  C   UNL     1       0.800  14.953  18.764  0.00  0.00    +0.000 C 
ATOM     23  C   UNL     1       1.886  13.921  18.414  0.00  0.00    +0.000 C 
ATOM     24  C   UNL     1       3.279  14.391  18.833  0.00  0.00    +0.000 C 
ATOM     25  C   UNL     1       3.609  15.743  18.228  0.00  0.00    +0.000 C 
ATOM     26  F   UNL     1       3.753  15.600  16.883  0.00  0.00    +0.000 F 
ATOM     27  F   UNL     1       4.805  16.174  18.697  0.00  0.00    +0.000 F 
ATOM     28  C   UNL     1       2.548  16.800  18.498  0.00  0.00    +0.000 C 
ATOM     29  C   UNL     1       1.148  16.311  18.126  0.00  0.00    +0.000 C 
ENDBRANCH  21  22
ENDBRANCH  19  21
ENDBRANCH   9  17
BRANCH   1  31
ATOM     30  C   UNL     1       4.115   2.668  20.077  0.00  0.00    +0.000 C 
ATOM     31  N   UNL     1       4.065   4.013  19.515  0.00  0.00    +0.000 NA
ATOM     32  C   UNL     1       4.860   4.054  18.279  0.00  0.00    +0.000 C 
ENDBRANCH   1  31
TORSDOF 4
ENDMDL
