MODEL 1
REMARK VINA RESULT:      -7.6      0.000      0.000
REMARK  Name = 
REMARK  8 active torsions:
REMARK  status: ('A' for Active; 'I' for Inactive)
REMARK    1  A    between atoms: C_1  and  C_2
REMARK    2  A    between atoms: C_5  and  S_6
REMARK    3  A    between atoms: S_6  and  N_9
REMARK    4  A    between atoms: C_14  and  C_15
REMARK    5  A    between atoms: N_17  and  CA_18
REMARK    6  A    between atoms: CA_18  and  C_19
REMARK    7  A    between atoms: CA_18  and  CB_21
REMARK    8  A    between atoms: CB_21  and  CG_22
REMARK                            x       y       z     vdW  Elec       q    Type
REMARK                         _______ _______ _______ _____ _____    ______ ____
ROOT
ATOM      1  N   UNK A   0       4.724   3.692  17.570  0.00  0.00    +0.000 NA
ATOM      2  C   UNK A   0       5.054   3.762  19.012  0.00  0.00    +0.000 C 
ATOM      3  C   UNK A   0       4.497   2.552  19.765  0.00  0.00    +0.000 C 
ATOM      4  C   UNK A   0       3.033   2.266  19.447  0.00  0.00    +0.000 C 
ATOM      5  C   UNK A   0       2.831   2.163  17.937  0.00  0.00    +0.000 C 
ATOM      6  C   UNK A   0       3.301   3.443  17.233  0.00  0.00    +0.000 C 
ENDROOT
BRANCH   6   7
ATOM      7  C   UNK A   0       2.382   4.602  17.626  0.00  0.00    +0.000 C 
ATOM      8  O   UNK A   0       1.161   4.580  17.467  0.00  0.00    +0.000 OA
ATOM      9  N   PHE A   1       2.993   5.723  18.138  0.00  0.00    +0.000 N 
ATOM     10  H   PHE A   1       3.991   5.737  18.327  0.00  0.00    +0.000 HD
BRANCH   9  11
ATOM     11  CA  PHE A   1       2.173   6.893  18.461  0.00  0.00    +0.000 C 
BRANCH  11  12
ATOM     12  C   PHE A   1       2.333   7.194  19.946  0.00  0.00    +0.000 C 
ATOM     13  O   PHE A   1       1.392   7.341  20.722  0.00  0.00    +0.000 OA
ENDBRANCH  11  12
BRANCH  11  14
ATOM     14  CB  PHE A   1       2.517   8.115  17.619  0.00  0.00    +0.000 C 
BRANCH  14  15
ATOM     15  CG  PHE A   1       1.693   9.358  17.879  0.00  0.00    +0.000 A 
ATOM     16  CD1 PHE A   1       0.290   9.314  17.935  0.00  0.00    +0.000 A 
ATOM     17  CE1 PHE A   1      -0.441  10.435  18.339  0.00  0.00    +0.000 A 
ATOM     18  CZ  PHE A   1       0.219  11.610  18.693  0.00  0.00    +0.000 A 
ATOM     19  CE2 PHE A   1       1.607  11.676  18.614  0.00  0.00    +0.000 A 
ATOM     20  CD2 PHE A   1       2.340  10.560  18.207  0.00  0.00    +0.000 A 
ENDBRANCH  14  15
ENDBRANCH  11  14
ENDBRANCH   9  11
ENDBRANCH   6   7
BRANCH   1  21
ATOM     21  S   UNK A   0       5.649   4.598  16.485  0.00  0.00    +0.000 S 
ATOM     22  O   UNK A   0       4.695   5.216  15.579  0.00  0.00    +0.000 OA
ATOM     23  O   UNK A   0       6.710   3.761  15.963  0.00  0.00    +0.000 OA
BRANCH  21  28
ATOM     24  C   UNK A   0       8.906   9.217  18.670  0.00  0.00    +0.000 C 
ATOM     25  C   UNK A   0       7.966   8.098  18.323  0.00  0.00    +0.000 A 
ATOM     26  C   UNK A   0       8.253   6.785  18.718  0.00  0.00    +0.000 A 
ATOM     27  C   UNK A   0       7.510   5.708  18.219  0.00  0.00    +0.000 A 
ATOM     28  C   UNK A   0       6.441   5.942  17.354  0.00  0.00    +0.000 A 
ATOM     29  C   UNK A   0       6.103   7.260  17.011  0.00  0.00    +0.000 A 
ATOM     30  C   UNK A   0       6.871   8.330  17.483  0.00  0.00    +0.000 A 
ENDBRANCH  21  28
ENDBRANCH   1  21
TORSDOF 7
ENDMDL
MODEL 2
REMARK VINA RESULT:      -7.6      1.972      2.739
REMARK  Name = 
REMARK  8 active torsions:
REMARK  status: ('A' for Active; 'I' for Inactive)
REMARK    1  A    between atoms: C_1  and  C_2
REMARK    2  A    between atoms: C_5  and  S_6
REMARK    3  A    between atoms: S_6  and  N_9
REMARK    4  A    between atoms: C_14  and  C_15
REMARK    5  A    between atoms: N_17  and  CA_18
REMARK    6  A    between atoms: CA_18  and  C_19
REMARK    7  A    between atoms: CA_18  and  CB_21
REMARK    8  A    between atoms: CB_21  and  CG_22
REMARK                            x       y       z     vdW  Elec       q    Type
REMARK                         _______ _______ _______ _____ _____    ______ ____
ROOT
ATOM      1  N   UNK A   0       2.743   2.884  19.169  0.00  0.00    +0.000 NA
ATOM      2  C   UNK A   0       3.492   2.725  20.437  0.00  0.00    +0.000 C 
ATOM      3  C   UNK A   0       2.549   2.392  21.596  0.00  0.00    +0.000 C 
ATOM      4  C   UNK A   0       1.336   3.313  21.669  0.00  0.00    +0.000 C 
ATOM      5  C   UNK A   0       0.620   3.351  20.321  0.00  0.00    +0.000 C 
ATOM      6  C   UNK A   0       1.575   3.797  19.206  0.00  0.00    +0.000 C 
ENDROOT
BRANCH   6   7
ATOM      7  C   UNK A   0       1.966   5.260  19.432  0.00  0.00    +0.000 C 
ATOM      8  O   UNK A   0       1.942   5.802  20.537  0.00  0.00    +0.000 OA
ATOM      9  N   PHE A   1       2.312   5.981  18.314  0.00  0.00    +0.000 N 
ATOM     10  H   PHE A   1       2.391   5.535  17.404  0.00  0.00    +0.000 HD
BRANCH   9  11
ATOM     11  CA  PHE A   1       2.622   7.406  18.457  0.00  0.00    +0.000 C 
BRANCH  11  12
ATOM     12  C   PHE A   1       3.866   7.710  17.632  0.00  0.00    +0.000 C 
ATOM     13  O   PHE A   1       4.081   7.243  16.516  0.00  0.00    +0.000 OA
ENDBRANCH  11  12
BRANCH  11  14
ATOM     14  CB  PHE A   1       1.466   8.312  18.051  0.00  0.00    +0.000 C 
BRANCH  14  15
ATOM     15  CG  PHE A   1       1.158   9.460  18.988  0.00  0.00    +0.000 A 
ATOM     16  CD1 PHE A   1       0.774   9.241  20.322  0.00  0.00    +0.000 A 
ATOM     17  CE1 PHE A   1       0.656  10.311  21.213  0.00  0.00    +0.000 A 
ATOM     18  CZ  PHE A   1       0.921  11.610  20.785  0.00  0.00    +0.000 A 
ATOM     19  CE2 PHE A   1       1.273  11.845  19.459  0.00  0.00    +0.000 A 
ATOM     20  CD2 PHE A   1       1.389  10.779  18.565  0.00  0.00    +0.000 A 
ENDBRANCH  14  15
ENDBRANCH  11  14
ENDBRANCH   9  11
ENDBRANCH   6   7
BRANCH   1  21
ATOM     21  S   UNK A   0       3.583   2.730  17.712  0.00  0.00    +0.000 S 
ATOM     22  O   UNK A   0       2.703   3.278  16.693  0.00  0.00    +0.000 OA
ATOM     23  O   UNK A   0       4.071   1.371  17.596  0.00  0.00    +0.000 OA
BRANCH  21  28
ATOM     24  C   UNK A   0       7.841   7.041  17.751  0.00  0.00    +0.000 C 
ATOM     25  C   UNK A   0       6.965   5.821  17.772  0.00  0.00    +0.000 A 
ATOM     26  C   UNK A   0       6.639   5.165  16.578  0.00  0.00    +0.000 A 
ATOM     27  C   UNK A   0       5.655   4.169  16.553  0.00  0.00    +0.000 A 
ATOM     28  C   UNK A   0       5.022   3.788  17.737  0.00  0.00    +0.000 A 
ATOM     29  C   UNK A   0       5.396   4.391  18.948  0.00  0.00    +0.000 A 
ATOM     30  C   UNK A   0       6.352   5.411  18.961  0.00  0.00    +0.000 A 
ENDBRANCH  21  28
ENDBRANCH   1  21
TORSDOF 7
ENDMDL
MODEL 3
REMARK VINA RESULT:      -7.5      2.036      6.044
REMARK  Name = 
REMARK  8 active torsions:
REMARK  status: ('A' for Active; 'I' for Inactive)
REMARK    1  A    between atoms: C_1  and  C_2
REMARK    2  A    between atoms: C_5  and  S_6
REMARK    3  A    between atoms: S_6  and  N_9
REMARK    4  A    between atoms: C_14  and  C_15
REMARK    5  A    between atoms: N_17  and  CA_18
REMARK    6  A    between atoms: CA_18  and  C_19
REMARK    7  A    between atoms: CA_18  and  CB_21
REMARK    8  A    between atoms: CB_21  and  CG_22
REMARK                            x       y       z     vdW  Elec       q    Type
REMARK                         _______ _______ _______ _____ _____    ______ ____
ROOT
ATOM      1  N   UNK A   0       2.529   4.841  18.714  0.00  0.00    +0.000 NA
ATOM      2  C   UNK A   0       1.403   4.553  17.795  0.00  0.00    +0.000 C 
ATOM      3  C   UNK A   0       0.605   3.335  18.266  0.00  0.00    +0.000 C 
ATOM      4  C   UNK A   0       1.482   2.138  18.614  0.00  0.00    +0.000 C 
ATOM      5  C   UNK A   0       2.567   2.549  19.606  0.00  0.00    +0.000 C 
ATOM      6  C   UNK A   0       3.414   3.699  19.046  0.00  0.00    +0.000 C 
ENDROOT
BRANCH   6   7
ATOM      7  C   UNK A   0       4.218   3.196  17.844  0.00  0.00    +0.000 C 
ATOM      8  O   UNK A   0       4.428   2.002  17.625  0.00  0.00    +0.000 OA
ATOM      9  N   PHE A   1       4.751   4.156  17.018  0.00  0.00    +0.000 N 
ATOM     10  H   PHE A   1       4.541   5.142  17.153  0.00  0.00    +0.000 HD
BRANCH   9  11
ATOM     11  CA  PHE A   1       5.593   3.738  15.894  0.00  0.00    +0.000 C 
BRANCH  11  12
ATOM     12  C   PHE A   1       4.998   4.307  14.613  0.00  0.00    +0.000 C 
ATOM     13  O   PHE A   1       5.320   3.942  13.485  0.00  0.00    +0.000 OA
ENDBRANCH  11  12
BRANCH  11  14
ATOM     14  CB  PHE A   1       7.050   4.158  16.051  0.00  0.00    +0.000 C 
BRANCH  14  15
ATOM     15  CG  PHE A   1       7.322   5.259  17.053  0.00  0.00    +0.000 A 
ATOM     16  CD1 PHE A   1       7.770   4.978  18.354  0.00  0.00    +0.000 A 
ATOM     17  CE1 PHE A   1       8.172   6.009  19.207  0.00  0.00    +0.000 A 
ATOM     18  CZ  PHE A   1       8.133   7.332  18.771  0.00  0.00    +0.000 A 
ATOM     19  CE2 PHE A   1       7.663   7.627  17.494  0.00  0.00    +0.000 A 
ATOM     20  CD2 PHE A   1       7.257   6.600  16.641  0.00  0.00    +0.000 A 
ENDBRANCH  14  15
ENDBRANCH  11  14
ENDBRANCH   9  11
ENDBRANCH   6   7
BRANCH   1  21
ATOM     21  S   UNK A   0       3.202   6.390  18.705  0.00  0.00    +0.000 S 
ATOM     22  O   UNK A   0       3.293   6.769  17.304  0.00  0.00    +0.000 OA
ATOM     23  O   UNK A   0       4.389   6.388  19.536  0.00  0.00    +0.000 OA
BRANCH  21  28
ATOM     24  C   UNK A   0       0.102  10.803  21.467  0.00  0.00    +0.000 C 
ATOM     25  C   UNK A   0       0.658   9.621  20.726  0.00  0.00    +0.000 A 
ATOM     26  C   UNK A   0       0.949   8.433  21.408  0.00  0.00    +0.000 A 
ATOM     27  C   UNK A   0       1.667   7.406  20.783  0.00  0.00    +0.000 A 
ATOM     28  C   UNK A   0       2.059   7.543  19.450  0.00  0.00    +0.000 A 
ATOM     29  C   UNK A   0       1.708   8.701  18.741  0.00  0.00    +0.000 A 
ATOM     30  C   UNK A   0       1.024   9.739  19.380  0.00  0.00    +0.000 A 
ENDBRANCH  21  28
ENDBRANCH   1  21
TORSDOF 7
ENDMDL
MODEL 4
REMARK VINA RESULT:      -7.4      2.076      3.056
REMARK  Name = 
REMARK  8 active torsions:
REMARK  status: ('A' for Active; 'I' for Inactive)
REMARK    1  A    between atoms: C_1  and  C_2
REMARK    2  A    between atoms: C_5  and  S_6
REMARK    3  A    between atoms: S_6  and  N_9
REMARK    4  A    between atoms: C_14  and  C_15
REMARK    5  A    between atoms: N_17  and  CA_18
REMARK    6  A    between atoms: CA_18  and  C_19
REMARK    7  A    between atoms: CA_18  and  CB_21
REMARK    8  A    between atoms: CB_21  and  CG_22
REMARK                            x       y       z     vdW  Elec       q    Type
REMARK                         _______ _______ _______ _____ _____    ______ ____
ROOT
ATOM      1  N   UNK A   0       4.751   3.774  18.117  0.00  0.00    +0.000 NA
ATOM      2  C   UNK A   0       4.691   3.379  19.543  0.00  0.00    +0.000 C 
ATOM      3  C   UNK A   0       3.942   2.055  19.719  0.00  0.00    +0.000 C 
ATOM      4  C   UNK A   0       2.610   2.015  18.978  0.00  0.00    +0.000 C 
ATOM      5  C   UNK A   0       2.810   2.387  17.511  0.00  0.00    +0.000 C 
ATOM      6  C   UNK A   0       3.463   3.770  17.381  0.00  0.00    +0.000 C 
ENDROOT
BRANCH   6   7
ATOM      7  C   UNK A   0       2.487   4.838  17.879  0.00  0.00    +0.000 C 
ATOM      8  O   UNK A   0       1.299   4.610  18.116  0.00  0.00    +0.000 OA
ATOM      9  N   PHE A   1       2.986   6.112  18.011  0.00  0.00    +0.000 N 
ATOM     10  H   PHE A   1       3.975   6.306  17.874  0.00  0.00    +0.000 HD
BRANCH   9  11
ATOM     11  CA  PHE A   1       2.081   7.192  18.411  0.00  0.00    +0.000 C 
BRANCH  11  12
ATOM     12  C   PHE A   1       2.181   7.367  19.921  0.00  0.00    +0.000 C 
ATOM     13  O   PHE A   1       1.616   6.642  20.735  0.00  0.00    +0.000 OA
ENDBRANCH  11  12
BRANCH  11  14
ATOM     14  CB  PHE A   1       2.363   8.505  17.691  0.00  0.00    +0.000 C 
BRANCH  14  15
ATOM     15  CG  PHE A   1       1.534   9.695  18.125  0.00  0.00    +0.000 A 
ATOM     16  CD1 PHE A   1       2.124  10.932  18.435  0.00  0.00    +0.000 A 
ATOM     17  CE1 PHE A   1       1.332  12.058  18.673  0.00  0.00    +0.000 A 
ATOM     18  CZ  PHE A   1      -0.056  11.964  18.602  0.00  0.00    +0.000 A 
ATOM     19  CE2 PHE A   1      -0.655  10.738  18.326  0.00  0.00    +0.000 A 
ATOM     20  CD2 PHE A   1       0.133   9.610  18.092  0.00  0.00    +0.000 A 
ENDBRANCH  14  15
ENDBRANCH  11  14
ENDBRANCH   9  11
ENDBRANCH   6   7
BRANCH   1  21
ATOM     21  S   UNK A   0       5.938   4.873  17.633  0.00  0.00    +0.000 S 
ATOM     22  O   UNK A   0       7.183   4.377  18.194  0.00  0.00    +0.000 OA
ATOM     23  O   UNK A   0       5.485   6.214  17.940  0.00  0.00    +0.000 OA
BRANCH  21  28
ATOM     24  C   UNK A   0       6.958   3.734  11.769  0.00  0.00    +0.000 C 
ATOM     25  C   UNK A   0       6.607   4.218  13.147  0.00  0.00    +0.000 A 
ATOM     26  C   UNK A   0       7.531   4.965  13.890  0.00  0.00    +0.000 A 
ATOM     27  C   UNK A   0       7.310   5.234  15.246  0.00  0.00    +0.000 A 
ATOM     28  C   UNK A   0       6.135   4.795  15.859  0.00  0.00    +0.000 A 
ATOM     29  C   UNK A   0       5.173   4.109  15.102  0.00  0.00    +0.000 A 
ATOM     30  C   UNK A   0       5.416   3.811  13.758  0.00  0.00    +0.000 A 
ENDBRANCH  21  28
ENDBRANCH   1  21
TORSDOF 7
ENDMDL
MODEL 5
REMARK VINA RESULT:      -7.3      2.046      2.762
REMARK  Name = 
REMARK  8 active torsions:
REMARK  status: ('A' for Active; 'I' for Inactive)
REMARK    1  A    between atoms: C_1  and  C_2
REMARK    2  A    between atoms: C_5  and  S_6
REMARK    3  A    between atoms: S_6  and  N_9
REMARK    4  A    between atoms: C_14  and  C_15
REMARK    5  A    between atoms: N_17  and  CA_18
REMARK    6  A    between atoms: CA_18  and  C_19
REMARK    7  A    between atoms: CA_18  and  CB_21
REMARK    8  A    between atoms: CB_21  and  CG_22
REMARK                            x       y       z     vdW  Elec       q    Type
REMARK                         _______ _______ _______ _____ _____    ______ ____
ROOT
ATOM      1  N   UNK A   0       2.909   3.172  19.057  0.00  0.00    +0.000 NA
ATOM      2  C   UNK A   0       3.824   2.821  20.167  0.00  0.00    +0.000 C 
ATOM      3  C   UNK A   0       3.041   2.440  21.427  0.00  0.00    +0.000 C 
ATOM      4  C   UNK A   0       1.945   3.439  21.780  0.00  0.00    +0.000 C 
ATOM      5  C   UNK A   0       1.039   3.676  20.575  0.00  0.00    +0.000 C 
ATOM      6  C   UNK A   0       1.851   4.164  19.367  0.00  0.00    +0.000 C 
ENDROOT
BRANCH   6   7
ATOM      7  C   UNK A   0       2.406   5.559  19.661  0.00  0.00    +0.000 C 
ATOM      8  O   UNK A   0       3.583   5.768  19.960  0.00  0.00    +0.000 OA
ATOM      9  N   PHE A   1       1.507   6.598  19.624  0.00  0.00    +0.000 N 
ATOM     10  H   PHE A   1       0.547   6.451  19.325  0.00  0.00    +0.000 HD
BRANCH   9  11
ATOM     11  CA  PHE A   1       1.964   7.946  19.972  0.00  0.00    +0.000 C 
BRANCH  11  12
ATOM     12  C   PHE A   1       2.136   8.740  18.684  0.00  0.00    +0.000 C 
ATOM     13  O   PHE A   1       1.833   8.316  17.571  0.00  0.00    +0.000 OA
ENDBRANCH  11  12
BRANCH  11  14
ATOM     14  CB  PHE A   1       1.026   8.665  20.933  0.00  0.00    +0.000 C 
BRANCH  14  15
ATOM     15  CG  PHE A   1       0.449   9.976  20.445  0.00  0.00    +0.000 A 
ATOM     16  CD1 PHE A   1      -0.714  10.023  19.657  0.00  0.00    +0.000 A 
ATOM     17  CE1 PHE A   1      -1.320  11.245  19.356  0.00  0.00    +0.000 A 
ATOM     18  CZ  PHE A   1      -0.777  12.434  19.839  0.00  0.00    +0.000 A 
ATOM     19  CE2 PHE A   1       0.391  12.404  20.596  0.00  0.00    +0.000 A 
ATOM     20  CD2 PHE A   1       1.002  11.186  20.895  0.00  0.00    +0.000 A 
ENDBRANCH  14  15
ENDBRANCH  11  14
ENDBRANCH   9  11
ENDBRANCH   6   7
BRANCH   1  21
ATOM     21  S   UNK A   0       3.498   3.109  17.475  0.00  0.00    +0.000 S 
ATOM     22  O   UNK A   0       2.397   3.541  16.630  0.00  0.00    +0.000 OA
ATOM     23  O   UNK A   0       4.118   1.818  17.259  0.00  0.00    +0.000 OA
BRANCH  21  28
ATOM     24  C   UNK A   0       7.606   7.560  17.644  0.00  0.00    +0.000 C 
ATOM     25  C   UNK A   0       6.687   6.398  17.396  0.00  0.00    +0.000 A 
ATOM     26  C   UNK A   0       5.468   6.591  16.733  0.00  0.00    +0.000 A 
ATOM     27  C   UNK A   0       4.508   5.572  16.688  0.00  0.00    +0.000 A 
ATOM     28  C   UNK A   0       4.783   4.333  17.268  0.00  0.00    +0.000 A 
ATOM     29  C   UNK A   0       6.030   4.111  17.870  0.00  0.00    +0.000 A 
ATOM     30  C   UNK A   0       6.971   5.143  17.945  0.00  0.00    +0.000 A 
ENDBRANCH  21  28
ENDBRANCH   1  21
TORSDOF 7
ENDMDL
MODEL 6
REMARK VINA RESULT:      -7.3      2.213      2.971
REMARK  Name = 
REMARK  8 active torsions:
REMARK  status: ('A' for Active; 'I' for Inactive)
REMARK    1  A    between atoms: C_1  and  C_2
REMARK    2  A    between atoms: C_5  and  S_6
REMARK    3  A    between atoms: S_6  and  N_9
REMARK    4  A    between atoms: C_14  and  C_15
REMARK    5  A    between atoms: N_17  and  CA_18
REMARK    6  A    between atoms: CA_18  and  C_19
REMARK    7  A    between atoms: CA_18  and  CB_21
REMARK    8  A    between atoms: CB_21  and  CG_22
REMARK                            x       y       z     vdW  Elec       q    Type
REMARK                         _______ _______ _______ _____ _____    ______ ____
ROOT
ATOM      1  N   UNK A   0       2.833   2.938  19.201  0.00  0.00    +0.000 NA
ATOM      2  C   UNK A   0       3.584   2.704  20.455  0.00  0.00    +0.000 C 
ATOM      3  C   UNK A   0       2.654   2.231  21.575  0.00  0.00    +0.000 C 
ATOM      4  C   UNK A   0       1.401   3.088  21.719  0.00  0.00    +0.000 C 
ATOM      5  C   UNK A   0       0.688   3.210  20.375  0.00  0.00    +0.000 C 
ATOM      6  C   UNK A   0       1.625   3.793  19.308  0.00  0.00    +0.000 C 
ENDROOT
BRANCH   6   7
ATOM      7  C   UNK A   0       1.950   5.246  19.661  0.00  0.00    +0.000 C 
ATOM      8  O   UNK A   0       2.060   5.652  20.819  0.00  0.00    +0.000 OA
ATOM      9  N   PHE A   1       2.073   6.120  18.607  0.00  0.00    +0.000 N 
ATOM     10  H   PHE A   1       2.040   5.792  17.645  0.00  0.00    +0.000 HD
BRANCH   9  11
ATOM     11  CA  PHE A   1       2.308   7.539  18.885  0.00  0.00    +0.000 C 
BRANCH  11  12
ATOM     12  C   PHE A   1       3.300   8.070  17.858  0.00  0.00    +0.000 C 
ATOM     13  O   PHE A   1       4.195   7.394  17.355  0.00  0.00    +0.000 OA
ENDBRANCH  11  12
BRANCH  11  14
ATOM     14  CB  PHE A   1       1.029   8.368  18.884  0.00  0.00    +0.000 C 
BRANCH  14  15
ATOM     15  CG  PHE A   1       0.757   9.175  20.135  0.00  0.00    +0.000 A 
ATOM     16  CD1 PHE A   1       0.809  10.579  20.133  0.00  0.00    +0.000 A 
ATOM     17  CE1 PHE A   1       0.396  11.308  21.251  0.00  0.00    +0.000 A 
ATOM     18  CZ  PHE A   1      -0.076  10.645  22.383  0.00  0.00    +0.000 A 
ATOM     19  CE2 PHE A   1      -0.104   9.254  22.409  0.00  0.00    +0.000 A 
ATOM     20  CD2 PHE A   1       0.312   8.522  21.296  0.00  0.00    +0.000 A 
ENDBRANCH  14  15
ENDBRANCH  11  14
ENDBRANCH   9  11
ENDBRANCH   6   7
BRANCH   1  21
ATOM     21  S   UNK A   0       3.682   2.947  17.741  0.00  0.00    +0.000 S 
ATOM     22  O   UNK A   0       2.823   3.634  16.792  0.00  0.00    +0.000 OA
ATOM     23  O   UNK A   0       4.145   1.603  17.462  0.00  0.00    +0.000 OA
BRANCH  21  28
ATOM     24  C   UNK A   0       8.045   7.133  18.139  0.00  0.00    +0.000 C 
ATOM     25  C   UNK A   0       7.132   5.941  18.101  0.00  0.00    +0.000 A 
ATOM     26  C   UNK A   0       6.940   5.236  16.905  0.00  0.00    +0.000 A 
ATOM     27  C   UNK A   0       5.934   4.268  16.798  0.00  0.00    +0.000 A 
ATOM     28  C   UNK A   0       5.141   3.964  17.905  0.00  0.00    +0.000 A 
ATOM     29  C   UNK A   0       5.377   4.615  19.126  0.00  0.00    +0.000 A 
ATOM     30  C   UNK A   0       6.357   5.607  19.217  0.00  0.00    +0.000 A 
ENDBRANCH  21  28
ENDBRANCH   1  21
TORSDOF 7
ENDMDL
MODEL 7
REMARK VINA RESULT:      -7.2      2.774      3.813
REMARK  Name = 
REMARK  8 active torsions:
REMARK  status: ('A' for Active; 'I' for Inactive)
REMARK    1  A    between atoms: C_1  and  C_2
REMARK    2  A    between atoms: C_5  and  S_6
REMARK    3  A    between atoms: S_6  and  N_9
REMARK    4  A    between atoms: C_14  and  C_15
REMARK    5  A    between atoms: N_17  and  CA_18
REMARK    6  A    between atoms: CA_18  and  C_19
REMARK    7  A    between atoms: CA_18  and  CB_21
REMARK    8  A    between atoms: CB_21  and  CG_22
REMARK                            x       y       z     vdW  Elec       q    Type
REMARK                         _______ _______ _______ _____ _____    ______ ____
ROOT
ATOM      1  N   UNK A   0       3.961   4.559  18.404  0.00  0.00    +0.000 NA
ATOM      2  C   UNK A   0       3.739   3.833  19.675  0.00  0.00    +0.000 C 
ATOM      3  C   UNK A   0       2.435   3.031  19.631  0.00  0.00    +0.000 C 
ATOM      4  C   UNK A   0       1.246   3.843  19.130  0.00  0.00    +0.000 C 
ATOM      5  C   UNK A   0       1.579   4.496  17.792  0.00  0.00    +0.000 C 
ATOM      6  C   UNK A   0       2.829   5.379  17.909  0.00  0.00    +0.000 C 
ENDROOT
BRANCH   6   7
ATOM      7  C   UNK A   0       2.519   6.576  18.810  0.00  0.00    +0.000 C 
ATOM      8  O   UNK A   0       2.480   6.504  20.040  0.00  0.00    +0.000 OA
ATOM      9  N   PHE A   1       2.231   7.762  18.178  0.00  0.00    +0.000 N 
ATOM     10  H   PHE A   1       2.314   7.853  17.169  0.00  0.00    +0.000 HD
BRANCH   9  11
ATOM     11  CA  PHE A   1       1.852   8.924  18.985  0.00  0.00    +0.000 C 
BRANCH  11  12
ATOM     12  C   PHE A   1       2.473  10.166  18.358  0.00  0.00    +0.000 C 
ATOM     13  O   PHE A   1       2.087  10.670  17.306  0.00  0.00    +0.000 OA
ENDBRANCH  11  12
BRANCH  11  14
ATOM     14  CB  PHE A   1       0.344   9.085  19.130  0.00  0.00    +0.000 C 
BRANCH  14  15
ATOM     15  CG  PHE A   1      -0.150   9.550  20.483  0.00  0.00    +0.000 A 
ATOM     16  CD1 PHE A   1      -0.087   8.721  21.616  0.00  0.00    +0.000 A 
ATOM     17  CE1 PHE A   1      -0.393   9.224  22.883  0.00  0.00    +0.000 A 
ATOM     18  CZ  PHE A   1      -0.763  10.559  23.035  0.00  0.00    +0.000 A 
ATOM     19  CE2 PHE A   1      -0.858  11.383  21.918  0.00  0.00    +0.000 A 
ATOM     20  CD2 PHE A   1      -0.557  10.883  20.650  0.00  0.00    +0.000 A 
ENDBRANCH  14  15
ENDBRANCH  11  14
ENDBRANCH   9  11
ENDBRANCH   6   7
BRANCH   1  21
ATOM     21  S   UNK A   0       5.529   5.061  18.025  0.00  0.00    +0.000 S 
ATOM     22  O   UNK A   0       6.413   4.098  18.661  0.00  0.00    +0.000 OA
ATOM     23  O   UNK A   0       5.653   6.472  18.327  0.00  0.00    +0.000 OA
BRANCH  21  28
ATOM     24  C   UNK A   0       6.783   3.611  12.277  0.00  0.00    +0.000 C 
ATOM     25  C   UNK A   0       6.381   4.170  13.612  0.00  0.00    +0.000 A 
ATOM     26  C   UNK A   0       7.286   4.938  14.357  0.00  0.00    +0.000 A 
ATOM     27  C   UNK A   0       7.010   5.278  15.687  0.00  0.00    +0.000 A 
ATOM     28  C   UNK A   0       5.802   4.890  16.268  0.00  0.00    +0.000 A 
ATOM     29  C   UNK A   0       4.861   4.184  15.504  0.00  0.00    +0.000 A 
ATOM     30  C   UNK A   0       5.157   3.814  14.188  0.00  0.00    +0.000 A 
ENDBRANCH  21  28
ENDBRANCH   1  21
TORSDOF 7
ENDMDL
MODEL 8
REMARK VINA RESULT:      -7.1      2.278      3.120
REMARK  Name = 
REMARK  8 active torsions:
REMARK  status: ('A' for Active; 'I' for Inactive)
REMARK    1  A    between atoms: C_1  and  C_2
REMARK    2  A    between atoms: C_5  and  S_6
REMARK    3  A    between atoms: S_6  and  N_9
REMARK    4  A    between atoms: C_14  and  C_15
REMARK    5  A    between atoms: N_17  and  CA_18
REMARK    6  A    between atoms: CA_18  and  C_19
REMARK    7  A    between atoms: CA_18  and  CB_21
REMARK    8  A    between atoms: CB_21  and  CG_22
REMARK                            x       y       z     vdW  Elec       q    Type
REMARK                         _______ _______ _______ _____ _____    ______ ____
ROOT
ATOM      1  N   UNK A   0       4.852   3.652  18.076  0.00  0.00    +0.000 NA
ATOM      2  C   UNK A   0       4.829   3.278  19.508  0.00  0.00    +0.000 C 
ATOM      3  C   UNK A   0       4.208   1.892  19.707  0.00  0.00    +0.000 C 
ATOM      4  C   UNK A   0       2.886   1.713  18.968  0.00  0.00    +0.000 C 
ATOM      5  C   UNK A   0       3.052   2.078  17.495  0.00  0.00    +0.000 C 
ATOM      6  C   UNK A   0       3.571   3.514  17.340  0.00  0.00    +0.000 C 
ENDROOT
BRANCH   6   7
ATOM      7  C   UNK A   0       2.497   4.493  17.820  0.00  0.00    +0.000 C 
ATOM      8  O   UNK A   0       1.356   4.524  17.358  0.00  0.00    +0.000 OA
ATOM      9  N   PHE A   1       2.878   5.396  18.784  0.00  0.00    +0.000 N 
ATOM     10  H   PHE A   1       3.797   5.349  19.215  0.00  0.00    +0.000 HD
BRANCH   9  11
ATOM     11  CA  PHE A   1       1.915   6.408  19.228  0.00  0.00    +0.000 C 
BRANCH  11  12
ATOM     12  C   PHE A   1       1.612   6.165  20.701  0.00  0.00    +0.000 C 
ATOM     13  O   PHE A   1       1.812   5.098  21.276  0.00  0.00    +0.000 OA
ENDBRANCH  11  12
BRANCH  11  14
ATOM     14  CB  PHE A   1       2.401   7.835  19.001  0.00  0.00    +0.000 C 
BRANCH  14  15
ATOM     15  CG  PHE A   1       1.358   8.923  19.140  0.00  0.00    +0.000 A 
ATOM     16  CD1 PHE A   1       0.684   9.447  18.024  0.00  0.00    +0.000 A 
ATOM     17  CE1 PHE A   1      -0.386  10.329  18.189  0.00  0.00    +0.000 A 
ATOM     18  CZ  PHE A   1      -0.799  10.697  19.468  0.00  0.00    +0.000 A 
ATOM     19  CE2 PHE A   1      -0.121  10.209  20.582  0.00  0.00    +0.000 A 
ATOM     20  CD2 PHE A   1       0.952   9.331  20.421  0.00  0.00    +0.000 A 
ENDBRANCH  14  15
ENDBRANCH  11  14
ENDBRANCH   9  11
ENDBRANCH   6   7
BRANCH   1  21
ATOM     21  S   UNK A   0       5.930   4.850  17.571  0.00  0.00    +0.000 S 
ATOM     22  O   UNK A   0       7.216   4.484  18.140  0.00  0.00    +0.000 OA
ATOM     23  O   UNK A   0       5.351   6.148  17.855  0.00  0.00    +0.000 OA
BRANCH  21  28
ATOM     24  C   UNK A   0       6.928   3.654  11.716  0.00  0.00    +0.000 C 
ATOM     25  C   UNK A   0       6.595   4.158  13.091  0.00  0.00    +0.000 A 
ATOM     26  C   UNK A   0       7.553   4.852  13.840  0.00  0.00    +0.000 A 
ATOM     27  C   UNK A   0       7.337   5.133  15.195  0.00  0.00    +0.000 A 
ATOM     28  C   UNK A   0       6.135   4.761  15.799  0.00  0.00    +0.000 A 
ATOM     29  C   UNK A   0       5.143   4.129  15.035  0.00  0.00    +0.000 A 
ATOM     30  C   UNK A   0       5.378   3.817  13.693  0.00  0.00    +0.000 A 
ENDBRANCH  21  28
ENDBRANCH   1  21
TORSDOF 7
ENDMDL
MODEL 9
REMARK VINA RESULT:      -7.1      2.666      3.701
REMARK  Name = 
REMARK  8 active torsions:
REMARK  status: ('A' for Active; 'I' for Inactive)
REMARK    1  A    between atoms: C_1  and  C_2
REMARK    2  A    between atoms: C_5  and  S_6
REMARK    3  A    between atoms: S_6  and  N_9
REMARK    4  A    between atoms: C_14  and  C_15
REMARK    5  A    between atoms: N_17  and  CA_18
REMARK    6  A    between atoms: CA_18  and  C_19
REMARK    7  A    between atoms: CA_18  and  CB_21
REMARK    8  A    between atoms: CB_21  and  CG_22
REMARK                            x       y       z     vdW  Elec       q    Type
REMARK                         _______ _______ _______ _____ _____    ______ ____
ROOT
ATOM      1  N   UNK A   0       3.595   4.338  18.946  0.00  0.00    +0.000 NA
ATOM      2  C   UNK A   0       2.964   3.766  20.158  0.00  0.00    +0.000 C 
ATOM      3  C   UNK A   0       1.589   3.175  19.836  0.00  0.00    +0.000 C 
ATOM      4  C   UNK A   0       0.704   4.115  19.026  0.00  0.00    +0.000 C 
ATOM      5  C   UNK A   0       1.444   4.593  17.779  0.00  0.00    +0.000 C 
ATOM      6  C   UNK A   0       2.765   5.278  18.155  0.00  0.00    +0.000 C 
ENDROOT
BRANCH   6   7
ATOM      7  C   UNK A   0       2.464   6.581  18.899  0.00  0.00    +0.000 C 
ATOM      8  O   UNK A   0       2.478   6.676  20.128  0.00  0.00    +0.000 OA
ATOM      9  N   PHE A   1       2.121   7.664  18.125  0.00  0.00    +0.000 N 
ATOM     10  H   PHE A   1       2.159   7.618  17.111  0.00  0.00    +0.000 HD
BRANCH   9  11
ATOM     11  CA  PHE A   1       1.748   8.918  18.784  0.00  0.00    +0.000 C 
BRANCH  11  12
ATOM     12  C   PHE A   1       2.278  10.075  17.947  0.00  0.00    +0.000 C 
ATOM     13  O   PHE A   1       2.103  11.259  18.223  0.00  0.00    +0.000 OA
ENDBRANCH  11  12
BRANCH  11  14
ATOM     14  CB  PHE A   1       0.246   9.052  19.007  0.00  0.00    +0.000 C 
BRANCH  14  15
ATOM     15  CG  PHE A   1      -0.183   9.556  20.369  0.00  0.00    +0.000 A 
ATOM     16  CD1 PHE A   1      -0.046   8.768  21.524  0.00  0.00    +0.000 A 
ATOM     17  CE1 PHE A   1      -0.293   9.310  22.787  0.00  0.00    +0.000 A 
ATOM     18  CZ  PHE A   1      -0.677  10.643  22.914  0.00  0.00    +0.000 A 
ATOM     19  CE2 PHE A   1      -0.846  11.427  21.776  0.00  0.00    +0.000 A 
ATOM     20  CD2 PHE A   1      -0.604  10.888  20.512  0.00  0.00    +0.000 A 
ENDBRANCH  14  15
ENDBRANCH  11  14
ENDBRANCH   9  11
ENDBRANCH   6   7
BRANCH   1  21
ATOM     21  S   UNK A   0       5.270   4.558  18.936  0.00  0.00    +0.000 S 
ATOM     22  O   UNK A   0       5.817   3.439  19.685  0.00  0.00    +0.000 OA
ATOM     23  O   UNK A   0       5.565   5.918  19.339  0.00  0.00    +0.000 OA
BRANCH  21  28
ATOM     24  C   UNK A   0       7.004   4.819  13.135  0.00  0.00    +0.000 C 
ATOM     25  C   UNK A   0       6.688   4.547  14.578  0.00  0.00    +0.000 A 
ATOM     26  C   UNK A   0       5.505   3.885  14.930  0.00  0.00    +0.000 A 
ATOM     27  C   UNK A   0       5.090   3.819  16.266  0.00  0.00    +0.000 A 
ATOM     28  C   UNK A   0       5.885   4.377  17.268  0.00  0.00    +0.000 A 
ATOM     29  C   UNK A   0       7.106   4.978  16.930  0.00  0.00    +0.000 A 
ATOM     30  C   UNK A   0       7.497   5.074  15.591  0.00  0.00    +0.000 A 
ENDBRANCH  21  28
ENDBRANCH   1  21
TORSDOF 7
ENDMDL
