MODEL 1
REMARK VINA RESULT:      -5.8      0.000      0.000
REMARK  Name = 
REMARK  6 active torsions:
REMARK  status: ('A' for Active; 'I' for Inactive)
REMARK    1  A    between atoms: C_1  and  O_2
REMARK    2  A    between atoms: O_2  and  C_3
REMARK    3  A    between atoms: C_3  and  C_5
REMARK    4  A    between atoms: C_5  and  N_6
REMARK    5  A    between atoms: C_13  and  C_14
REMARK    6  A    between atoms: N_22  and  C_23
REMARK                            x       y       z     vdW  Elec       q    Type
REMARK                         _______ _______ _______ _____ _____    ______ ____
ROOT
ATOM      1  N   UNL     1       8.245  12.255  23.107  0.00  0.00    +0.000 NA
ATOM      2  C   UNL     1       8.818  12.243  21.754  0.00  0.00    +0.000 C 
ATOM      3  C   UNL     1       8.446  13.483  20.943  0.00  0.00    +0.000 C 
ATOM      4  C   UNL     1       8.904  14.801  21.614  0.00  0.00    +0.000 C 
ATOM      5  C   UNL     1       8.373  14.781  23.075  0.00  0.00    +0.000 C 
ATOM      6  C   UNL     1       8.686  13.469  23.818  0.00  0.00    +0.000 C 
ATOM      7  C   UNL     1      10.444  15.018  21.632  0.00  0.00    +0.000 C 
ATOM      8  C   UNL     1      11.087  15.301  20.254  0.00  0.00    +0.000 C 
ATOM      9  C   UNL     1      10.322  16.419  19.541  0.00  0.00    +0.000 C 
ATOM     10  O   UNL     1      10.887  17.231  18.812  0.00  0.00    +0.000 OA
ATOM     11  N   UNL     1       8.936  16.276  19.593  0.00  0.00    +0.000 N 
ATOM     12  C   UNL     1       8.134  16.794  18.503  0.00  0.00    +0.000 C 
ATOM     13  C   UNL     1       8.278  15.988  20.857  0.00  0.00    +0.000 C 
ENDROOT
BRANCH   8  14
ATOM     14  C   UNL     1      11.236  14.052  19.374  0.00  0.00    +0.000 A 
ATOM     15  C   UNL     1      10.653  13.965  18.095  0.00  0.00    +0.000 A 
ATOM     16  C   UNL     1      10.594  12.754  17.407  0.00  0.00    +0.000 A 
ATOM     17  C   UNL     1      11.172  11.618  17.955  0.00  0.00    +0.000 A 
ATOM     18  C   UNL     1      11.849  11.704  19.172  0.00  0.00    +0.000 A 
ATOM     19  C   UNL     1      11.890  12.915  19.873  0.00  0.00    +0.000 A 
ENDBRANCH   8  14
BRANCH   1  20
ATOM     20  C   UNL     1       6.766  12.137  23.146  0.00  0.00    +0.000 C 
BRANCH  20  21
ATOM     21  C   UNL     1       6.140  12.011  24.536  0.00  0.00    +0.000 C 
ATOM     22  O   UNL     1       6.325  11.138  25.371  0.00  0.00    +0.000 OA
BRANCH  21  24
ATOM     23  C   UNL     1       5.558  13.876  25.859  0.00  0.00    +0.000 C 
ATOM     24  O   UNL     1       5.292  13.077  24.706  0.00  0.00    +0.000 OA
ENDBRANCH  21  24
ENDBRANCH  20  21
ENDBRANCH   1  20
TORSDOF 4
ENDMDL
MODEL 2
REMARK VINA RESULT:      -5.6      9.745     12.470
REMARK  Name = 
REMARK  6 active torsions:
REMARK  status: ('A' for Active; 'I' for Inactive)
REMARK    1  A    between atoms: C_1  and  O_2
REMARK    2  A    between atoms: O_2  and  C_3
REMARK    3  A    between atoms: C_3  and  C_5
REMARK    4  A    between atoms: C_5  and  N_6
REMARK    5  A    between atoms: C_13  and  C_14
REMARK    6  A    between atoms: N_22  and  C_23
REMARK                            x       y       z     vdW  Elec       q    Type
REMARK                         _______ _______ _______ _____ _____    ______ ____
ROOT
ATOM      1  N   UNL     1       5.835   6.181  16.117  0.00  0.00    +0.000 NA
ATOM      2  C   UNL     1       4.571   6.681  16.676  0.00  0.00    +0.000 C 
ATOM      3  C   UNL     1       3.612   5.559  17.068  0.00  0.00    +0.000 C 
ATOM      4  C   UNL     1       4.214   4.589  18.114  0.00  0.00    +0.000 C 
ATOM      5  C   UNL     1       5.592   4.122  17.567  0.00  0.00    +0.000 C 
ATOM      6  C   UNL     1       6.484   5.284  17.091  0.00  0.00    +0.000 C 
ATOM      7  C   UNL     1       4.407   5.203  19.530  0.00  0.00    +0.000 C 
ATOM      8  C   UNL     1       3.102   5.495  20.307  0.00  0.00    +0.000 C 
ATOM      9  C   UNL     1       2.200   4.257  20.296  0.00  0.00    +0.000 C 
ATOM     10  O   UNL     1       1.479   3.970  21.248  0.00  0.00    +0.000 OA
ATOM     11  N   UNL     1       2.089   3.652  19.045  0.00  0.00    +0.000 N 
ATOM     12  C   UNL     1       0.865   2.955  18.707  0.00  0.00    +0.000 C 
ATOM     13  C   UNL     1       3.281   3.372  18.260  0.00  0.00    +0.000 C 
ENDROOT
BRANCH   8  14
ATOM     14  C   UNL     1       2.364   6.750  19.823  0.00  0.00    +0.000 A 
ATOM     15  C   UNL     1       2.517   7.251  18.516  0.00  0.00    +0.000 A 
ATOM     16  C   UNL     1       2.034   8.509  18.160  0.00  0.00    +0.000 A 
ATOM     17  C   UNL     1       1.331   9.267  19.086  0.00  0.00    +0.000 A 
ATOM     18  C   UNL     1       1.073   8.747  20.354  0.00  0.00    +0.000 A 
ATOM     19  C   UNL     1       1.577   7.492  20.718  0.00  0.00    +0.000 A 
ENDBRANCH   8  14
BRANCH   1  20
ATOM     20  C   UNL     1       5.697   5.507  14.801  0.00  0.00    +0.000 C 
BRANCH  20  21
ATOM     21  C   UNL     1       6.985   4.944  14.198  0.00  0.00    +0.000 C 
ATOM     22  O   UNL     1       8.064   5.504  14.065  0.00  0.00    +0.000 OA
BRANCH  21  24
ATOM     23  C   UNL     1       6.236   3.524  12.470  0.00  0.00    +0.000 C 
ATOM     24  O   UNL     1       6.728   3.655  13.803  0.00  0.00    +0.000 OA
ENDBRANCH  21  24
ENDBRANCH  20  21
ENDBRANCH   1  20
TORSDOF 4
ENDMDL
MODEL 3
REMARK VINA RESULT:      -5.6      1.229      1.433
REMARK  Name = 
REMARK  6 active torsions:
REMARK  status: ('A' for Active; 'I' for Inactive)
REMARK    1  A    between atoms: C_1  and  O_2
REMARK    2  A    between atoms: O_2  and  C_3
REMARK    3  A    between atoms: C_3  and  C_5
REMARK    4  A    between atoms: C_5  and  N_6
REMARK    5  A    between atoms: C_13  and  C_14
REMARK    6  A    between atoms: N_22  and  C_23
REMARK                            x       y       z     vdW  Elec       q    Type
REMARK                         _______ _______ _______ _____ _____    ______ ____
ROOT
ATOM      1  N   UNL     1       8.386  12.524  23.490  0.00  0.00    +0.000 NA
ATOM      2  C   UNL     1       9.018  12.278  22.187  0.00  0.00    +0.000 C 
ATOM      3  C   UNL     1       8.254  12.916  21.029  0.00  0.00    +0.000 C 
ATOM      4  C   UNL     1       8.107  14.450  21.176  0.00  0.00    +0.000 C 
ATOM      5  C   UNL     1       7.517  14.722  22.588  0.00  0.00    +0.000 C 
ATOM      6  C   UNL     1       8.261  13.976  23.712  0.00  0.00    +0.000 C 
ATOM      7  C   UNL     1       9.434  15.246  21.013  0.00  0.00    +0.000 C 
ATOM      8  C   UNL     1      10.018  15.271  19.581  0.00  0.00    +0.000 C 
ATOM      9  C   UNL     1       8.932  15.684  18.582  0.00  0.00    +0.000 C 
ATOM     10  O   UNL     1       9.188  16.351  17.583  0.00  0.00    +0.000 OA
ATOM     11  N   UNL     1       7.713  15.035  18.775  0.00  0.00    +0.000 N 
ATOM     12  C   UNL     1       6.858  14.792  17.631  0.00  0.00    +0.000 C 
ATOM     13  C   UNL     1       7.126  14.961  20.103  0.00  0.00    +0.000 C 
ENDROOT
BRANCH   8  14
ATOM     14  C   UNL     1      10.709  13.964  19.173  0.00  0.00    +0.000 A 
ATOM     15  C   UNL     1      10.308  13.226  18.042  0.00  0.00    +0.000 A 
ATOM     16  C   UNL     1      10.779  11.934  17.815  0.00  0.00    +0.000 A 
ATOM     17  C   UNL     1      11.710  11.375  18.679  0.00  0.00    +0.000 A 
ATOM     18  C   UNL     1      12.203  12.127  19.745  0.00  0.00    +0.000 A 
ATOM     19  C   UNL     1      11.714  13.417  19.986  0.00  0.00    +0.000 A 
ENDBRANCH   8  14
BRANCH   1  20
ATOM     20  C   UNL     1       7.072  11.856  23.668  0.00  0.00    +0.000 C 
BRANCH  20  21
ATOM     21  C   UNL     1       6.306  12.212  24.944  0.00  0.00    +0.000 C 
ATOM     22  O   UNL     1       5.294  12.889  25.053  0.00  0.00    +0.000 OA
BRANCH  21  24
ATOM     23  C   UNL     1       7.273  12.519  27.073  0.00  0.00    +0.000 C 
ATOM     24  O   UNL     1       6.967  11.632  25.998  0.00  0.00    +0.000 OA
ENDBRANCH  21  24
ENDBRANCH  20  21
ENDBRANCH   1  20
TORSDOF 4
ENDMDL
MODEL 4
REMARK VINA RESULT:      -5.6      1.452      1.743
REMARK  Name = 
REMARK  6 active torsions:
REMARK  status: ('A' for Active; 'I' for Inactive)
REMARK    1  A    between atoms: C_1  and  O_2
REMARK    2  A    between atoms: O_2  and  C_3
REMARK    3  A    between atoms: C_3  and  C_5
REMARK    4  A    between atoms: C_5  and  N_6
REMARK    5  A    between atoms: C_13  and  C_14
REMARK    6  A    between atoms: N_22  and  C_23
REMARK                            x       y       z     vdW  Elec       q    Type
REMARK                         _______ _______ _______ _____ _____    ______ ____
ROOT
ATOM      1  N   UNL     1       8.113  13.954  23.782  0.00  0.00    +0.000 NA
ATOM      2  C   UNL     1       8.301  13.258  22.501  0.00  0.00    +0.000 C 
ATOM      3  C   UNL     1       8.215  14.197  21.299  0.00  0.00    +0.000 C 
ATOM      4  C   UNL     1       9.260  15.337  21.350  0.00  0.00    +0.000 C 
ATOM      5  C   UNL     1       9.125  16.024  22.738  0.00  0.00    +0.000 C 
ATOM      6  C   UNL     1       9.115  15.028  23.911  0.00  0.00    +0.000 C 
ATOM      7  C   UNL     1      10.732  14.875  21.148  0.00  0.00    +0.000 C 
ATOM      8  C   UNL     1      11.084  14.391  19.723  0.00  0.00    +0.000 C 
ATOM      9  C   UNL     1      10.623  15.425  18.692  0.00  0.00    +0.000 C 
ATOM     10  O   UNL     1      11.248  15.633  17.655  0.00  0.00    +0.000 OA
ATOM     11  N   UNL     1       9.334  15.906  18.914  0.00  0.00    +0.000 N 
ATOM     12  C   UNL     1       8.534  16.325  17.781  0.00  0.00    +0.000 C 
ATOM     13  C   UNL     1       8.939  16.356  20.240  0.00  0.00    +0.000 C 
ENDROOT
BRANCH   8  14
ATOM     14  C   UNL     1      10.560  12.984  19.403  0.00  0.00    +0.000 A 
ATOM     15  C   UNL     1       9.794  12.715  18.252  0.00  0.00    +0.000 A 
ATOM     16  C   UNL     1       9.130  11.500  18.091  0.00  0.00    +0.000 A 
ATOM     17  C   UNL     1       9.270  10.504  19.046  0.00  0.00    +0.000 A 
ATOM     18  C   UNL     1      10.109  10.708  20.141  0.00  0.00    +0.000 A 
ATOM     19  C   UNL     1      10.760  11.936  20.314  0.00  0.00    +0.000 A 
ENDBRANCH   8  14
BRANCH   1  20
ATOM     20  C   UNL     1       6.745  14.493  23.990  0.00  0.00    +0.000 C 
BRANCH  20  21
ATOM     21  C   UNL     1       5.598  13.496  23.808  0.00  0.00    +0.000 C 
ATOM     22  O   UNL     1       4.868  13.354  22.838  0.00  0.00    +0.000 OA
BRANCH  21  24
ATOM     23  C   UNL     1       5.933  11.400  24.836  0.00  0.00    +0.000 C 
ATOM     24  O   UNL     1       5.507  12.757  24.960  0.00  0.00    +0.000 OA
ENDBRANCH  21  24
ENDBRANCH  20  21
ENDBRANCH   1  20
TORSDOF 4
ENDMDL
MODEL 5
REMARK VINA RESULT:      -5.5      0.593      1.379
REMARK  Name = 
REMARK  6 active torsions:
REMARK  status: ('A' for Active; 'I' for Inactive)
REMARK    1  A    between atoms: C_1  and  O_2
REMARK    2  A    between atoms: O_2  and  C_3
REMARK    3  A    between atoms: C_3  and  C_5
REMARK    4  A    between atoms: C_5  and  N_6
REMARK    5  A    between atoms: C_13  and  C_14
REMARK    6  A    between atoms: N_22  and  C_23
REMARK                            x       y       z     vdW  Elec       q    Type
REMARK                         _______ _______ _______ _____ _____    ______ ____
ROOT
ATOM      1  N   UNL     1       8.002  12.381  23.408  0.00  0.00    +0.000 NA
ATOM      2  C   UNL     1       8.556  12.289  22.050  0.00  0.00    +0.000 C 
ATOM      3  C   UNL     1       8.223  13.508  21.192  0.00  0.00    +0.000 C 
ATOM      4  C   UNL     1       8.740  14.834  21.801  0.00  0.00    +0.000 C 
ATOM      5  C   UNL     1       8.229  14.897  23.267  0.00  0.00    +0.000 C 
ATOM      6  C   UNL     1       8.500  13.606  24.062  0.00  0.00    +0.000 C 
ATOM      7  C   UNL     1      10.289  14.989  21.790  0.00  0.00    +0.000 C 
ATOM      8  C   UNL     1      10.924  15.188  20.395  0.00  0.00    +0.000 C 
ATOM      9  C   UNL     1      10.194  16.305  19.643  0.00  0.00    +0.000 C 
ATOM     10  O   UNL     1      10.780  17.062  18.874  0.00  0.00    +0.000 OA
ATOM     11  N   UNL     1       8.804  16.220  19.718  0.00  0.00    +0.000 N 
ATOM     12  C   UNL     1       8.009  16.723  18.616  0.00  0.00    +0.000 C 
ATOM     13  C   UNL     1       8.152  16.012  21.001  0.00  0.00    +0.000 C 
ENDROOT
BRANCH   8  14
ATOM     14  C   UNL     1      11.011  13.898  19.567  0.00  0.00    +0.000 A 
ATOM     15  C   UNL     1      11.650  12.741  20.052  0.00  0.00    +0.000 A 
ATOM     16  C   UNL     1      11.929  11.662  19.214  0.00  0.00    +0.000 A 
ATOM     17  C   UNL     1      11.518  11.692  17.888  0.00  0.00    +0.000 A 
ATOM     18  C   UNL     1      10.790  12.782  17.414  0.00  0.00    +0.000 A 
ATOM     19  C   UNL     1      10.528  13.875  18.250  0.00  0.00    +0.000 A 
ENDBRANCH   8  14
BRANCH   1  20
ATOM     20  C   UNL     1       6.520  12.325  23.469  0.00  0.00    +0.000 C 
BRANCH  20  21
ATOM     21  C   UNL     1       5.902  12.431  24.865  0.00  0.00    +0.000 C 
ATOM     22  O   UNL     1       5.202  13.327  25.315  0.00  0.00    +0.000 OA
BRANCH  21  24
ATOM     23  C   UNL     1       5.319  10.856  26.521  0.00  0.00    +0.000 C 
ATOM     24  O   UNL     1       6.279  11.316  25.570  0.00  0.00    +0.000 OA
ENDBRANCH  21  24
ENDBRANCH  20  21
ENDBRANCH   1  20
TORSDOF 4
ENDMDL
MODEL 6
REMARK VINA RESULT:      -5.5     10.207     11.977
REMARK  Name = 
REMARK  6 active torsions:
REMARK  status: ('A' for Active; 'I' for Inactive)
REMARK    1  A    between atoms: C_1  and  O_2
REMARK    2  A    between atoms: O_2  and  C_3
REMARK    3  A    between atoms: C_3  and  C_5
REMARK    4  A    between atoms: C_5  and  N_6
REMARK    5  A    between atoms: C_13  and  C_14
REMARK    6  A    between atoms: N_22  and  C_23
REMARK                            x       y       z     vdW  Elec       q    Type
REMARK                         _______ _______ _______ _____ _____    ______ ____
ROOT
ATOM      1  N   UNL     1      -3.379  10.033  16.848  0.00  0.00    +0.000 NA
ATOM      2  C   UNL     1      -1.972   9.671  17.063  0.00  0.00    +0.000 C 
ATOM      3  C   UNL     1      -1.086  10.881  17.350  0.00  0.00    +0.000 C 
ATOM      4  C   UNL     1      -1.541  11.679  18.596  0.00  0.00    +0.000 C 
ATOM      5  C   UNL     1      -3.053  11.992  18.414  0.00  0.00    +0.000 C 
ATOM      6  C   UNL     1      -3.887  10.758  18.027  0.00  0.00    +0.000 C 
ATOM      7  C   UNL     1      -1.329  10.941  19.949  0.00  0.00    +0.000 C 
ATOM      8  C   UNL     1       0.144  10.774  20.388  0.00  0.00    +0.000 C 
ATOM      9  C   UNL     1       0.868  12.121  20.308  0.00  0.00    +0.000 C 
ATOM     10  O   UNL     1       1.750  12.433  21.103  0.00  0.00    +0.000 OA
ATOM     11  N   UNL     1       0.617  12.827  19.133  0.00  0.00    +0.000 N 
ATOM     12  C   UNL     1       1.641  13.708  18.609  0.00  0.00    +0.000 C 
ATOM     13  C   UNL     1      -0.747  12.998  18.659  0.00  0.00    +0.000 C 
ENDROOT
BRANCH   8  14
ATOM     14  C   UNL     1       0.893   9.671  19.627  0.00  0.00    +0.000 A 
ATOM     15  C   UNL     1       1.159   8.414  20.203  0.00  0.00    +0.000 A 
ATOM     16  C   UNL     1       2.034   7.511  19.602  0.00  0.00    +0.000 A 
ATOM     17  C   UNL     1       2.613   7.820  18.379  0.00  0.00    +0.000 A 
ATOM     18  C   UNL     1       2.281   9.013  17.738  0.00  0.00    +0.000 A 
ATOM     19  C   UNL     1       1.418   9.930  18.352  0.00  0.00    +0.000 A 
ENDBRANCH   8  14
BRANCH   1  20
ATOM     20  C   UNL     1      -3.627  10.815  15.610  0.00  0.00    +0.000 C 
BRANCH  20  21
ATOM     21  C   UNL     1      -3.355  10.088  14.292  0.00  0.00    +0.000 C 
ATOM     22  O   UNL     1      -2.274   9.816  13.789  0.00  0.00    +0.000 OA
BRANCH  21  24
ATOM     23  C   UNL     1      -4.582   9.760  12.305  0.00  0.00    +0.000 C 
ATOM     24  O   UNL     1      -4.569   9.780  13.732  0.00  0.00    +0.000 OA
ENDBRANCH  21  24
ENDBRANCH  20  21
ENDBRANCH   1  20
TORSDOF 4
ENDMDL
MODEL 7
REMARK VINA RESULT:      -5.5      1.363      1.537
REMARK  Name = 
REMARK  6 active torsions:
REMARK  status: ('A' for Active; 'I' for Inactive)
REMARK    1  A    between atoms: C_1  and  O_2
REMARK    2  A    between atoms: O_2  and  C_3
REMARK    3  A    between atoms: C_3  and  C_5
REMARK    4  A    between atoms: C_5  and  N_6
REMARK    5  A    between atoms: C_13  and  C_14
REMARK    6  A    between atoms: N_22  and  C_23
REMARK                            x       y       z     vdW  Elec       q    Type
REMARK                         _______ _______ _______ _____ _____    ______ ____
ROOT
ATOM      1  N   UNL     1       7.565  13.327  23.756  0.00  0.00    +0.000 NA
ATOM      2  C   UNL     1       7.862  12.856  22.396  0.00  0.00    +0.000 C 
ATOM      3  C   UNL     1       7.875  13.986  21.368  0.00  0.00    +0.000 C 
ATOM      4  C   UNL     1       8.909  15.089  21.699  0.00  0.00    +0.000 C 
ATOM      5  C   UNL     1       8.656  15.532  23.167  0.00  0.00    +0.000 C 
ATOM      6  C   UNL     1       8.550  14.350  24.149  0.00  0.00    +0.000 C 
ATOM      7  C   UNL     1      10.394  14.651  21.545  0.00  0.00    +0.000 C 
ATOM      8  C   UNL     1      10.865  14.412  20.092  0.00  0.00    +0.000 C 
ATOM      9  C   UNL     1      10.490  15.611  19.217  0.00  0.00    +0.000 C 
ATOM     10  O   UNL     1      11.200  15.985  18.287  0.00  0.00    +0.000 OA
ATOM     11  N   UNL     1       9.185  16.063  19.410  0.00  0.00    +0.000 N 
ATOM     12  C   UNL     1       8.483  16.677  18.302  0.00  0.00    +0.000 C 
ATOM     13  C   UNL     1       8.680  16.286  20.756  0.00  0.00    +0.000 C 
ENDROOT
BRANCH   8  14
ATOM     14  C   UNL     1      10.374  13.086  19.494  0.00  0.00    +0.000 A 
ATOM     15  C   UNL     1       9.614  13.036  18.310  0.00  0.00    +0.000 A 
ATOM     16  C   UNL     1       8.978  11.863  17.906  0.00  0.00    +0.000 A 
ATOM     17  C   UNL     1       9.141  10.699  18.643  0.00  0.00    +0.000 A 
ATOM     18  C   UNL     1       9.976  10.698  19.760  0.00  0.00    +0.000 A 
ATOM     19  C   UNL     1      10.598  11.882  20.179  0.00  0.00    +0.000 A 
ENDBRANCH   8  14
BRANCH   1  20
ATOM     20  C   UNL     1       6.183  13.838  23.938  0.00  0.00    +0.000 C 
BRANCH  20  21
ATOM     21  C   UNL     1       5.490  13.444  25.244  0.00  0.00    +0.000 C 
ATOM     22  O   UNL     1       5.069  14.178  26.126  0.00  0.00    +0.000 OA
BRANCH  21  24
ATOM     23  C   UNL     1       5.249  11.514  26.578  0.00  0.00    +0.000 C 
ATOM     24  O   UNL     1       5.416  12.074  25.276  0.00  0.00    +0.000 OA
ENDBRANCH  21  24
ENDBRANCH  20  21
ENDBRANCH   1  20
TORSDOF 4
ENDMDL
MODEL 8
REMARK VINA RESULT:      -5.4      1.272      1.731
REMARK  Name = 
REMARK  6 active torsions:
REMARK  status: ('A' for Active; 'I' for Inactive)
REMARK    1  A    between atoms: C_1  and  O_2
REMARK    2  A    between atoms: O_2  and  C_3
REMARK    3  A    between atoms: C_3  and  C_5
REMARK    4  A    between atoms: C_5  and  N_6
REMARK    5  A    between atoms: C_13  and  C_14
REMARK    6  A    between atoms: N_22  and  C_23
REMARK                            x       y       z     vdW  Elec       q    Type
REMARK                         _______ _______ _______ _____ _____    ______ ____
ROOT
ATOM      1  N   UNL     1       8.192  12.515  23.668  0.00  0.00    +0.000 NA
ATOM      2  C   UNL     1       8.783  12.208  22.358  0.00  0.00    +0.000 C 
ATOM      3  C   UNL     1       8.053  12.892  21.204  0.00  0.00    +0.000 C 
ATOM      4  C   UNL     1       8.028  14.434  21.337  0.00  0.00    +0.000 C 
ATOM      5  C   UNL     1       7.483  14.765  22.755  0.00  0.00    +0.000 C 
ATOM      6  C   UNL     1       8.184  13.975  23.875  0.00  0.00    +0.000 C 
ATOM      7  C   UNL     1       9.411  15.122  21.146  0.00  0.00    +0.000 C 
ATOM      8  C   UNL     1       9.972  15.088  19.705  0.00  0.00    +0.000 C 
ATOM      9  C   UNL     1       8.907  15.575  18.718  0.00  0.00    +0.000 C 
ATOM     10  O   UNL     1       9.198  16.211  17.709  0.00  0.00    +0.000 OA
ATOM     11  N   UNL     1       7.644  15.026  18.935  0.00  0.00    +0.000 N 
ATOM     12  C   UNL     1       6.755  14.839  17.807  0.00  0.00    +0.000 C 
ATOM     13  C   UNL     1       7.074  15.010  20.273  0.00  0.00    +0.000 C 
ENDROOT
BRANCH   8  14
ATOM     14  C   UNL     1      10.553  13.727  19.301  0.00  0.00    +0.000 A 
ATOM     15  C   UNL     1      11.556  13.088  20.056  0.00  0.00    +0.000 A 
ATOM     16  C   UNL     1      12.238  11.977  19.562  0.00  0.00    +0.000 A 
ATOM     17  C   UNL     1      11.888  11.443  18.330  0.00  0.00    +0.000 A 
ATOM     18  C   UNL     1      10.826  11.993  17.613  0.00  0.00    +0.000 A 
ATOM     19  C   UNL     1      10.155  13.122  18.099  0.00  0.00    +0.000 A 
ENDBRANCH   8  14
BRANCH   1  20
ATOM     20  C   UNL     1       6.833  11.953  23.872  0.00  0.00    +0.000 C 
BRANCH  20  21
ATOM     21  C   UNL     1       6.186  12.241  25.228  0.00  0.00    +0.000 C 
ATOM     22  O   UNL     1       5.195  12.917  25.463  0.00  0.00    +0.000 OA
BRANCH  21  24
ATOM     23  C   UNL     1       7.061  12.305  27.417  0.00  0.00    +0.000 C 
ATOM     24  O   UNL     1       6.929  11.597  26.185  0.00  0.00    +0.000 OA
ENDBRANCH  21  24
ENDBRANCH  20  21
ENDBRANCH   1  20
TORSDOF 4
ENDMDL
MODEL 9
REMARK VINA RESULT:      -5.4      9.516     11.867
REMARK  Name = 
REMARK  6 active torsions:
REMARK  status: ('A' for Active; 'I' for Inactive)
REMARK    1  A    between atoms: C_1  and  O_2
REMARK    2  A    between atoms: O_2  and  C_3
REMARK    3  A    between atoms: C_3  and  C_5
REMARK    4  A    between atoms: C_5  and  N_6
REMARK    5  A    between atoms: C_13  and  C_14
REMARK    6  A    between atoms: N_22  and  C_23
REMARK                            x       y       z     vdW  Elec       q    Type
REMARK                         _______ _______ _______ _____ _____    ______ ____
ROOT
ATOM      1  N   UNL     1      -0.958  11.065  18.075  0.00  0.00    +0.000 NA
ATOM      2  C   UNL     1      -1.142  12.482  18.419  0.00  0.00    +0.000 C 
ATOM      3  C   UNL     1      -1.848  12.678  19.759  0.00  0.00    +0.000 C 
ATOM      4  C   UNL     1      -1.093  12.021  20.940  0.00  0.00    +0.000 C 
ATOM      5  C   UNL     1      -0.820  10.543  20.546  0.00  0.00    +0.000 C 
ATOM      6  C   UNL     1      -0.200  10.392  19.144  0.00  0.00    +0.000 C 
ATOM      7  C   UNL     1       0.252  12.710  21.311  0.00  0.00    +0.000 C 
ATOM      8  C   UNL     1       0.123  14.110  21.955  0.00  0.00    +0.000 C 
ATOM      9  C   UNL     1      -0.877  14.061  23.113  0.00  0.00    +0.000 C 
ATOM     10  O   UNL     1      -0.740  14.751  24.120  0.00  0.00    +0.000 OA
ATOM     11  N   UNL     1      -2.052  13.373  22.816  0.00  0.00    +0.000 N 
ATOM     12  C   UNL     1      -3.284  13.767  23.470  0.00  0.00    +0.000 C 
ATOM     13  C   UNL     1      -1.993  12.061  22.190  0.00  0.00    +0.000 C 
ENDROOT
BRANCH   8  14
ATOM     14  C   UNL     1      -0.211  15.221  20.951  0.00  0.00    +0.000 A 
ATOM     15  C   UNL     1      -1.353  16.035  21.089  0.00  0.00    +0.000 A 
ATOM     16  C   UNL     1      -1.772  16.875  20.059  0.00  0.00    +0.000 A 
ATOM     17  C   UNL     1      -1.023  16.969  18.894  0.00  0.00    +0.000 A 
ATOM     18  C   UNL     1       0.169  16.254  18.779  0.00  0.00    +0.000 A 
ATOM     19  C   UNL     1       0.579  15.393  19.804  0.00  0.00    +0.000 A 
ENDBRANCH   8  14
BRANCH   1  20
ATOM     20  C   UNL     1      -2.221  10.336  17.794  0.00  0.00    +0.000 C 
BRANCH  20  21
ATOM     21  C   UNL     1      -3.177  11.008  16.806  0.00  0.00    +0.000 C 
ATOM     22  O   UNL     1      -4.272  11.503  17.033  0.00  0.00    +0.000 OA
BRANCH  21  24
ATOM     23  C   UNL     1      -3.262  10.128  14.619  0.00  0.00    +0.000 C 
ATOM     24  O   UNL     1      -2.591  10.959  15.566  0.00  0.00    +0.000 OA
ENDBRANCH  21  24
ENDBRANCH  20  21
ENDBRANCH   1  20
TORSDOF 4
ENDMDL
