MODEL 1
REMARK VINA RESULT:      -8.4      0.000      0.000
REMARK  Name = 
REMARK  3 active torsions:
REMARK  status: ('A' for Active; 'I' for Inactive)
REMARK    1  A    between atoms: C_1  and  C_2
REMARK    2  A    between atoms: C_9  and  C_10
REMARK    3  A    between atoms: C_20  and  C_21
REMARK                            x       y       z     vdW  Elec       q    Type
REMARK                         _______ _______ _______ _____ _____    ______ ____
ROOT
ATOM      1  C   UNL     1       6.520   4.578  15.121  0.00  0.00    +0.000 C 
ATOM      2  C   UNL     1       6.775   4.680  16.602  0.00  0.00    +0.000 C 
ATOM      3  O   UNL     1       7.898   4.427  17.046  0.00  0.00    +0.000 OA
ATOM      4  N   UNL     1       5.677   4.932  17.417  0.00  0.00    +0.000 N 
ATOM      5  C   UNL     1       5.744   4.479  18.733  0.00  0.00    +0.000 C 
ATOM      6  C   UNL     1       4.587   4.137  19.328  0.00  0.00    +0.000 C 
ATOM      7  C   UNL     1       3.560   5.206  19.298  0.00  0.00    +0.000 A 
ATOM      8  C   UNL     1       3.623   6.136  18.235  0.00  0.00    +0.000 A 
ATOM      9  C   UNL     1       2.922   7.378  18.353  0.00  0.00    +0.000 A 
ATOM     10  C   UNL     1       3.119   8.488  17.357  0.00  0.00    +0.000 C 
ATOM     11  C   UNL     1       2.096   7.573  19.520  0.00  0.00    +0.000 A 
ATOM     12  C   UNL     1       1.927   6.505  20.406  0.00  0.00    +0.000 A 
ATOM     13  N   UNL     1       1.016   6.885  21.358  0.00  0.00    +0.000 N 
ATOM     14  C   UNL     1       0.705   8.209  21.252  0.00  0.00    +0.000 A 
ATOM     15  C   UNL     1      -0.077   8.988  22.113  0.00  0.00    +0.000 A 
ATOM     16  C   UNL     1      -0.225  10.335  21.807  0.00  0.00    +0.000 A 
ATOM     17  C   UNL     1       0.372  10.863  20.665  0.00  0.00    +0.000 A 
ATOM     18  C   UNL     1       1.142  10.054  19.804  0.00  0.00    +0.000 A 
ATOM     19  C   UNL     1       1.338   8.683  20.102  0.00  0.00    +0.000 A 
ATOM     20  C   UNL     1       2.622   5.290  20.328  0.00  0.00    +0.000 A 
ATOM     21  C   UNL     1       2.394   4.143  21.271  0.00  0.00    +0.000 C 
ATOM     22  C   UNL     1       4.416   5.616  17.015  0.00  0.00    +0.000 C 
ATOM     23  H   UNL     1       0.699   6.295  22.111  0.00  0.00    +0.000 HD
ENDROOT
TORSDOF 0
ENDMDL
MODEL 2
REMARK VINA RESULT:      -7.4      1.009      1.111
REMARK  Name = 
REMARK  3 active torsions:
REMARK  status: ('A' for Active; 'I' for Inactive)
REMARK    1  A    between atoms: C_1  and  C_2
REMARK    2  A    between atoms: C_9  and  C_10
REMARK    3  A    between atoms: C_20  and  C_21
REMARK                            x       y       z     vdW  Elec       q    Type
REMARK                         _______ _______ _______ _____ _____    ______ ____
ROOT
ATOM      1  C   UNL     1       5.708   5.892  14.929  0.00  0.00    +0.000 C 
ATOM      2  C   UNL     1       6.073   5.899  16.390  0.00  0.00    +0.000 C 
ATOM      3  O   UNL     1       7.238   5.673  16.727  0.00  0.00    +0.000 OA
ATOM      4  N   UNL     1       5.033   6.035  17.302  0.00  0.00    +0.000 N 
ATOM      5  C   UNL     1       5.225   5.491  18.571  0.00  0.00    +0.000 C 
ATOM      6  C   UNL     1       4.135   5.049  19.223  0.00  0.00    +0.000 C 
ATOM      7  C   UNL     1       3.061   6.062  19.352  0.00  0.00    +0.000 A 
ATOM      8  C   UNL     1       2.997   7.069  18.362  0.00  0.00    +0.000 A 
ATOM      9  C   UNL     1       2.252   8.262  18.626  0.00  0.00    +0.000 A 
ATOM     10  C   UNL     1       2.319   9.450  17.706  0.00  0.00    +0.000 C 
ATOM     11  C   UNL     1       1.512   8.329  19.864  0.00  0.00    +0.000 A 
ATOM     12  C   UNL     1       1.463   7.193  20.676  0.00  0.00    +0.000 A 
ATOM     13  N   UNL     1       0.613   7.455  21.720  0.00  0.00    +0.000 N 
ATOM     14  C   UNL     1       0.235   8.765  21.739  0.00  0.00    +0.000 A 
ATOM     15  C   UNL     1      -0.511   9.439  22.713  0.00  0.00    +0.000 A 
ATOM     16  C   UNL     1      -0.744  10.796  22.522  0.00  0.00    +0.000 A 
ATOM     17  C   UNL     1      -0.264  11.435  21.382  0.00  0.00    +0.000 A 
ATOM     18  C   UNL     1       0.472  10.731  20.407  0.00  0.00    +0.000 A 
ATOM     19  C   UNL     1       0.753   9.353  20.584  0.00  0.00    +0.000 A 
ATOM     20  C   UNL     1       2.204   6.024  20.453  0.00  0.00    +0.000 A 
ATOM     21  C   UNL     1       2.104   4.801  21.320  0.00  0.00    +0.000 C 
ATOM     22  C   UNL     1       3.714   6.680  17.049  0.00  0.00    +0.000 C 
ATOM     23  H   UNL     1       0.384   6.796  22.447  0.00  0.00    +0.000 HD
ENDROOT
TORSDOF 0
ENDMDL
MODEL 3
REMARK VINA RESULT:      -7.2      4.675      9.236
REMARK  Name = 
REMARK  3 active torsions:
REMARK  status: ('A' for Active; 'I' for Inactive)
REMARK    1  A    between atoms: C_1  and  C_2
REMARK    2  A    between atoms: C_9  and  C_10
REMARK    3  A    between atoms: C_20  and  C_21
REMARK                            x       y       z     vdW  Elec       q    Type
REMARK                         _______ _______ _______ _____ _____    ______ ____
ROOT
ATOM      1  C   UNL     1      -2.735  14.387  25.155  0.00  0.00    +0.000 C 
ATOM      2  C   UNL     1      -1.439  14.748  24.477  0.00  0.00    +0.000 C 
ATOM      3  O   UNL     1      -0.775  15.698  24.899  0.00  0.00    +0.000 OA
ATOM      4  N   UNL     1      -1.121  14.059  23.313  0.00  0.00    +0.000 N 
ATOM      5  C   UNL     1      -0.302  14.709  22.392  0.00  0.00    +0.000 C 
ATOM      6  C   UNL     1      -0.472  14.405  21.093  0.00  0.00    +0.000 C 
ATOM      7  C   UNL     1      -0.374  12.956  20.799  0.00  0.00    +0.000 A 
ATOM      8  C   UNL     1      -0.709  12.059  21.839  0.00  0.00    +0.000 A 
ATOM      9  C   UNL     1      -0.282  10.697  21.751  0.00  0.00    +0.000 A 
ATOM     10  C   UNL     1      -0.424   9.752  22.913  0.00  0.00    +0.000 C 
ATOM     11  C   UNL     1       0.387  10.282  20.541  0.00  0.00    +0.000 A 
ATOM     12  C   UNL     1       0.476  11.188  19.481  0.00  0.00    +0.000 A 
ATOM     13  N   UNL     1       1.038  10.537  18.412  0.00  0.00    +0.000 N 
ATOM     14  C   UNL     1       1.488   9.298  18.763  0.00  0.00    +0.000 A 
ATOM     15  C   UNL     1       2.228   8.393  17.992  0.00  0.00    +0.000 A 
ATOM     16  C   UNL     1       2.599   7.194  18.588  0.00  0.00    +0.000 A 
ATOM     17  C   UNL     1       2.216   6.913  19.896  0.00  0.00    +0.000 A 
ATOM     18  C   UNL     1       1.456   7.834  20.647  0.00  0.00    +0.000 A 
ATOM     19  C   UNL     1       1.086   9.079  20.082  0.00  0.00    +0.000 A 
ATOM     20  C   UNL     1       0.090  12.534  19.552  0.00  0.00    +0.000 A 
ATOM     21  C   UNL     1       0.161  13.479  18.386  0.00  0.00    +0.000 C 
ATOM     22  C   UNL     1      -1.595  12.698  22.933  0.00  0.00    +0.000 C 
ATOM     23  H   UNL     1       1.201  10.957  17.511  0.00  0.00    +0.000 HD
ENDROOT
TORSDOF 0
ENDMDL
MODEL 4
REMARK VINA RESULT:      -7.0      4.038      7.580
REMARK  Name = 
REMARK  3 active torsions:
REMARK  status: ('A' for Active; 'I' for Inactive)
REMARK    1  A    between atoms: C_1  and  C_2
REMARK    2  A    between atoms: C_9  and  C_10
REMARK    3  A    between atoms: C_20  and  C_21
REMARK                            x       y       z     vdW  Elec       q    Type
REMARK                         _______ _______ _______ _____ _____    ______ ____
ROOT
ATOM      1  C   UNL     1       1.091   3.574  20.879  0.00  0.00    +0.000 C 
ATOM      2  C   UNL     1       2.554   3.217  20.918  0.00  0.00    +0.000 C 
ATOM      3  O   UNL     1       2.989   2.535  21.849  0.00  0.00    +0.000 OA
ATOM      4  N   UNL     1       3.372   3.794  19.954  0.00  0.00    +0.000 N 
ATOM      5  C   UNL     1       4.718   3.961  20.278  0.00  0.00    +0.000 C 
ATOM      6  C   UNL     1       5.363   4.999  19.717  0.00  0.00    +0.000 C 
ATOM      7  C   UNL     1       5.275   5.030  18.238  0.00  0.00    +0.000 A 
ATOM      8  C   UNL     1       4.144   4.427  17.642  0.00  0.00    +0.000 A 
ATOM      9  C   UNL     1       4.182   4.091  16.252  0.00  0.00    +0.000 A 
ATOM     10  C   UNL     1       3.100   3.264  15.614  0.00  0.00    +0.000 C 
ATOM     11  C   UNL     1       5.350   4.485  15.500  0.00  0.00    +0.000 A 
ATOM     12  C   UNL     1       6.318   5.270  16.131  0.00  0.00    +0.000 A 
ATOM     13  N   UNL     1       7.260   5.615  15.195  0.00  0.00    +0.000 N 
ATOM     14  C   UNL     1       7.060   4.953  14.019  0.00  0.00    +0.000 A 
ATOM     15  C   UNL     1       7.877   4.939  12.882  0.00  0.00    +0.000 A 
ATOM     16  C   UNL     1       7.472   4.156  11.808  0.00  0.00    +0.000 A 
ATOM     17  C   UNL     1       6.279   3.440  11.874  0.00  0.00    +0.000 A 
ATOM     18  C   UNL     1       5.465   3.483  13.024  0.00  0.00    +0.000 A 
ATOM     19  C   UNL     1       5.863   4.248  14.149  0.00  0.00    +0.000 A 
ATOM     20  C   UNL     1       6.317   5.589  17.496  0.00  0.00    +0.000 A 
ATOM     21  C   UNL     1       7.350   6.468  18.143  0.00  0.00    +0.000 C 
ATOM     22  C   UNL     1       2.948   4.283  18.611  0.00  0.00    +0.000 C 
ATOM     23  H   UNL     1       8.062   6.195  15.381  0.00  0.00    +0.000 HD
ENDROOT
TORSDOF 0
ENDMDL
MODEL 5
REMARK VINA RESULT:      -6.9      2.822      4.547
REMARK  Name = 
REMARK  3 active torsions:
REMARK  status: ('A' for Active; 'I' for Inactive)
REMARK    1  A    between atoms: C_1  and  C_2
REMARK    2  A    between atoms: C_9  and  C_10
REMARK    3  A    between atoms: C_20  and  C_21
REMARK                            x       y       z     vdW  Elec       q    Type
REMARK                         _______ _______ _______ _____ _____    ______ ____
ROOT
ATOM      1  C   UNL     1       1.848   2.715  21.740  0.00  0.00    +0.000 C 
ATOM      2  C   UNL     1       1.405   3.112  20.357  0.00  0.00    +0.000 C 
ATOM      3  O   UNL     1       0.936   2.259  19.599  0.00  0.00    +0.000 OA
ATOM      4  N   UNL     1       1.673   4.416  19.956  0.00  0.00    +0.000 N 
ATOM      5  C   UNL     1       1.815   4.645  18.588  0.00  0.00    +0.000 C 
ATOM      6  C   UNL     1       2.638   5.639  18.212  0.00  0.00    +0.000 C 
ATOM      7  C   UNL     1       2.320   6.948  18.831  0.00  0.00    +0.000 A 
ATOM      8  C   UNL     1       1.676   6.930  20.089  0.00  0.00    +0.000 A 
ATOM      9  C   UNL     1       1.015   8.112  20.552  0.00  0.00    +0.000 A 
ATOM     10  C   UNL     1       0.140   8.094  21.775  0.00  0.00    +0.000 C 
ATOM     11  C   UNL     1       1.130   9.303  19.745  0.00  0.00    +0.000 A 
ATOM     12  C   UNL     1       1.972   9.276  18.629  0.00  0.00    +0.000 A 
ATOM     13  N   UNL     1       2.013  10.541  18.099  0.00  0.00    +0.000 N 
ATOM     14  C   UNL     1       1.105  11.363  18.699  0.00  0.00    +0.000 A 
ATOM     15  C   UNL     1       0.759  12.675  18.351  0.00  0.00    +0.000 A 
ATOM     16  C   UNL     1      -0.227  13.302  19.103  0.00  0.00    +0.000 A 
ATOM     17  C   UNL     1      -0.817  12.639  20.175  0.00  0.00    +0.000 A 
ATOM     18  C   UNL     1      -0.441  11.324  20.517  0.00  0.00    +0.000 A 
ATOM     19  C   UNL     1       0.540  10.643  19.753  0.00  0.00    +0.000 A 
ATOM     20  C   UNL     1       2.608   8.126  18.141  0.00  0.00    +0.000 A 
ATOM     21  C   UNL     1       3.538   8.131  16.962  0.00  0.00    +0.000 C 
ATOM     22  C   UNL     1       1.855   5.595  20.848  0.00  0.00    +0.000 C 
ATOM     23  H   UNL     1       2.560  10.804  17.295  0.00  0.00    +0.000 HD
ENDROOT
TORSDOF 0
ENDMDL
MODEL 6
REMARK VINA RESULT:      -6.9      4.274      8.720
REMARK  Name = 
REMARK  3 active torsions:
REMARK  status: ('A' for Active; 'I' for Inactive)
REMARK    1  A    between atoms: C_1  and  C_2
REMARK    2  A    between atoms: C_9  and  C_10
REMARK    3  A    between atoms: C_20  and  C_21
REMARK                            x       y       z     vdW  Elec       q    Type
REMARK                         _______ _______ _______ _____ _____    ______ ____
ROOT
ATOM      1  C   UNL     1      -2.941  13.526  24.227  0.00  0.00    +0.000 C 
ATOM      2  C   UNL     1      -1.535  13.888  23.826  0.00  0.00    +0.000 C 
ATOM      3  O   UNL     1      -0.937  14.777  24.437  0.00  0.00    +0.000 OA
ATOM      4  N   UNL     1      -1.027  13.278  22.684  0.00  0.00    +0.000 N 
ATOM      5  C   UNL     1      -0.038  13.966  21.983  0.00  0.00    +0.000 C 
ATOM      6  C   UNL     1       0.025  13.769  20.654  0.00  0.00    +0.000 C 
ATOM      7  C   UNL     1       0.140  12.344  20.264  0.00  0.00    +0.000 A 
ATOM      8  C   UNL     1      -0.402  11.383  21.149  0.00  0.00    +0.000 A 
ATOM      9  C   UNL     1       0.002  10.016  21.027  0.00  0.00    +0.000 A 
ATOM     10  C   UNL     1      -0.372   8.991  22.063  0.00  0.00    +0.000 C 
ATOM     11  C   UNL     1       0.870   9.670  19.927  0.00  0.00    +0.000 A 
ATOM     12  C   UNL     1       1.173  10.651  18.979  0.00  0.00    +0.000 A 
ATOM     13  N   UNL     1       1.904  10.062  17.979  0.00  0.00    +0.000 N 
ATOM     14  C   UNL     1       2.252   8.783  18.302  0.00  0.00    +0.000 A 
ATOM     15  C   UNL     1       3.098   7.912  17.604  0.00  0.00    +0.000 A 
ATOM     16  C   UNL     1       3.326   6.657  18.156  0.00  0.00    +0.000 A 
ATOM     17  C   UNL     1       2.704   6.292  19.347  0.00  0.00    +0.000 A 
ATOM     18  C   UNL     1       1.843   7.181  20.022  0.00  0.00    +0.000 A 
ATOM     19  C   UNL     1       1.611   8.479  19.504  0.00  0.00    +0.000 A 
ATOM     20  C   UNL     1       0.813  12.001  19.090  0.00  0.00    +0.000 A 
ATOM     21  C   UNL     1       1.117  13.029  18.038  0.00  0.00    +0.000 C 
ATOM     22  C   UNL     1      -1.456  11.970  22.115  0.00  0.00    +0.000 C 
ATOM     23  H   UNL     1       2.239  10.543  17.160  0.00  0.00    +0.000 HD
ENDROOT
TORSDOF 0
ENDMDL
MODEL 7
REMARK VINA RESULT:      -6.9      4.469      8.564
REMARK  Name = 
REMARK  3 active torsions:
REMARK  status: ('A' for Active; 'I' for Inactive)
REMARK    1  A    between atoms: C_1  and  C_2
REMARK    2  A    between atoms: C_9  and  C_10
REMARK    3  A    between atoms: C_20  and  C_21
REMARK                            x       y       z     vdW  Elec       q    Type
REMARK                         _______ _______ _______ _____ _____    ______ ____
ROOT
ATOM      1  C   UNL     1      -2.724  15.887  21.189  0.00  0.00    +0.000 C 
ATOM      2  C   UNL     1      -3.291  14.515  21.445  0.00  0.00    +0.000 C 
ATOM      3  O   UNL     1      -4.500  14.386  21.657  0.00  0.00    +0.000 OA
ATOM      4  N   UNL     1      -2.386  13.467  21.558  0.00  0.00    +0.000 N 
ATOM      5  C   UNL     1      -2.774  12.370  22.326  0.00  0.00    +0.000 C 
ATOM      6  C   UNL     1      -1.804  11.685  22.956  0.00  0.00    +0.000 C 
ATOM      7  C   UNL     1      -0.722  11.214  22.059  0.00  0.00    +0.000 A 
ATOM      8  C   UNL     1      -0.482  11.962  20.884  0.00  0.00    +0.000 A 
ATOM      9  C   UNL     1       0.261  11.367  19.817  0.00  0.00    +0.000 A 
ATOM     10  C   UNL     1       0.369  12.028  18.470  0.00  0.00    +0.000 C 
ATOM     11  C   UNL     1       0.822  10.055  20.041  0.00  0.00    +0.000 A 
ATOM     12  C   UNL     1       0.714   9.491  21.315  0.00  0.00    +0.000 A 
ATOM     13  N   UNL     1       1.418   8.314  21.318  0.00  0.00    +0.000 N 
ATOM     14  C   UNL     1       1.837   7.980  20.064  0.00  0.00    +0.000 A 
ATOM     15  C   UNL     1       2.464   6.800  19.643  0.00  0.00    +0.000 A 
ATOM     16  C   UNL     1       2.771   6.680  18.293  0.00  0.00    +0.000 A 
ATOM     17  C   UNL     1       2.479   7.720  17.414  0.00  0.00    +0.000 A 
ATOM     18  C   UNL     1       1.863   8.905  17.864  0.00  0.00    +0.000 A 
ATOM     19  C   UNL     1       1.509   9.050  19.228  0.00  0.00    +0.000 A 
ATOM     20  C   UNL     1      -0.031  10.041  22.368  0.00  0.00    +0.000 A 
ATOM     21  C   UNL     1      -0.099   9.435  23.740  0.00  0.00    +0.000 C 
ATOM     22  C   UNL     1      -1.021  13.409  20.961  0.00  0.00    +0.000 C 
ATOM     23  H   UNL     1       1.517   7.712  22.119  0.00  0.00    +0.000 HD
ENDROOT
TORSDOF 0
ENDMDL
MODEL 8
REMARK VINA RESULT:      -6.7      5.894      8.840
REMARK  Name = 
REMARK  3 active torsions:
REMARK  status: ('A' for Active; 'I' for Inactive)
REMARK    1  A    between atoms: C_1  and  C_2
REMARK    2  A    between atoms: C_9  and  C_10
REMARK    3  A    between atoms: C_20  and  C_21
REMARK                            x       y       z     vdW  Elec       q    Type
REMARK                         _______ _______ _______ _____ _____    ______ ____
ROOT
ATOM      1  C   UNL     1       2.127  11.956  18.472  0.00  0.00    +0.000 C 
ATOM      2  C   UNL     1       1.122  10.835  18.442  0.00  0.00    +0.000 C 
ATOM      3  O   UNL     1       1.498   9.687  18.189  0.00  0.00    +0.000 OA
ATOM      4  N   UNL     1      -0.217  11.181  18.576  0.00  0.00    +0.000 N 
ATOM      5  C   UNL     1      -1.157  10.325  18.004  0.00  0.00    +0.000 C 
ATOM      6  C   UNL     1      -2.304  10.873  17.567  0.00  0.00    +0.000 C 
ATOM      7  C   UNL     1      -3.021  11.663  18.596  0.00  0.00    +0.000 A 
ATOM      8  C   UNL     1      -2.245  12.246  19.624  0.00  0.00    +0.000 A 
ATOM      9  C   UNL     1      -2.890  12.683  20.824  0.00  0.00    +0.000 A 
ATOM     10  C   UNL     1      -2.100  13.113  22.029  0.00  0.00    +0.000 C 
ATOM     11  C   UNL     1      -4.330  12.600  20.877  0.00  0.00    +0.000 A 
ATOM     12  C   UNL     1      -5.022  12.215  19.726  0.00  0.00    +0.000 A 
ATOM     13  N   UNL     1      -6.365  12.327  19.981  0.00  0.00    +0.000 N 
ATOM     14  C   UNL     1      -6.602  12.595  21.297  0.00  0.00    +0.000 A 
ATOM     15  C   UNL     1      -7.833  12.650  21.963  0.00  0.00    +0.000 A 
ATOM     16  C   UNL     1      -7.815  12.914  23.327  0.00  0.00    +0.000 A 
ATOM     17  C   UNL     1      -6.606  13.139  23.982  0.00  0.00    +0.000 A 
ATOM     18  C   UNL     1      -5.381  13.095  23.285  0.00  0.00    +0.000 A 
ATOM     19  C   UNL     1      -5.360  12.798  21.900  0.00  0.00    +0.000 A 
ATOM     20  C   UNL     1      -4.413  11.757  18.549  0.00  0.00    +0.000 A 
ATOM     21  C   UNL     1      -5.178  11.385  17.311  0.00  0.00    +0.000 C 
ATOM     22  C   UNL     1      -0.752  12.398  19.250  0.00  0.00    +0.000 C 
ATOM     23  H   UNL     1      -7.090  12.126  19.311  0.00  0.00    +0.000 HD
ENDROOT
TORSDOF 0
ENDMDL
MODEL 9
REMARK VINA RESULT:      -6.5      8.014     11.672
REMARK  Name = 
REMARK  3 active torsions:
REMARK  status: ('A' for Active; 'I' for Inactive)
REMARK    1  A    between atoms: C_1  and  C_2
REMARK    2  A    between atoms: C_9  and  C_10
REMARK    3  A    between atoms: C_20  and  C_21
REMARK                            x       y       z     vdW  Elec       q    Type
REMARK                         _______ _______ _______ _____ _____    ______ ____
ROOT
ATOM      1  C   UNL     1      -7.917  15.762  23.506  0.00  0.00    +0.000 C 
ATOM      2  C   UNL     1      -7.393  14.379  23.790  0.00  0.00    +0.000 C 
ATOM      3  O   UNL     1      -7.842  13.742  24.747  0.00  0.00    +0.000 OA
ATOM      4  N   UNL     1      -6.321  13.938  23.023  0.00  0.00    +0.000 N 
ATOM      5  C   UNL     1      -5.478  12.986  23.595  0.00  0.00    +0.000 C 
ATOM      6  C   UNL     1      -4.188  12.998  23.216  0.00  0.00    +0.000 C 
ATOM      7  C   UNL     1      -3.993  12.912  21.749  0.00  0.00    +0.000 A 
ATOM      8  C   UNL     1      -5.030  13.408  20.927  0.00  0.00    +0.000 A 
ATOM      9  C   UNL     1      -5.077  13.019  19.551  0.00  0.00    +0.000 A 
ATOM     10  C   UNL     1      -6.263  13.340  18.683  0.00  0.00    +0.000 C 
ATOM     11  C   UNL     1      -3.990  12.215  19.045  0.00  0.00    +0.000 A 
ATOM     12  C   UNL     1      -2.900  11.961  19.883  0.00  0.00    +0.000 A 
ATOM     13  N   UNL     1      -1.952  11.290  19.152  0.00  0.00    +0.000 N 
ATOM     14  C   UNL     1      -2.429  10.930  17.926  0.00  0.00    +0.000 A 
ATOM     15  C   UNL     1      -1.814  10.129  16.957  0.00  0.00    +0.000 A 
ATOM     16  C   UNL     1      -2.520   9.877  15.787  0.00  0.00    +0.000 A 
ATOM     17  C   UNL     1      -3.783  10.434  15.597  0.00  0.00    +0.000 A 
ATOM     18  C   UNL     1      -4.374  11.252  16.581  0.00  0.00    +0.000 A 
ATOM     19  C   UNL     1      -3.695  11.505  17.799  0.00  0.00    +0.000 A 
ATOM     20  C   UNL     1      -2.843  12.307  21.240  0.00  0.00    +0.000 A 
ATOM     21  C   UNL     1      -1.644  12.057  22.109  0.00  0.00    +0.000 C 
ATOM     22  C   UNL     1      -5.962  14.404  21.654  0.00  0.00    +0.000 C 
ATOM     23  H   UNL     1      -1.058  10.998  19.512  0.00  0.00    +0.000 HD
ENDROOT
TORSDOF 0
ENDMDL
