MODEL 1
REMARK VINA RESULT:      -8.7      0.000      0.000
REMARK  Name = 
REMARK  6 active torsions:
REMARK  status: ('A' for Active; 'I' for Inactive)
REMARK    1  A    between atoms: C_2  and  C_3
REMARK    2  A    between atoms: C_4  and  C_5
REMARK    3  A    between atoms: N_7  and  C_8
REMARK    4  A    between atoms: C_15  and  C_16
REMARK    5  A    between atoms: N_22  and  C_23
REMARK    6  A    between atoms: C_23  and  C_24
REMARK                            x       y       z     vdW  Elec       q    Type
REMARK                         _______ _______ _______ _____ _____    ______ ____
ROOT
ATOM      1  C   UNL     1       3.661   6.184  17.602  0.00  0.00    +0.000 A 
ATOM      2  C   UNL     1       4.495   6.379  16.530  0.00  0.00    +0.000 A 
ATOM      3  N   UNL     1       4.832   5.130  16.055  0.00  0.00    +0.000 N 
ATOM      4  N   UNL     1       4.248   4.147  16.787  0.00  0.00    +0.000 NA
ATOM      5  C   UNL     1       3.582   4.776  17.769  0.00  0.00    +0.000 A 
ENDROOT
BRANCH   3   6
ATOM      6  C   UNL     1       5.667   4.823  14.944  0.00  0.00    +0.000 A 
ATOM      7  C   UNL     1       6.924   5.428  14.810  0.00  0.00    +0.000 A 
ATOM      8  C   UNL     1       7.740   5.119  13.720  0.00  0.00    +0.000 A 
ATOM      9  C   UNL     1       7.298   4.223  12.751  0.00  0.00    +0.000 A 
ATOM     10  C   UNL     1       6.048   3.621  12.873  0.00  0.00    +0.000 A 
ATOM     11  C   UNL     1       5.232   3.911  13.971  0.00  0.00    +0.000 A 
ENDBRANCH   3   6
BRANCH   5  12
ATOM     12  C   UNL     1       2.907   4.021  18.818  0.00  0.00    +0.000 A 
ATOM     13  C   UNL     1       1.512   3.938  18.874  0.00  0.00    +0.000 A 
ATOM     14  C   UNL     1       0.898   3.229  19.899  0.00  0.00    +0.000 A 
ATOM     15  C   UNL     1       1.701   2.623  20.848  0.00  0.00    +0.000 A 
ATOM     16  N   UNL     1       3.050   2.673  20.833  0.00  0.00    +0.000 NA
ATOM     17  C   UNL     1       3.620   3.376  19.821  0.00  0.00    +0.000 A 
ENDBRANCH   5  12
BRANCH   1  19
ATOM     18  C   UNL     1       2.154   8.079  17.819  0.00  0.00    +0.000 C 
ATOM     19  C   UNL     1       3.040   7.220  18.353  0.00  0.00    +0.000 C 
BRANCH  18  21
ATOM     20  O   UNL     1       1.492   9.020  19.902  0.00  0.00    +0.000 OA
ATOM     21  C   UNL     1       1.467   9.076  18.678  0.00  0.00    +0.000 C 
ATOM     22  N   UNL     1       0.808  10.039  17.961  0.00  0.00    +0.000 N 
ATOM     23  H   UNL     1       0.704   9.954  16.961  0.00  0.00    +0.000 HD
BRANCH  22  24
ATOM     24  C   UNL     1       0.066  11.113  18.599  0.00  0.00    +0.000 C 
BRANCH  24  25
ATOM     25  C   UNL     1      -1.423  11.029  18.347  0.00  0.00    +0.000 A 
ATOM     26  C   UNL     1      -1.928  10.107  17.433  0.00  0.00    +0.000 A 
ATOM     27  C   UNL     1      -3.301  10.065  17.202  0.00  0.00    +0.000 A 
ATOM     28  C   UNL     1      -4.133  10.939  17.888  0.00  0.00    +0.000 A 
ATOM     29  C   UNL     1      -3.556  11.821  18.786  0.00  0.00    +0.000 A 
ATOM     30  N   UNL     1      -2.226  11.892  19.027  0.00  0.00    +0.000 NA
ENDBRANCH  24  25
ENDBRANCH  22  24
ENDBRANCH  18  21
ENDBRANCH   1  19
TORSDOF 6
ENDMDL
MODEL 2
REMARK VINA RESULT:      -8.6      0.515      1.032
REMARK  Name = 
REMARK  6 active torsions:
REMARK  status: ('A' for Active; 'I' for Inactive)
REMARK    1  A    between atoms: C_2  and  C_3
REMARK    2  A    between atoms: C_4  and  C_5
REMARK    3  A    between atoms: N_7  and  C_8
REMARK    4  A    between atoms: C_15  and  C_16
REMARK    5  A    between atoms: N_22  and  C_23
REMARK    6  A    between atoms: C_23  and  C_24
REMARK                            x       y       z     vdW  Elec       q    Type
REMARK                         _______ _______ _______ _____ _____    ______ ____
ROOT
ATOM      1  C   UNL     1       3.321   6.172  18.067  0.00  0.00    +0.000 A 
ATOM      2  C   UNL     1       4.142   6.394  16.991  0.00  0.00    +0.000 A 
ATOM      3  N   UNL     1       4.612   5.163  16.588  0.00  0.00    +0.000 N 
ATOM      4  N   UNL     1       4.126   4.167  17.371  0.00  0.00    +0.000 NA
ATOM      5  C   UNL     1       3.388   4.776  18.313  0.00  0.00    +0.000 A 
ENDROOT
BRANCH   3   6
ATOM      6  C   UNL     1       5.486   4.886  15.499  0.00  0.00    +0.000 A 
ATOM      7  C   UNL     1       5.058   4.092  14.427  0.00  0.00    +0.000 A 
ATOM      8  C   UNL     1       5.919   3.827  13.361  0.00  0.00    +0.000 A 
ATOM      9  C   UNL     1       7.214   4.336  13.368  0.00  0.00    +0.000 A 
ATOM     10  C   UNL     1       7.651   5.122  14.432  0.00  0.00    +0.000 A 
ATOM     11  C   UNL     1       6.789   5.406  15.496  0.00  0.00    +0.000 A 
ENDBRANCH   3   6
BRANCH   5  12
ATOM     12  C   UNL     1       2.784   4.012  19.398  0.00  0.00    +0.000 A 
ATOM     13  C   UNL     1       1.397   3.964  19.573  0.00  0.00    +0.000 A 
ATOM     14  C   UNL     1       0.854   3.246  20.630  0.00  0.00    +0.000 A 
ATOM     15  C   UNL     1       1.718   2.597  21.493  0.00  0.00    +0.000 A 
ATOM     16  N   UNL     1       3.062   2.612  21.363  0.00  0.00    +0.000 NA
ATOM     17  C   UNL     1       3.562   3.325  20.322  0.00  0.00    +0.000 A 
ENDBRANCH   5  12
BRANCH   1  19
ATOM     18  C   UNL     1       2.187   8.319  18.171  0.00  0.00    +0.000 C 
ATOM     19  C   UNL     1       2.587   7.178  18.756  0.00  0.00    +0.000 C 
BRANCH  18  21
ATOM     20  O   UNL     1       1.159   9.207  20.125  0.00  0.00    +0.000 OA
ATOM     21  C   UNL     1       1.339   9.285  18.916  0.00  0.00    +0.000 C 
ATOM     22  N   UNL     1       0.785  10.245  18.112  0.00  0.00    +0.000 N 
ATOM     23  H   UNL     1       0.853  10.175  17.107  0.00  0.00    +0.000 HD
BRANCH  22  24
ATOM     24  C   UNL     1      -0.081  11.289  18.630  0.00  0.00    +0.000 C 
BRANCH  24  25
ATOM     25  C   UNL     1      -1.540  11.061  18.301  0.00  0.00    +0.000 A 
ATOM     26  C   UNL     1      -1.910  10.037  17.431  0.00  0.00    +0.000 A 
ATOM     27  C   UNL     1      -3.257   9.862  17.126  0.00  0.00    +0.000 A 
ATOM     28  C   UNL     1      -4.199  10.708  17.696  0.00  0.00    +0.000 A 
ATOM     29  C   UNL     1      -3.753  11.697  18.557  0.00  0.00    +0.000 A 
ATOM     30  N   UNL     1      -2.451  11.898  18.867  0.00  0.00    +0.000 NA
ENDBRANCH  24  25
ENDBRANCH  22  24
ENDBRANCH  18  21
ENDBRANCH   1  19
TORSDOF 6
ENDMDL
MODEL 3
REMARK VINA RESULT:      -8.5      0.835      1.166
REMARK  Name = 
REMARK  6 active torsions:
REMARK  status: ('A' for Active; 'I' for Inactive)
REMARK    1  A    between atoms: C_2  and  C_3
REMARK    2  A    between atoms: C_4  and  C_5
REMARK    3  A    between atoms: N_7  and  C_8
REMARK    4  A    between atoms: C_15  and  C_16
REMARK    5  A    between atoms: N_22  and  C_23
REMARK    6  A    between atoms: C_23  and  C_24
REMARK                            x       y       z     vdW  Elec       q    Type
REMARK                         _______ _______ _______ _____ _____    ______ ____
ROOT
ATOM      1  C   UNL     1       4.173   6.020  17.178  0.00  0.00    +0.000 A 
ATOM      2  C   UNL     1       4.951   6.214  16.065  0.00  0.00    +0.000 A 
ATOM      3  N   UNL     1       5.196   4.969  15.529  0.00  0.00    +0.000 N 
ATOM      4  N   UNL     1       4.608   3.988  16.262  0.00  0.00    +0.000 NA
ATOM      5  C   UNL     1       4.034   4.613  17.303  0.00  0.00    +0.000 A 
ENDROOT
BRANCH   3   6
ATOM      6  C   UNL     1       5.948   4.664  14.359  0.00  0.00    +0.000 A 
ATOM      7  C   UNL     1       7.175   5.295  14.116  0.00  0.00    +0.000 A 
ATOM      8  C   UNL     1       7.909   4.988  12.969  0.00  0.00    +0.000 A 
ATOM      9  C   UNL     1       7.415   4.066  12.052  0.00  0.00    +0.000 A 
ATOM     10  C   UNL     1       6.193   3.436  12.282  0.00  0.00    +0.000 A 
ATOM     11  C   UNL     1       5.460   3.726  13.438  0.00  0.00    +0.000 A 
ENDBRANCH   3   6
BRANCH   5  12
ATOM     12  C   UNL     1       3.386   3.852  18.364  0.00  0.00    +0.000 A 
ATOM     13  C   UNL     1       1.994   3.720  18.422  0.00  0.00    +0.000 A 
ATOM     14  C   UNL     1       1.406   3.007  19.458  0.00  0.00    +0.000 A 
ATOM     15  C   UNL     1       2.229   2.448  20.419  0.00  0.00    +0.000 A 
ATOM     16  N   UNL     1       3.575   2.547  20.404  0.00  0.00    +0.000 NA
ATOM     17  C   UNL     1       4.121   3.252  19.379  0.00  0.00    +0.000 A 
ENDBRANCH   5  12
BRANCH   1  19
ATOM     18  C   UNL     1       2.388   7.506  17.893  0.00  0.00    +0.000 C 
ATOM     19  C   UNL     1       3.650   7.056  18.000  0.00  0.00    +0.000 C 
BRANCH  18  21
ATOM     20  O   UNL     1       1.868   8.345  20.058  0.00  0.00    +0.000 OA
ATOM     21  C   UNL     1       1.872   8.522  18.846  0.00  0.00    +0.000 C 
ATOM     22  N   UNL     1       1.403   9.650  18.227  0.00  0.00    +0.000 N 
ATOM     23  H   UNL     1       1.301   9.680  17.223  0.00  0.00    +0.000 HD
BRANCH  22  24
ATOM     24  C   UNL     1       0.850  10.771  18.967  0.00  0.00    +0.000 C 
BRANCH  24  25
ATOM     25  C   UNL     1      -0.627  10.973  18.713  0.00  0.00    +0.000 A 
ATOM     26  C   UNL     1      -1.339  11.925  19.441  0.00  0.00    +0.000 A 
ATOM     27  C   UNL     1      -2.702  12.076  19.204  0.00  0.00    +0.000 A 
ATOM     28  C   UNL     1      -3.320  11.280  18.249  0.00  0.00    +0.000 A 
ATOM     29  C   UNL     1      -2.543  10.362  17.562  0.00  0.00    +0.000 A 
ATOM     30  N   UNL     1      -1.217  10.185  17.774  0.00  0.00    +0.000 NA
ENDBRANCH  24  25
ENDBRANCH  22  24
ENDBRANCH  18  21
ENDBRANCH   1  19
TORSDOF 6
ENDMDL
MODEL 4
REMARK VINA RESULT:      -8.4      1.831      3.028
REMARK  Name = 
REMARK  6 active torsions:
REMARK  status: ('A' for Active; 'I' for Inactive)
REMARK    1  A    between atoms: C_2  and  C_3
REMARK    2  A    between atoms: C_4  and  C_5
REMARK    3  A    between atoms: N_7  and  C_8
REMARK    4  A    between atoms: C_15  and  C_16
REMARK    5  A    between atoms: N_22  and  C_23
REMARK    6  A    between atoms: C_23  and  C_24
REMARK                            x       y       z     vdW  Elec       q    Type
REMARK                         _______ _______ _______ _____ _____    ______ ____
ROOT
ATOM      1  C   UNL     1       3.854   6.194  17.449  0.00  0.00    +0.000 A 
ATOM      2  C   UNL     1       4.677   6.372  16.366  0.00  0.00    +0.000 A 
ATOM      3  N   UNL     1       4.938   5.120  15.854  0.00  0.00    +0.000 N 
ATOM      4  N   UNL     1       4.317   4.150  16.574  0.00  0.00    +0.000 NA
ATOM      5  C   UNL     1       3.705   4.789  17.584  0.00  0.00    +0.000 A 
ENDROOT
BRANCH   3   6
ATOM      6  C   UNL     1       5.734   4.798  14.719  0.00  0.00    +0.000 A 
ATOM      7  C   UNL     1       5.271   3.888  13.759  0.00  0.00    +0.000 A 
ATOM      8  C   UNL     1       6.055   3.581  12.646  0.00  0.00    +0.000 A 
ATOM      9  C   UNL     1       7.309   4.164  12.495  0.00  0.00    +0.000 A 
ATOM     10  C   UNL     1       7.780   5.067  13.446  0.00  0.00    +0.000 A 
ATOM     11  C   UNL     1       6.994   5.393  14.555  0.00  0.00    +0.000 A 
ENDBRANCH   3   6
BRANCH   5  12
ATOM     12  C   UNL     1       3.011   4.043  18.628  0.00  0.00    +0.000 A 
ATOM     13  C   UNL     1       1.617   3.930  18.640  0.00  0.00    +0.000 A 
ATOM     14  C   UNL     1       0.985   3.231  19.660  0.00  0.00    +0.000 A 
ATOM     15  C   UNL     1       1.768   2.667  20.650  0.00  0.00    +0.000 A 
ATOM     16  N   UNL     1       3.115   2.748  20.680  0.00  0.00    +0.000 NA
ATOM     17  C   UNL     1       3.704   3.440  19.670  0.00  0.00    +0.000 A 
ENDBRANCH   5  12
BRANCH   1  19
ATOM     18  C   UNL     1       2.236   7.962  17.852  0.00  0.00    +0.000 C 
ATOM     19  C   UNL     1       3.303   7.242  18.238  0.00  0.00    +0.000 C 
BRANCH  18  21
ATOM     20  O   UNL     1       1.478   8.768  19.959  0.00  0.00    +0.000 OA
ATOM     21  C   UNL     1       1.648   8.977  18.764  0.00  0.00    +0.000 C 
ATOM     22  N   UNL     1       1.318  10.144  18.127  0.00  0.00    +0.000 N 
ATOM     23  H   UNL     1       1.349  10.206  17.120  0.00  0.00    +0.000 HD
BRANCH  22  24
ATOM     24  C   UNL     1       0.726  11.271  18.826  0.00  0.00    +0.000 C 
BRANCH  24  25
ATOM     25  C   UNL     1       1.715  12.383  19.094  0.00  0.00    +0.000 A 
ATOM     26  C   UNL     1       2.464  12.920  18.048  0.00  0.00    +0.000 A 
ATOM     27  C   UNL     1       3.385  13.928  18.324  0.00  0.00    +0.000 A 
ATOM     28  C   UNL     1       3.533  14.376  19.630  0.00  0.00    +0.000 A 
ATOM     29  C   UNL     1       2.746  13.797  20.612  0.00  0.00    +0.000 A 
ATOM     30  N   UNL     1       1.849  12.811  20.378  0.00  0.00    +0.000 NA
ENDBRANCH  24  25
ENDBRANCH  22  24
ENDBRANCH  18  21
ENDBRANCH   1  19
TORSDOF 6
ENDMDL
MODEL 5
REMARK VINA RESULT:      -8.3      2.538      8.529
REMARK  Name = 
REMARK  6 active torsions:
REMARK  status: ('A' for Active; 'I' for Inactive)
REMARK    1  A    between atoms: C_2  and  C_3
REMARK    2  A    between atoms: C_4  and  C_5
REMARK    3  A    between atoms: N_7  and  C_8
REMARK    4  A    between atoms: C_15  and  C_16
REMARK    5  A    between atoms: N_22  and  C_23
REMARK    6  A    between atoms: C_23  and  C_24
REMARK                            x       y       z     vdW  Elec       q    Type
REMARK                         _______ _______ _______ _____ _____    ______ ____
ROOT
ATOM      1  C   UNL     1       2.651   6.854  19.391  0.00  0.00    +0.000 A 
ATOM      2  C   UNL     1       2.193   8.140  19.526  0.00  0.00    +0.000 A 
ATOM      3  N   UNL     1       1.227   8.118  20.508  0.00  0.00    +0.000 N 
ATOM      4  N   UNL     1       1.048   6.865  20.999  0.00  0.00    +0.000 NA
ATOM      5  C   UNL     1       1.866   6.077  20.283  0.00  0.00    +0.000 A 
ENDROOT
BRANCH   3   6
ATOM      6  C   UNL     1       0.475   9.219  21.007  0.00  0.00    +0.000 A 
ATOM      7  C   UNL     1       0.157  10.300  20.174  0.00  0.00    +0.000 A 
ATOM      8  C   UNL     1      -0.584  11.374  20.669  0.00  0.00    +0.000 A 
ATOM      9  C   UNL     1      -0.994  11.385  21.999  0.00  0.00    +0.000 A 
ATOM     10  C   UNL     1      -0.678  10.316  22.836  0.00  0.00    +0.000 A 
ATOM     11  C   UNL     1       0.049   9.228  22.343  0.00  0.00    +0.000 A 
ENDBRANCH   3   6
BRANCH   5  12
ATOM     12  C   UNL     1       1.867   4.632  20.472  0.00  0.00    +0.000 A 
ATOM     13  C   UNL     1       1.382   3.766  19.486  0.00  0.00    +0.000 A 
ATOM     14  C   UNL     1       1.376   2.395  19.707  0.00  0.00    +0.000 A 
ATOM     15  C   UNL     1       1.851   1.924  20.917  0.00  0.00    +0.000 A 
ATOM     16  N   UNL     1       2.330   2.720  21.897  0.00  0.00    +0.000 NA
ATOM     17  C   UNL     1       2.320   4.056  21.652  0.00  0.00    +0.000 A 
ENDBRANCH   5  12
BRANCH   1  19
ATOM     18  C   UNL     1       3.984   7.094  17.373  0.00  0.00    +0.000 C 
ATOM     19  C   UNL     1       3.695   6.446  18.514  0.00  0.00    +0.000 C 
BRANCH  18  21
ATOM     20  O   UNL     1       5.361   7.127  15.432  0.00  0.00    +0.000 OA
ATOM     21  C   UNL     1       5.150   6.677  16.552  0.00  0.00    +0.000 C 
ATOM     22  N   UNL     1       5.940   5.747  17.174  0.00  0.00    +0.000 N 
ATOM     23  H   UNL     1       5.640   5.311  18.033  0.00  0.00    +0.000 HD
BRANCH  22  24
ATOM     24  C   UNL     1       7.132   5.198  16.552  0.00  0.00    +0.000 C 
BRANCH  24  25
ATOM     25  C   UNL     1       6.917   4.812  15.105  0.00  0.00    +0.000 A 
ATOM     26  C   UNL     1       5.932   3.887  14.766  0.00  0.00    +0.000 A 
ATOM     27  C   UNL     1       5.769   3.532  13.429  0.00  0.00    +0.000 A 
ATOM     28  C   UNL     1       6.589   4.107  12.468  0.00  0.00    +0.000 A 
ATOM     29  C   UNL     1       7.540   5.024  12.883  0.00  0.00    +0.000 A 
ATOM     30  N   UNL     1       7.728   5.385  14.175  0.00  0.00    +0.000 NA
ENDBRANCH  24  25
ENDBRANCH  22  24
ENDBRANCH  18  21
ENDBRANCH   1  19
TORSDOF 6
ENDMDL
MODEL 6
REMARK VINA RESULT:      -8.3      0.997      1.490
REMARK  Name = 
REMARK  6 active torsions:
REMARK  status: ('A' for Active; 'I' for Inactive)
REMARK    1  A    between atoms: C_2  and  C_3
REMARK    2  A    between atoms: C_4  and  C_5
REMARK    3  A    between atoms: N_7  and  C_8
REMARK    4  A    between atoms: C_15  and  C_16
REMARK    5  A    between atoms: N_22  and  C_23
REMARK    6  A    between atoms: C_23  and  C_24
REMARK                            x       y       z     vdW  Elec       q    Type
REMARK                         _______ _______ _______ _____ _____    ______ ____
ROOT
ATOM      1  C   UNL     1       3.239   6.502  17.933  0.00  0.00    +0.000 A 
ATOM      2  C   UNL     1       4.145   6.673  16.917  0.00  0.00    +0.000 A 
ATOM      3  N   UNL     1       4.547   5.414  16.527  0.00  0.00    +0.000 N 
ATOM      4  N   UNL     1       3.936   4.449  17.260  0.00  0.00    +0.000 NA
ATOM      5  C   UNL     1       3.184   5.102  18.161  0.00  0.00    +0.000 A 
ENDROOT
BRANCH   3   6
ATOM      6  C   UNL     1       5.470   5.082  15.495  0.00  0.00    +0.000 A 
ATOM      7  C   UNL     1       5.085   4.245  14.439  0.00  0.00    +0.000 A 
ATOM      8  C   UNL     1       5.993   3.927  13.428  0.00  0.00    +0.000 A 
ATOM      9  C   UNL     1       7.291   4.426  13.475  0.00  0.00    +0.000 A 
ATOM     10  C   UNL     1       7.685   5.255  14.524  0.00  0.00    +0.000 A 
ATOM     11  C   UNL     1       6.776   5.592  15.532  0.00  0.00    +0.000 A 
ENDBRANCH   3   6
BRANCH   5  12
ATOM     12  C   UNL     1       2.452   4.376  19.191  0.00  0.00    +0.000 A 
ATOM     13  C   UNL     1       2.804   4.473  20.542  0.00  0.00    +0.000 A 
ATOM     14  C   UNL     1       2.100   3.751  21.497  0.00  0.00    +0.000 A 
ATOM     15  C   UNL     1       1.063   2.941  21.073  0.00  0.00    +0.000 A 
ATOM     16  N   UNL     1       0.686   2.816  19.783  0.00  0.00    +0.000 NA
ATOM     17  C   UNL     1       1.395   3.533  18.872  0.00  0.00    +0.000 A 
ENDBRANCH   5  12
BRANCH   1  19
ATOM     18  C   UNL     1       1.980   8.581  17.926  0.00  0.00    +0.000 C 
ATOM     19  C   UNL     1       2.538   7.553  18.588  0.00  0.00    +0.000 C 
BRANCH  18  21
ATOM     20  O   UNL     1       1.492  10.011  19.765  0.00  0.00    +0.000 OA
ATOM     21  C   UNL     1       1.176   9.594  18.657  0.00  0.00    +0.000 C 
ATOM     22  N   UNL     1       0.062   9.994  17.969  0.00  0.00    +0.000 N 
ATOM     23  H   UNL     1      -0.222   9.514  17.128  0.00  0.00    +0.000 HD
BRANCH  22  24
ATOM     24  C   UNL     1      -0.869  10.976  18.498  0.00  0.00    +0.000 C 
BRANCH  24  25
ATOM     25  C   UNL     1      -2.183  11.006  17.749  0.00  0.00    +0.000 A 
ATOM     26  C   UNL     1      -2.291  10.395  16.501  0.00  0.00    +0.000 A 
ATOM     27  C   UNL     1      -3.504  10.456  15.821  0.00  0.00    +0.000 A 
ATOM     28  C   UNL     1      -4.577  11.120  16.401  0.00  0.00    +0.000 A 
ATOM     29  C   UNL     1      -4.392  11.696  17.647  0.00  0.00    +0.000 A 
ATOM     30  N   UNL     1      -3.224  11.660  18.330  0.00  0.00    +0.000 NA
ENDBRANCH  24  25
ENDBRANCH  22  24
ENDBRANCH  18  21
ENDBRANCH   1  19
TORSDOF 6
ENDMDL
MODEL 7
REMARK VINA RESULT:      -8.3      2.804      8.542
REMARK  Name = 
REMARK  6 active torsions:
REMARK  status: ('A' for Active; 'I' for Inactive)
REMARK    1  A    between atoms: C_2  and  C_3
REMARK    2  A    between atoms: C_4  and  C_5
REMARK    3  A    between atoms: N_7  and  C_8
REMARK    4  A    between atoms: C_15  and  C_16
REMARK    5  A    between atoms: N_22  and  C_23
REMARK    6  A    between atoms: C_23  and  C_24
REMARK                            x       y       z     vdW  Elec       q    Type
REMARK                         _______ _______ _______ _____ _____    ______ ____
ROOT
ATOM      1  C   UNL     1       3.576   6.809  17.933  0.00  0.00    +0.000 A 
ATOM      2  C   UNL     1       3.002   7.991  18.327  0.00  0.00    +0.000 A 
ATOM      3  N   UNL     1       2.121   7.687  19.342  0.00  0.00    +0.000 N 
ATOM      4  N   UNL     1       2.109   6.355  19.606  0.00  0.00    +0.000 NA
ATOM      5  C   UNL     1       2.946   5.804  18.712  0.00  0.00    +0.000 A 
ENDROOT
BRANCH   3   6
ATOM      6  C   UNL     1       1.302   8.591  20.076  0.00  0.00    +0.000 A 
ATOM      7  C   UNL     1       0.710   9.691  19.442  0.00  0.00    +0.000 A 
ATOM      8  C   UNL     1      -0.096  10.570  20.166  0.00  0.00    +0.000 A 
ATOM      9  C   UNL     1      -0.299  10.368  21.528  0.00  0.00    +0.000 A 
ATOM     10  C   UNL     1       0.290   9.279  22.169  0.00  0.00    +0.000 A 
ATOM     11  C   UNL     1       1.084   8.384  21.446  0.00  0.00    +0.000 A 
ENDBRANCH   3   6
BRANCH   5  12
ATOM     12  C   UNL     1       3.108   4.357  18.635  0.00  0.00    +0.000 A 
ATOM     13  C   UNL     1       2.432   3.597  17.674  0.00  0.00    +0.000 A 
ATOM     14  C   UNL     1       2.592   2.218  17.641  0.00  0.00    +0.000 A 
ATOM     15  C   UNL     1       3.422   1.631  18.578  0.00  0.00    +0.000 A 
ATOM     16  N   UNL     1       4.097   2.323  19.521  0.00  0.00    +0.000 NA
ATOM     17  C   UNL     1       3.918   3.669  19.530  0.00  0.00    +0.000 A 
ENDBRANCH   5  12
BRANCH   1  19
ATOM     18  C   UNL     1       5.620   5.833  17.053  0.00  0.00    +0.000 C 
ATOM     19  C   UNL     1       4.586   6.683  16.939  0.00  0.00    +0.000 C 
BRANCH  18  21
ATOM     20  O   UNL     1       7.656   6.273  15.902  0.00  0.00    +0.000 OA
ATOM     21  C   UNL     1       6.587   5.677  15.936  0.00  0.00    +0.000 C 
ATOM     22  N   UNL     1       6.150   4.814  14.965  0.00  0.00    +0.000 N 
ATOM     23  H   UNL     1       5.204   4.463  14.977  0.00  0.00    +0.000 HD
BRANCH  22  24
ATOM     24  C   UNL     1       6.935   4.515  13.780  0.00  0.00    +0.000 C 
BRANCH  24  25
ATOM     25  C   UNL     1       6.189   3.660  12.780  0.00  0.00    +0.000 A 
ATOM     26  C   UNL     1       6.848   2.632  12.108  0.00  0.00    +0.000 A 
ATOM     27  C   UNL     1       6.145   1.875  11.175  0.00  0.00    +0.000 A 
ATOM     28  C   UNL     1       4.806   2.158  10.938  0.00  0.00    +0.000 A 
ATOM     29  C   UNL     1       4.221   3.191  11.651  0.00  0.00    +0.000 A 
ATOM     30  N   UNL     1       4.879   3.950  12.558  0.00  0.00    +0.000 NA
ENDBRANCH  24  25
ENDBRANCH  22  24
ENDBRANCH  18  21
ENDBRANCH   1  19
TORSDOF 6
ENDMDL
MODEL 8
REMARK VINA RESULT:      -8.2      2.885      8.545
REMARK  Name = 
REMARK  6 active torsions:
REMARK  status: ('A' for Active; 'I' for Inactive)
REMARK    1  A    between atoms: C_2  and  C_3
REMARK    2  A    between atoms: C_4  and  C_5
REMARK    3  A    between atoms: N_7  and  C_8
REMARK    4  A    between atoms: C_15  and  C_16
REMARK    5  A    between atoms: N_22  and  C_23
REMARK    6  A    between atoms: C_23  and  C_24
REMARK                            x       y       z     vdW  Elec       q    Type
REMARK                         _______ _______ _______ _____ _____    ______ ____
ROOT
ATOM      1  C   UNL     1       3.787   6.527  17.538  0.00  0.00    +0.000 A 
ATOM      2  C   UNL     1       3.292   7.794  17.718  0.00  0.00    +0.000 A 
ATOM      3  N   UNL     1       2.385   7.723  18.753  0.00  0.00    +0.000 N 
ATOM      4  N   UNL     1       2.281   6.458  19.236  0.00  0.00    +0.000 NA
ATOM      5  C   UNL     1       3.084   5.711  18.463  0.00  0.00    +0.000 A 
ENDROOT
BRANCH   3   6
ATOM      6  C   UNL     1       1.624   8.790  19.311  0.00  0.00    +0.000 A 
ATOM      7  C   UNL     1       1.244   8.764  20.659  0.00  0.00    +0.000 A 
ATOM      8  C   UNL     1       0.503   9.815  21.201  0.00  0.00    +0.000 A 
ATOM      9  C   UNL     1       0.120  10.884  20.397  0.00  0.00    +0.000 A 
ATOM     10  C   UNL     1       0.489  10.917  19.053  0.00  0.00    +0.000 A 
ATOM     11  C   UNL     1       1.247   9.876  18.507  0.00  0.00    +0.000 A 
ENDBRANCH   3   6
BRANCH   5  12
ATOM     12  C   UNL     1       3.148   4.264  18.631  0.00  0.00    +0.000 A 
ATOM     13  C   UNL     1       2.737   3.392  17.617  0.00  0.00    +0.000 A 
ATOM     14  C   UNL     1       2.790   2.019  17.818  0.00  0.00    +0.000 A 
ATOM     15  C   UNL     1       3.249   1.551  19.035  0.00  0.00    +0.000 A 
ATOM     16  N   UNL     1       3.658   2.354  20.042  0.00  0.00    +0.000 NA
ATOM     17  C   UNL     1       3.592   3.691  19.816  0.00  0.00    +0.000 A 
ENDBRANCH   5  12
BRANCH   1  19
ATOM     18  C   UNL     1       5.898   5.482  16.937  0.00  0.00    +0.000 C 
ATOM     19  C   UNL     1       4.793   6.169  16.598  0.00  0.00    +0.000 C 
BRANCH  18  21
ATOM     20  O   UNL     1       7.907   4.473  16.157  0.00  0.00    +0.000 OA
ATOM     21  C   UNL     1       6.862   5.053  15.891  0.00  0.00    +0.000 C 
ATOM     22  N   UNL     1       6.460   5.382  14.624  0.00  0.00    +0.000 N 
ATOM     23  H   UNL     1       5.663   5.983  14.477  0.00  0.00    +0.000 HD
BRANCH  22  24
ATOM     24  C   UNL     1       7.252   5.062  13.449  0.00  0.00    +0.000 C 
BRANCH  24  25
ATOM     25  C   UNL     1       6.678   3.914  12.647  0.00  0.00    +0.000 A 
ATOM     26  C   UNL     1       7.525   3.054  11.951  0.00  0.00    +0.000 A 
ATOM     27  C   UNL     1       6.971   2.019  11.202  0.00  0.00    +0.000 A 
ATOM     28  C   UNL     1       5.591   1.868  11.167  0.00  0.00    +0.000 A 
ATOM     29  C   UNL     1       4.817   2.759  11.891  0.00  0.00    +0.000 A 
ATOM     30  N   UNL     1       5.325   3.779  12.622  0.00  0.00    +0.000 NA
ENDBRANCH  24  25
ENDBRANCH  22  24
ENDBRANCH  18  21
ENDBRANCH   1  19
TORSDOF 6
ENDMDL
MODEL 9
REMARK VINA RESULT:      -8.2      0.739      1.261
REMARK  Name = 
REMARK  6 active torsions:
REMARK  status: ('A' for Active; 'I' for Inactive)
REMARK    1  A    between atoms: C_2  and  C_3
REMARK    2  A    between atoms: C_4  and  C_5
REMARK    3  A    between atoms: N_7  and  C_8
REMARK    4  A    between atoms: C_15  and  C_16
REMARK    5  A    between atoms: N_22  and  C_23
REMARK    6  A    between atoms: C_23  and  C_24
REMARK                            x       y       z     vdW  Elec       q    Type
REMARK                         _______ _______ _______ _____ _____    ______ ____
ROOT
ATOM      1  C   UNL     1       3.696   6.144  17.528  0.00  0.00    +0.000 A 
ATOM      2  C   UNL     1       4.518   6.338  16.447  0.00  0.00    +0.000 A 
ATOM      3  N   UNL     1       4.853   5.089  15.972  0.00  0.00    +0.000 N 
ATOM      4  N   UNL     1       4.279   4.106  16.713  0.00  0.00    +0.000 NA
ATOM      5  C   UNL     1       3.622   4.737  17.700  0.00  0.00    +0.000 A 
ENDROOT
BRANCH   3   6
ATOM      6  C   UNL     1       5.677   4.781  14.852  0.00  0.00    +0.000 A 
ATOM      7  C   UNL     1       6.935   5.381  14.708  0.00  0.00    +0.000 A 
ATOM      8  C   UNL     1       7.739   5.072  13.610  0.00  0.00    +0.000 A 
ATOM      9  C   UNL     1       7.286   4.179  12.644  0.00  0.00    +0.000 A 
ATOM     10  C   UNL     1       6.034   3.580  12.776  0.00  0.00    +0.000 A 
ATOM     11  C   UNL     1       5.229   3.872  13.882  0.00  0.00    +0.000 A 
ENDBRANCH   3   6
BRANCH   5  12
ATOM     12  C   UNL     1       2.960   3.983  18.757  0.00  0.00    +0.000 A 
ATOM     13  C   UNL     1       3.691   3.307  19.740  0.00  0.00    +0.000 A 
ATOM     14  C   UNL     1       3.031   2.579  20.721  0.00  0.00    +0.000 A 
ATOM     15  C   UNL     1       1.649   2.541  20.689  0.00  0.00    +0.000 A 
ATOM     16  N   UNL     1       0.901   3.178  19.764  0.00  0.00    +0.000 NA
ATOM     17  C   UNL     1       1.576   3.879  18.816  0.00  0.00    +0.000 A 
ENDBRANCH   5  12
BRANCH   1  19
ATOM     18  C   UNL     1       2.179   8.029  17.759  0.00  0.00    +0.000 C 
ATOM     19  C   UNL     1       3.081   7.181  18.283  0.00  0.00    +0.000 C 
BRANCH  18  21
ATOM     20  O   UNL     1       1.510   8.955  19.846  0.00  0.00    +0.000 OA
ATOM     21  C   UNL     1       1.499   9.027  18.624  0.00  0.00    +0.000 C 
ATOM     22  N   UNL     1       0.865  10.011  17.912  0.00  0.00    +0.000 N 
ATOM     23  H   UNL     1       0.771   9.940  16.910  0.00  0.00    +0.000 HD
BRANCH  22  24
ATOM     24  C   UNL     1       0.135  11.089  18.555  0.00  0.00    +0.000 C 
BRANCH  24  25
ATOM     25  C   UNL     1      -1.357  11.012  18.319  0.00  0.00    +0.000 A 
ATOM     26  C   UNL     1      -2.212  11.920  18.941  0.00  0.00    +0.000 A 
ATOM     27  C   UNL     1      -3.584  11.814  18.726  0.00  0.00    +0.000 A 
ATOM     28  C   UNL     1      -4.067  10.810  17.897  0.00  0.00    +0.000 A 
ATOM     29  C   UNL     1      -3.153   9.951  17.310  0.00  0.00    +0.000 A 
ATOM     30  N   UNL     1      -1.816  10.023  17.505  0.00  0.00    +0.000 NA
ENDBRANCH  24  25
ENDBRANCH  22  24
ENDBRANCH  18  21
ENDBRANCH   1  19
TORSDOF 6
ENDMDL
