MODEL 1
REMARK VINA RESULT:      -8.3      0.000      0.000
REMARK  Name = 
REMARK  7 active torsions:
REMARK  status: ('A' for Active; 'I' for Inactive)
REMARK    1  A    between atoms: C_1  and  O_2
REMARK    2  A    between atoms: O_2  and  C_3
REMARK    3  A    between atoms: C_4  and  N_5
REMARK    4  A    between atoms: C_6  and  C_8
REMARK    5  A    between atoms: N_22  and  C_23
REMARK    6  A    between atoms: C_23  and  C_24
REMARK    7  A    between atoms: N_28  and  C_29
REMARK                            x       y       z     vdW  Elec       q    Type
REMARK                         _______ _______ _______ _____ _____    ______ ____
ROOT
ATOM      1  C   UNL     1       1.331  11.158  19.039  0.00  0.00    +0.000 C 
ATOM      2  C   UNL     1       0.204  12.231  19.070  0.00  0.00    +0.000 C 
ATOM      3  C   UNL     1      -0.927  11.567  18.343  0.00  0.00    +0.000 A 
ATOM      4  C   UNL     1      -2.116  12.173  17.961  0.00  0.00    +0.000 A 
ATOM      5  C   UNL     1      -3.080  11.410  17.308  0.00  0.00    +0.000 A 
ATOM      6  C   UNL     1      -2.851  10.049  17.059  0.00  0.00    +0.000 A 
ATOM      7  C   UNL     1      -1.650   9.449  17.445  0.00  0.00    +0.000 A 
ATOM      8  C   UNL     1      -0.676  10.222  18.073  0.00  0.00    +0.000 A 
ATOM      9  C   UNL     1       0.676   9.781  18.594  0.00  0.00    +0.000 C 
ATOM     10  C   UNL     1       0.452   8.852  19.806  0.00  0.00    +0.000 C 
ATOM     11  C   UNL     1       1.769   8.266  20.308  0.00  0.00    +0.000 C 
ATOM     12  N   UNL     1       2.512   7.512  19.293  0.00  0.00    +0.000 NA
ATOM     13  C   UNL     1       2.777   8.395  18.132  0.00  0.00    +0.000 C 
ATOM     14  C   UNL     1       1.509   9.028  17.530  0.00  0.00    +0.000 C 
ENDROOT
BRANCH   2  15
ATOM     15  N   UNL     1      -0.196  12.604  20.412  0.00  0.00    +0.000 N 
ATOM     16  C   UNL     1      -0.367  13.915  20.796  0.00  0.00    +0.000 C 
ATOM     17  O   UNL     1      -0.101  14.853  20.054  0.00  0.00    +0.000 OA
ATOM     18  H   UNL     1      -0.417  11.874  21.076  0.00  0.00    +0.000 HD
BRANCH  16  19
ATOM     19  C   UNL     1      -0.908  14.101  22.144  0.00  0.00    +0.000 A 
ATOM     20  C   UNL     1      -1.791  13.272  22.812  0.00  0.00    +0.000 A 
ATOM     21  C   UNL     1      -2.084  13.729  24.129  0.00  0.00    +0.000 A 
ATOM     22  C   UNL     1      -1.418  14.897  24.430  0.00  0.00    +0.000 A 
ATOM     23  S   UNL     1      -0.460  15.440  23.127  0.00  0.00    +0.000 S 
ENDBRANCH  16  19
ENDBRANCH   2  15
BRANCH   1  25
ATOM     24  C   UNL     1       2.654  12.926  18.103  0.00  0.00    +0.000 C 
ATOM     25  O   UNL     1       2.387  11.527  18.130  0.00  0.00    +0.000 OA
ENDBRANCH   1  25
BRANCH  12  26
ATOM     26  C   UNL     1       1.872   6.264  18.835  0.00  0.00    +0.000 C 
BRANCH  26  27
ATOM     27  C   UNL     1       2.068   5.045  19.693  0.00  0.00    +0.000 A 
ATOM     28  C   UNL     1       1.276   4.525  20.707  0.00  0.00    +0.000 A 
ATOM     29  C   UNL     1       1.782   3.261  21.065  0.00  0.00    +0.000 A 
ATOM     30  C   UNL     1       2.910   3.055  20.310  0.00  0.00    +0.000 A 
ATOM     31  N   UNL     1       3.134   4.160  19.510  0.00  0.00    +0.000 N 
BRANCH  31  32
ATOM     32  C   UNL     1       4.269   4.302  18.666  0.00  0.00    +0.000 A 
ATOM     33  C   UNL     1       4.181   3.995  17.304  0.00  0.00    +0.000 A 
ATOM     34  C   UNL     1       5.314   4.114  16.502  0.00  0.00    +0.000 A 
ATOM     35  C   UNL     1       6.499   4.520  17.091  0.00  0.00    +0.000 A 
ATOM     36  N   UNL     1       6.620   4.815  18.402  0.00  0.00    +0.000 NA
ATOM     37  C   UNL     1       5.505   4.692  19.163  0.00  0.00    +0.000 A 
ENDBRANCH  31  32
ENDBRANCH  26  27
ENDBRANCH  12  26
TORSDOF 6
ENDMDL
MODEL 2
REMARK VINA RESULT:      -8.2      0.708      1.058
REMARK  Name = 
REMARK  7 active torsions:
REMARK  status: ('A' for Active; 'I' for Inactive)
REMARK    1  A    between atoms: C_1  and  O_2
REMARK    2  A    between atoms: O_2  and  C_3
REMARK    3  A    between atoms: C_4  and  N_5
REMARK    4  A    between atoms: C_6  and  C_8
REMARK    5  A    between atoms: N_22  and  C_23
REMARK    6  A    between atoms: C_23  and  C_24
REMARK    7  A    between atoms: N_28  and  C_29
REMARK                            x       y       z     vdW  Elec       q    Type
REMARK                         _______ _______ _______ _____ _____    ______ ____
ROOT
ATOM      1  C   UNL     1       1.305  11.154  19.061  0.00  0.00    +0.000 C 
ATOM      2  C   UNL     1       0.167  12.217  19.095  0.00  0.00    +0.000 C 
ATOM      3  C   UNL     1      -0.954  11.547  18.359  0.00  0.00    +0.000 A 
ATOM      4  C   UNL     1      -2.147  12.145  17.976  0.00  0.00    +0.000 A 
ATOM      5  C   UNL     1      -3.101  11.376  17.313  0.00  0.00    +0.000 A 
ATOM      6  C   UNL     1      -2.857  10.020  17.055  0.00  0.00    +0.000 A 
ATOM      7  C   UNL     1      -1.652   9.429  17.441  0.00  0.00    +0.000 A 
ATOM      8  C   UNL     1      -0.689  10.207  18.079  0.00  0.00    +0.000 A 
ATOM      9  C   UNL     1       0.666   9.775  18.604  0.00  0.00    +0.000 C 
ATOM     10  C   UNL     1       0.445   8.834  19.807  0.00  0.00    +0.000 C 
ATOM     11  C   UNL     1       1.765   8.257  20.311  0.00  0.00    +0.000 C 
ATOM     12  N   UNL     1       2.520   7.519  19.293  0.00  0.00    +0.000 NA
ATOM     13  C   UNL     1       2.782   8.413  18.140  0.00  0.00    +0.000 C 
ATOM     14  C   UNL     1       1.510   9.038  17.537  0.00  0.00    +0.000 C 
ENDROOT
BRANCH   2  15
ATOM     15  N   UNL     1      -0.242  12.575  20.439  0.00  0.00    +0.000 N 
ATOM     16  C   UNL     1      -0.468  13.879  20.821  0.00  0.00    +0.000 C 
ATOM     17  O   UNL     1      -0.246  14.825  20.075  0.00  0.00    +0.000 OA
ATOM     18  H   UNL     1      -0.428  11.838  21.106  0.00  0.00    +0.000 HD
BRANCH  16  19
ATOM     19  C   UNL     1      -1.010  14.045  22.170  0.00  0.00    +0.000 A 
ATOM     20  C   UNL     1      -0.585  14.937  23.138  0.00  0.00    +0.000 A 
ATOM     21  C   UNL     1      -1.360  14.864  24.331  0.00  0.00    +0.000 A 
ATOM     22  C   UNL     1      -2.353  13.914  24.243  0.00  0.00    +0.000 A 
ATOM     23  S   UNL     1      -2.340  13.113  22.737  0.00  0.00    +0.000 S 
ENDBRANCH  16  19
ENDBRANCH   2  15
BRANCH   1  25
ATOM     24  C   UNL     1       2.656  12.935  18.190  0.00  0.00    +0.000 C 
ATOM     25  O   UNL     1       2.361  11.541  18.160  0.00  0.00    +0.000 OA
ENDBRANCH   1  25
BRANCH  12  26
ATOM     26  C   UNL     1       1.895   6.268  18.823  0.00  0.00    +0.000 C 
BRANCH  26  27
ATOM     27  C   UNL     1       2.080   5.049  19.685  0.00  0.00    +0.000 A 
ATOM     28  C   UNL     1       1.244   4.493  20.643  0.00  0.00    +0.000 A 
ATOM     29  C   UNL     1       1.771   3.246  21.025  0.00  0.00    +0.000 A 
ATOM     30  C   UNL     1       2.952   3.086  20.342  0.00  0.00    +0.000 A 
ATOM     31  N   UNL     1       3.186   4.204  19.565  0.00  0.00    +0.000 N 
BRANCH  31  32
ATOM     32  C   UNL     1       4.366   4.393  18.795  0.00  0.00    +0.000 A 
ATOM     33  C   UNL     1       5.432   5.143  19.304  0.00  0.00    +0.000 A 
ATOM     34  C   UNL     1       6.566   5.339  18.519  0.00  0.00    +0.000 A 
ATOM     35  C   UNL     1       6.590   4.793  17.247  0.00  0.00    +0.000 A 
ATOM     36  N   UNL     1       5.576   4.073  16.723  0.00  0.00    +0.000 NA
ATOM     37  C   UNL     1       4.483   3.896  17.504  0.00  0.00    +0.000 A 
ENDBRANCH  31  32
ENDBRANCH  26  27
ENDBRANCH  12  26
TORSDOF 6
ENDMDL
MODEL 3
REMARK VINA RESULT:      -8.1      1.930      3.112
REMARK  Name = 
REMARK  7 active torsions:
REMARK  status: ('A' for Active; 'I' for Inactive)
REMARK    1  A    between atoms: C_1  and  O_2
REMARK    2  A    between atoms: O_2  and  C_3
REMARK    3  A    between atoms: C_4  and  N_5
REMARK    4  A    between atoms: C_6  and  C_8
REMARK    5  A    between atoms: N_22  and  C_23
REMARK    6  A    between atoms: C_23  and  C_24
REMARK    7  A    between atoms: N_28  and  C_29
REMARK                            x       y       z     vdW  Elec       q    Type
REMARK                         _______ _______ _______ _____ _____    ______ ____
ROOT
ATOM      1  C   UNL     1      -0.279  11.762  19.552  0.00  0.00    +0.000 C 
ATOM      2  C   UNL     1      -1.689  12.422  19.536  0.00  0.00    +0.000 C 
ATOM      3  C   UNL     1      -2.420  11.651  18.478  0.00  0.00    +0.000 A 
ATOM      4  C   UNL     1      -3.674  11.958  17.968  0.00  0.00    +0.000 A 
ATOM      5  C   UNL     1      -4.228  11.126  16.999  0.00  0.00    +0.000 A 
ATOM      6  C   UNL     1      -3.530   9.990  16.563  0.00  0.00    +0.000 A 
ATOM      7  C   UNL     1      -2.267   9.692  17.081  0.00  0.00    +0.000 A 
ATOM      8  C   UNL     1      -1.704  10.542  18.029  0.00  0.00    +0.000 A 
ATOM      9  C   UNL     1      -0.372  10.402  18.738  0.00  0.00    +0.000 C 
ATOM     10  C   UNL     1      -0.450   9.187  19.687  0.00  0.00    +0.000 C 
ATOM     11  C   UNL     1       0.899   8.907  20.344  0.00  0.00    +0.000 C 
ATOM     12  N   UNL     1       1.988   8.666  19.390  0.00  0.00    +0.000 NA
ATOM     13  C   UNL     1       2.111   9.838  18.490  0.00  0.00    +0.000 C 
ATOM     14  C   UNL     1       0.807  10.199  17.757  0.00  0.00    +0.000 C 
ENDROOT
BRANCH   2  15
ATOM     15  N   UNL     1      -2.379  12.332  20.807  0.00  0.00    +0.000 N 
ATOM     16  C   UNL     1      -3.167  13.350  21.296  0.00  0.00    +0.000 C 
ATOM     17  O   UNL     1      -3.260  14.433  20.730  0.00  0.00    +0.000 OA
ATOM     18  H   UNL     1      -2.330  11.467  21.329  0.00  0.00    +0.000 HD
BRANCH  16  19
ATOM     19  C   UNL     1      -3.899  13.034  22.524  0.00  0.00    +0.000 A 
ATOM     20  C   UNL     1      -3.370  12.569  23.715  0.00  0.00    +0.000 A 
ATOM     21  C   UNL     1      -4.360  12.402  24.726  0.00  0.00    +0.000 A 
ATOM     22  C   UNL     1      -5.618  12.739  24.277  0.00  0.00    +0.000 A 
ATOM     23  S   UNL     1      -5.601  13.242  22.647  0.00  0.00    +0.000 S 
ENDBRANCH  16  19
ENDBRANCH   2  15
BRANCH   1  25
ATOM     24  C   UNL     1       0.363  14.007  19.004  0.00  0.00    +0.000 C 
ATOM     25  O   UNL     1       0.715  12.628  18.970  0.00  0.00    +0.000 OA
ENDBRANCH   1  25
BRANCH  12  26
ATOM     26  C   UNL     1       1.868   7.433  18.590  0.00  0.00    +0.000 C 
BRANCH  26  27
ATOM     27  C   UNL     1       3.149   6.745  18.204  0.00  0.00    +0.000 A 
ATOM     28  C   UNL     1       4.207   7.192  17.425  0.00  0.00    +0.000 A 
ATOM     29  C   UNL     1       5.259   6.263  17.526  0.00  0.00    +0.000 A 
ATOM     30  C   UNL     1       4.807   5.233  18.314  0.00  0.00    +0.000 A 
ATOM     31  N   UNL     1       3.500   5.482  18.687  0.00  0.00    +0.000 N 
BRANCH  31  32
ATOM     32  C   UNL     1       2.710   4.570  19.440  0.00  0.00    +0.000 A 
ATOM     33  C   UNL     1       1.812   3.712  18.796  0.00  0.00    +0.000 A 
ATOM     34  C   UNL     1       1.028   2.848  19.557  0.00  0.00    +0.000 A 
ATOM     35  C   UNL     1       1.156   2.882  20.935  0.00  0.00    +0.000 A 
ATOM     36  N   UNL     1       2.006   3.703  21.587  0.00  0.00    +0.000 NA
ATOM     37  C   UNL     1       2.758   4.535  20.827  0.00  0.00    +0.000 A 
ENDBRANCH  31  32
ENDBRANCH  26  27
ENDBRANCH  12  26
TORSDOF 6
ENDMDL
MODEL 4
REMARK VINA RESULT:      -8.0      0.943      1.210
REMARK  Name = 
REMARK  7 active torsions:
REMARK  status: ('A' for Active; 'I' for Inactive)
REMARK    1  A    between atoms: C_1  and  O_2
REMARK    2  A    between atoms: O_2  and  C_3
REMARK    3  A    between atoms: C_4  and  N_5
REMARK    4  A    between atoms: C_6  and  C_8
REMARK    5  A    between atoms: N_22  and  C_23
REMARK    6  A    between atoms: C_23  and  C_24
REMARK    7  A    between atoms: N_28  and  C_29
REMARK                            x       y       z     vdW  Elec       q    Type
REMARK                         _______ _______ _______ _____ _____    ______ ____
ROOT
ATOM      1  C   UNL     1       0.743  11.296  19.446  0.00  0.00    +0.000 C 
ATOM      2  C   UNL     1      -0.521  12.205  19.413  0.00  0.00    +0.000 C 
ATOM      3  C   UNL     1      -1.434  11.494  18.460  0.00  0.00    +0.000 A 
ATOM      4  C   UNL     1      -2.635  11.985  17.965  0.00  0.00    +0.000 A 
ATOM      5  C   UNL     1      -3.380  11.188  17.099  0.00  0.00    +0.000 A 
ATOM      6  C   UNL     1      -2.925   9.908  16.752  0.00  0.00    +0.000 A 
ATOM      7  C   UNL     1      -1.714   9.425  17.254  0.00  0.00    +0.000 A 
ATOM      8  C   UNL     1      -0.957  10.235  18.097  0.00  0.00    +0.000 A 
ATOM      9  C   UNL     1       0.361   9.911  18.771  0.00  0.00    +0.000 C 
ATOM     10  C   UNL     1       0.109   8.822  19.834  0.00  0.00    +0.000 C 
ATOM     11  C   UNL     1       1.416   8.353  20.470  0.00  0.00    +0.000 C 
ATOM     12  N   UNL     1       2.392   7.828  19.508  0.00  0.00    +0.000 NA
ATOM     13  C   UNL     1       2.682   8.872  18.496  0.00  0.00    +0.000 C 
ATOM     14  C   UNL     1       1.431   9.405  17.775  0.00  0.00    +0.000 C 
ENDROOT
BRANCH   2  15
ATOM     15  N   UNL     1      -1.150  12.358  20.710  0.00  0.00    +0.000 N 
ATOM     16  C   UNL     1      -1.695  13.551  21.132  0.00  0.00    +0.000 C 
ATOM     17  O   UNL     1      -1.598  14.581  20.476  0.00  0.00    +0.000 OA
ATOM     18  H   UNL     1      -1.249  11.546  21.304  0.00  0.00    +0.000 HD
BRANCH  16  19
ATOM     19  C   UNL     1      -2.412  13.489  22.407  0.00  0.00    +0.000 A 
ATOM     20  C   UNL     1      -3.263  12.487  22.839  0.00  0.00    +0.000 A 
ATOM     21  C   UNL     1      -3.764  12.721  24.152  0.00  0.00    +0.000 A 
ATOM     22  C   UNL     1      -3.285  13.897  24.685  0.00  0.00    +0.000 A 
ATOM     23  S   UNL     1      -2.250  14.714  23.603  0.00  0.00    +0.000 S 
ENDBRANCH  16  19
ENDBRANCH   2  15
BRANCH   1  25
ATOM     24  C   UNL     1       1.825  13.330  18.776  0.00  0.00    +0.000 C 
ATOM     25  O   UNL     1       1.848  11.905  18.751  0.00  0.00    +0.000 OA
ENDBRANCH   1  25
BRANCH  12  26
ATOM     26  C   UNL     1       2.007   6.574  18.835  0.00  0.00    +0.000 C 
BRANCH  26  27
ATOM     27  C   UNL     1       2.120   5.308  19.640  0.00  0.00    +0.000 A 
ATOM     28  C   UNL     1       1.263   4.768  20.588  0.00  0.00    +0.000 A 
ATOM     29  C   UNL     1       1.708   3.472  20.906  0.00  0.00    +0.000 A 
ATOM     30  C   UNL     1       2.864   3.262  20.196  0.00  0.00    +0.000 A 
ATOM     31  N   UNL     1       3.164   4.396  19.464  0.00  0.00    +0.000 N 
BRANCH  31  32
ATOM     32  C   UNL     1       4.343   4.537  18.682  0.00  0.00    +0.000 A 
ATOM     33  C   UNL     1       5.462   5.196  19.202  0.00  0.00    +0.000 A 
ATOM     34  C   UNL     1       6.596   5.348  18.407  0.00  0.00    +0.000 A 
ATOM     35  C   UNL     1       6.567   4.852  17.115  0.00  0.00    +0.000 A 
ATOM     36  N   UNL     1       5.501   4.220  16.580  0.00  0.00    +0.000 NA
ATOM     37  C   UNL     1       4.409   4.084  17.372  0.00  0.00    +0.000 A 
ENDBRANCH  31  32
ENDBRANCH  26  27
ENDBRANCH  12  26
TORSDOF 6
ENDMDL
MODEL 5
REMARK VINA RESULT:      -7.8      1.955      2.200
REMARK  Name = 
REMARK  7 active torsions:
REMARK  status: ('A' for Active; 'I' for Inactive)
REMARK    1  A    between atoms: C_1  and  O_2
REMARK    2  A    between atoms: O_2  and  C_3
REMARK    3  A    between atoms: C_4  and  N_5
REMARK    4  A    between atoms: C_6  and  C_8
REMARK    5  A    between atoms: N_22  and  C_23
REMARK    6  A    between atoms: C_23  and  C_24
REMARK    7  A    between atoms: N_28  and  C_29
REMARK                            x       y       z     vdW  Elec       q    Type
REMARK                         _______ _______ _______ _____ _____    ______ ____
ROOT
ATOM      1  C   UNL     1      -0.334  11.814  19.578  0.00  0.00    +0.000 C 
ATOM      2  C   UNL     1      -1.771  12.412  19.521  0.00  0.00    +0.000 C 
ATOM      3  C   UNL     1      -2.439  11.605  18.449  0.00  0.00    +0.000 A 
ATOM      4  C   UNL     1      -3.691  11.855  17.904  0.00  0.00    +0.000 A 
ATOM      5  C   UNL     1      -4.182  10.994  16.925  0.00  0.00    +0.000 A 
ATOM      6  C   UNL     1      -3.423   9.888  16.515  0.00  0.00    +0.000 A 
ATOM      7  C   UNL     1      -2.162   9.648  17.067  0.00  0.00    +0.000 A 
ATOM      8  C   UNL     1      -1.663  10.526  18.026  0.00  0.00    +0.000 A 
ATOM      9  C   UNL     1      -0.346  10.448  18.770  0.00  0.00    +0.000 C 
ATOM     10  C   UNL     1      -0.396   9.235  19.723  0.00  0.00    +0.000 C 
ATOM     11  C   UNL     1       0.946   9.017  20.417  0.00  0.00    +0.000 C 
ATOM     12  N   UNL     1       2.069   8.820  19.494  0.00  0.00    +0.000 NA
ATOM     13  C   UNL     1       2.166   9.992  18.592  0.00  0.00    +0.000 C 
ATOM     14  C   UNL     1       0.867  10.292  17.822  0.00  0.00    +0.000 C 
ENDROOT
BRANCH   2  15
ATOM     15  N   UNL     1      -2.489  12.297  20.775  0.00  0.00    +0.000 N 
ATOM     16  C   UNL     1      -3.134  13.365  21.359  0.00  0.00    +0.000 C 
ATOM     17  O   UNL     1      -3.061  14.500  20.904  0.00  0.00    +0.000 OA
ATOM     18  H   UNL     1      -2.573  11.387  21.208  0.00  0.00    +0.000 HD
BRANCH  16  19
ATOM     19  C   UNL     1      -3.925  13.038  22.546  0.00  0.00    +0.000 A 
ATOM     20  C   UNL     1      -3.452  12.623  23.778  0.00  0.00    +0.000 A 
ATOM     21  C   UNL     1      -4.494  12.427  24.730  0.00  0.00    +0.000 A 
ATOM     22  C   UNL     1      -5.735  12.695  24.196  0.00  0.00    +0.000 A 
ATOM     23  S   UNL     1      -5.640  13.165  22.559  0.00  0.00    +0.000 S 
ENDBRANCH  16  19
ENDBRANCH   2  15
BRANCH   1  25
ATOM     24  C   UNL     1       1.467  13.344  19.994  0.00  0.00    +0.000 C 
ATOM     25  O   UNL     1       0.637  12.720  19.018  0.00  0.00    +0.000 OA
ENDBRANCH   1  25
BRANCH  12  26
ATOM     26  C   UNL     1       2.025   7.579  18.698  0.00  0.00    +0.000 C 
BRANCH  26  27
ATOM     27  C   UNL     1       2.360   6.299  19.414  0.00  0.00    +0.000 A 
ATOM     28  C   UNL     1       1.880   5.791  20.613  0.00  0.00    +0.000 A 
ATOM     29  C   UNL     1       2.345   4.470  20.755  0.00  0.00    +0.000 A 
ATOM     30  C   UNL     1       3.151   4.213  19.673  0.00  0.00    +0.000 A 
ATOM     31  N   UNL     1       3.220   5.339  18.875  0.00  0.00    +0.000 N 
BRANCH  31  32
ATOM     32  C   UNL     1       4.039   5.433  17.717  0.00  0.00    +0.000 A 
ATOM     33  C   UNL     1       4.233   4.317  16.895  0.00  0.00    +0.000 A 
ATOM     34  C   UNL     1       5.063   4.426  15.781  0.00  0.00    +0.000 A 
ATOM     35  C   UNL     1       5.683   5.639  15.536  0.00  0.00    +0.000 A 
ATOM     36  N   UNL     1       5.524   6.731  16.313  0.00  0.00    +0.000 NA
ATOM     37  C   UNL     1       4.713   6.602  17.391  0.00  0.00    +0.000 A 
ENDBRANCH  31  32
ENDBRANCH  26  27
ENDBRANCH  12  26
TORSDOF 6
ENDMDL
MODEL 6
REMARK VINA RESULT:      -7.7      1.571      2.918
REMARK  Name = 
REMARK  7 active torsions:
REMARK  status: ('A' for Active; 'I' for Inactive)
REMARK    1  A    between atoms: C_1  and  O_2
REMARK    2  A    between atoms: O_2  and  C_3
REMARK    3  A    between atoms: C_4  and  N_5
REMARK    4  A    between atoms: C_6  and  C_8
REMARK    5  A    between atoms: N_22  and  C_23
REMARK    6  A    between atoms: C_23  and  C_24
REMARK    7  A    between atoms: N_28  and  C_29
REMARK                            x       y       z     vdW  Elec       q    Type
REMARK                         _______ _______ _______ _____ _____    ______ ____
ROOT
ATOM      1  C   UNL     1       0.031  11.853  19.456  0.00  0.00    +0.000 C 
ATOM      2  C   UNL     1      -1.352  12.560  19.571  0.00  0.00    +0.000 C 
ATOM      3  C   UNL     1      -2.244  11.717  18.710  0.00  0.00    +0.000 A 
ATOM      4  C   UNL     1      -3.551  12.019  18.352  0.00  0.00    +0.000 A 
ATOM      5  C   UNL     1      -4.256  11.117  17.559  0.00  0.00    +0.000 A 
ATOM      6  C   UNL     1      -3.653   9.920  17.147  0.00  0.00    +0.000 A 
ATOM      7  C   UNL     1      -2.336   9.627  17.510  0.00  0.00    +0.000 A 
ATOM      8  C   UNL     1      -1.624  10.544  18.279  0.00  0.00    +0.000 A 
ATOM      9  C   UNL     1      -0.208  10.425  18.805  0.00  0.00    +0.000 C 
ATOM     10  C   UNL     1      -0.176   9.311  19.873  0.00  0.00    +0.000 C 
ATOM     11  C   UNL     1       1.246   9.047  20.359  0.00  0.00    +0.000 C 
ATOM     12  N   UNL     1       2.181   8.675  19.291  0.00  0.00    +0.000 NA
ATOM     13  C   UNL     1       2.201   9.749  18.269  0.00  0.00    +0.000 C 
ATOM     14  C   UNL     1       0.813  10.085  17.693  0.00  0.00    +0.000 C 
ENDROOT
BRANCH   2  15
ATOM     15  N   UNL     1      -1.854  12.618  20.929  0.00  0.00    +0.000 N 
ATOM     16  C   UNL     1      -2.342  13.778  21.488  0.00  0.00    +0.000 C 
ATOM     17  O   UNL     1      -2.297  14.854  20.904  0.00  0.00    +0.000 OA
ATOM     18  H   UNL     1      -1.904  11.764  21.468  0.00  0.00    +0.000 HD
BRANCH  16  19
ATOM     19  C   UNL     1      -2.937  13.623  22.818  0.00  0.00    +0.000 A 
ATOM     20  C   UNL     1      -3.715  12.572  23.268  0.00  0.00    +0.000 A 
ATOM     21  C   UNL     1      -4.099  12.718  24.632  0.00  0.00    +0.000 A 
ATOM     22  C   UNL     1      -3.607  13.880  25.184  0.00  0.00    +0.000 A 
ATOM     23  S   UNL     1      -2.700  14.788  24.060  0.00  0.00    +0.000 S 
ENDBRANCH  16  19
ENDBRANCH   2  15
BRANCH   1  25
ATOM     24  C   UNL     1       0.733  14.027  18.726  0.00  0.00    +0.000 C 
ATOM     25  O   UNL     1       0.951  12.621  18.655  0.00  0.00    +0.000 OA
ENDBRANCH   1  25
BRANCH  12  26
ATOM     26  C   UNL     1       1.921   7.375  18.645  0.00  0.00    +0.000 C 
BRANCH  26  27
ATOM     27  C   UNL     1       3.120   6.589  18.191  0.00  0.00    +0.000 A 
ATOM     28  C   UNL     1       4.159   6.947  17.344  0.00  0.00    +0.000 A 
ATOM     29  C   UNL     1       5.142   5.941  17.393  0.00  0.00    +0.000 A 
ATOM     30  C   UNL     1       4.661   4.955  18.220  0.00  0.00    +0.000 A 
ATOM     31  N   UNL     1       3.402   5.306  18.668  0.00  0.00    +0.000 N 
BRANCH  31  32
ATOM     32  C   UNL     1       2.593   4.464  19.478  0.00  0.00    +0.000 A 
ATOM     33  C   UNL     1       2.864   4.322  20.843  0.00  0.00    +0.000 A 
ATOM     34  C   UNL     1       2.074   3.467  21.611  0.00  0.00    +0.000 A 
ATOM     35  C   UNL     1       1.053   2.773  20.985  0.00  0.00    +0.000 A 
ATOM     36  N   UNL     1       0.772   2.881  19.670  0.00  0.00    +0.000 NA
ATOM     37  C   UNL     1       1.553   3.716  18.943  0.00  0.00    +0.000 A 
ENDBRANCH  31  32
ENDBRANCH  26  27
ENDBRANCH  12  26
TORSDOF 6
ENDMDL
MODEL 7
REMARK VINA RESULT:      -7.7      1.182      1.282
REMARK  Name = 
REMARK  7 active torsions:
REMARK  status: ('A' for Active; 'I' for Inactive)
REMARK    1  A    between atoms: C_1  and  O_2
REMARK    2  A    between atoms: O_2  and  C_3
REMARK    3  A    between atoms: C_4  and  N_5
REMARK    4  A    between atoms: C_6  and  C_8
REMARK    5  A    between atoms: N_22  and  C_23
REMARK    6  A    between atoms: C_23  and  C_24
REMARK    7  A    between atoms: N_28  and  C_29
REMARK                            x       y       z     vdW  Elec       q    Type
REMARK                         _______ _______ _______ _____ _____    ______ ____
ROOT
ATOM      1  C   UNL     1       0.504  11.513  19.452  0.00  0.00    +0.000 C 
ATOM      2  C   UNL     1      -0.770  12.409  19.483  0.00  0.00    +0.000 C 
ATOM      3  C   UNL     1      -1.748  11.650  18.638  0.00  0.00    +0.000 A 
ATOM      4  C   UNL     1      -2.990  12.108  18.221  0.00  0.00    +0.000 A 
ATOM      5  C   UNL     1      -3.793  11.268  17.452  0.00  0.00    +0.000 A 
ATOM      6  C   UNL     1      -3.352   9.978  17.124  0.00  0.00    +0.000 A 
ATOM      7  C   UNL     1      -2.098   9.528  17.546  0.00  0.00    +0.000 A 
ATOM      8  C   UNL     1      -1.286  10.380  18.290  0.00  0.00    +0.000 A 
ATOM      9  C   UNL     1       0.085  10.097  18.869  0.00  0.00    +0.000 C 
ATOM     10  C   UNL     1      -0.067   9.052  19.994  0.00  0.00    +0.000 C 
ATOM     11  C   UNL     1       1.292   8.622  20.541  0.00  0.00    +0.000 C 
ATOM     12  N   UNL     1       2.194   8.065  19.527  0.00  0.00    +0.000 NA
ATOM     13  C   UNL     1       2.390   9.067  18.451  0.00  0.00    +0.000 C 
ATOM     14  C   UNL     1       1.078   9.557  17.812  0.00  0.00    +0.000 C 
ENDROOT
BRANCH   2  15
ATOM     15  N   UNL     1      -1.294  12.612  20.819  0.00  0.00    +0.000 N 
ATOM     16  C   UNL     1      -1.677  13.851  21.283  0.00  0.00    +0.000 C 
ATOM     17  O   UNL     1      -1.511  14.873  20.628  0.00  0.00    +0.000 OA
ATOM     18  H   UNL     1      -1.443  11.807  21.413  0.00  0.00    +0.000 HD
BRANCH  16  19
ATOM     19  C   UNL     1      -2.315  13.850  22.601  0.00  0.00    +0.000 A 
ATOM     20  C   UNL     1      -2.197  14.814  23.587  0.00  0.00    +0.000 A 
ATOM     21  C   UNL     1      -2.985  14.521  24.737  0.00  0.00    +0.000 A 
ATOM     22  C   UNL     1      -3.680  13.340  24.599  0.00  0.00    +0.000 A 
ATOM     23  S   UNL     1      -3.372  12.589  23.099  0.00  0.00    +0.000 S 
ENDBRANCH  16  19
ENDBRANCH   2  15
BRANCH   1  25
ATOM     24  C   UNL     1       2.286  13.113  19.318  0.00  0.00    +0.000 C 
ATOM     25  O   UNL     1       1.542  12.101  18.644  0.00  0.00    +0.000 OA
ENDBRANCH   1  25
BRANCH  12  26
ATOM     26  C   UNL     1       1.772   6.779  18.940  0.00  0.00    +0.000 C 
BRANCH  26  27
ATOM     27  C   UNL     1       2.163   5.532  19.684  0.00  0.00    +0.000 A 
ATOM     28  C   UNL     1       1.473   4.809  20.647  0.00  0.00    +0.000 A 
ATOM     29  C   UNL     1       2.169   3.610  20.889  0.00  0.00    +0.000 A 
ATOM     30  C   UNL     1       3.304   3.646  20.117  0.00  0.00    +0.000 A 
ATOM     31  N   UNL     1       3.347   4.839  19.421  0.00  0.00    +0.000 N 
BRANCH  31  32
ATOM     32  C   UNL     1       4.435   5.226  18.591  0.00  0.00    +0.000 A 
ATOM     33  C   UNL     1       4.243   5.427  17.220  0.00  0.00    +0.000 A 
ATOM     34  C   UNL     1       5.330   5.778  16.422  0.00  0.00    +0.000 A 
ATOM     35  C   UNL     1       6.573   5.900  17.019  0.00  0.00    +0.000 A 
ATOM     36  N   UNL     1       6.794   5.705  18.336  0.00  0.00    +0.000 NA
ATOM     37  C   UNL     1       5.722   5.364  19.092  0.00  0.00    +0.000 A 
ENDBRANCH  31  32
ENDBRANCH  26  27
ENDBRANCH  12  26
TORSDOF 6
ENDMDL
MODEL 8
REMARK VINA RESULT:      -7.4      1.848      2.173
REMARK  Name = 
REMARK  7 active torsions:
REMARK  status: ('A' for Active; 'I' for Inactive)
REMARK    1  A    between atoms: C_1  and  O_2
REMARK    2  A    between atoms: O_2  and  C_3
REMARK    3  A    between atoms: C_4  and  N_5
REMARK    4  A    between atoms: C_6  and  C_8
REMARK    5  A    between atoms: N_22  and  C_23
REMARK    6  A    between atoms: C_23  and  C_24
REMARK    7  A    between atoms: N_28  and  C_29
REMARK                            x       y       z     vdW  Elec       q    Type
REMARK                         _______ _______ _______ _____ _____    ______ ____
ROOT
ATOM      1  C   UNL     1      -0.305  11.791  19.420  0.00  0.00    +0.000 C 
ATOM      2  C   UNL     1      -1.739  12.379  19.267  0.00  0.00    +0.000 C 
ATOM      3  C   UNL     1      -2.350  11.526  18.196  0.00  0.00    +0.000 A 
ATOM      4  C   UNL     1      -3.574  11.747  17.580  0.00  0.00    +0.000 A 
ATOM      5  C   UNL     1      -4.012  10.846  16.613  0.00  0.00    +0.000 A 
ATOM      6  C   UNL     1      -3.231   9.728  16.286  0.00  0.00    +0.000 A 
ATOM      7  C   UNL     1      -1.999   9.517  16.910  0.00  0.00    +0.000 A 
ATOM      8  C   UNL     1      -1.551  10.435  17.856  0.00  0.00    +0.000 A 
ATOM      9  C   UNL     1      -0.272  10.393  18.668  0.00  0.00    +0.000 C 
ATOM     10  C   UNL     1      -0.366   9.219  19.666  0.00  0.00    +0.000 C 
ATOM     11  C   UNL     1       0.940   9.036  20.434  0.00  0.00    +0.000 C 
ATOM     12  N   UNL     1       2.108   8.808  19.577  0.00  0.00    +0.000 NA
ATOM     13  C   UNL     1       2.246   9.943  18.634  0.00  0.00    +0.000 C 
ATOM     14  C   UNL     1       0.987  10.205  17.789  0.00  0.00    +0.000 C 
ENDROOT
BRANCH   2  15
ATOM     15  N   UNL     1      -2.519  12.310  20.487  0.00  0.00    +0.000 N 
ATOM     16  C   UNL     1      -2.927  13.436  21.168  0.00  0.00    +0.000 C 
ATOM     17  O   UNL     1      -2.577  14.562  20.837  0.00  0.00    +0.000 OA
ATOM     18  H   UNL     1      -2.828  11.407  20.819  0.00  0.00    +0.000 HD
BRANCH  16  19
ATOM     19  C   UNL     1      -3.824  13.186  22.298  0.00  0.00    +0.000 A 
ATOM     20  C   UNL     1      -5.201  13.315  22.316  0.00  0.00    +0.000 A 
ATOM     21  C   UNL     1      -5.770  12.952  23.571  0.00  0.00    +0.000 A 
ATOM     22  C   UNL     1      -4.811  12.560  24.478  0.00  0.00    +0.000 A 
ATOM     23  S   UNL     1      -3.238  12.642  23.821  0.00  0.00    +0.000 S 
ENDBRANCH  16  19
ENDBRANCH   2  15
BRANCH   1  25
ATOM     24  C   UNL     1       0.291  14.046  18.861  0.00  0.00    +0.000 C 
ATOM     25  O   UNL     1       0.690  12.678  18.873  0.00  0.00    +0.000 OA
ENDBRANCH   1  25
BRANCH  12  26
ATOM     26  C   UNL     1       2.108   7.535  18.831  0.00  0.00    +0.000 C 
BRANCH  26  27
ATOM     27  C   UNL     1       2.353   6.281  19.624  0.00  0.00    +0.000 A 
ATOM     28  C   UNL     1       1.604   5.700  20.637  0.00  0.00    +0.000 A 
ATOM     29  C   UNL     1       2.142   4.431  20.919  0.00  0.00    +0.000 A 
ATOM     30  C   UNL     1       3.248   4.281  20.119  0.00  0.00    +0.000 A 
ATOM     31  N   UNL     1       3.427   5.426  19.365  0.00  0.00    +0.000 N 
BRANCH  31  32
ATOM     32  C   UNL     1       4.531   5.628  18.492  0.00  0.00    +0.000 A 
ATOM     33  C   UNL     1       5.841   5.500  18.966  0.00  0.00    +0.000 A 
ATOM     34  C   UNL     1       6.906   5.731  18.098  0.00  0.00    +0.000 A 
ATOM     35  C   UNL     1       6.627   6.098  16.793  0.00  0.00    +0.000 A 
ATOM     36  N   UNL     1       5.375   6.238  16.307  0.00  0.00    +0.000 NA
ATOM     37  C   UNL     1       4.355   6.009  17.169  0.00  0.00    +0.000 A 
ENDBRANCH  31  32
ENDBRANCH  26  27
ENDBRANCH  12  26
TORSDOF 6
ENDMDL
MODEL 9
REMARK VINA RESULT:      -7.3      4.046      9.751
REMARK  Name = 
REMARK  7 active torsions:
REMARK  status: ('A' for Active; 'I' for Inactive)
REMARK    1  A    between atoms: C_1  and  O_2
REMARK    2  A    between atoms: O_2  and  C_3
REMARK    3  A    between atoms: C_4  and  N_5
REMARK    4  A    between atoms: C_6  and  C_8
REMARK    5  A    between atoms: N_22  and  C_23
REMARK    6  A    between atoms: C_23  and  C_24
REMARK    7  A    between atoms: N_28  and  C_29
REMARK                            x       y       z     vdW  Elec       q    Type
REMARK                         _______ _______ _______ _____ _____    ______ ____
ROOT
ATOM      1  C   UNL     1       4.418   5.752  18.323  0.00  0.00    +0.000 C 
ATOM      2  C   UNL     1       4.734   4.338  17.753  0.00  0.00    +0.000 C 
ATOM      3  C   UNL     1       3.486   3.560  18.043  0.00  0.00    +0.000 A 
ATOM      4  C   UNL     1       3.322   2.192  17.872  0.00  0.00    +0.000 A 
ATOM      5  C   UNL     1       2.087   1.621  18.169  0.00  0.00    +0.000 A 
ATOM      6  C   UNL     1       1.029   2.425  18.617  0.00  0.00    +0.000 A 
ATOM      7  C   UNL     1       1.206   3.800  18.789  0.00  0.00    +0.000 A 
ATOM      8  C   UNL     1       2.450   4.363  18.517  0.00  0.00    +0.000 A 
ATOM      9  C   UNL     1       2.857   5.820  18.608  0.00  0.00    +0.000 C 
ATOM     10  C   UNL     1       2.120   6.602  17.500  0.00  0.00    +0.000 C 
ATOM     11  C   UNL     1       2.384   8.101  17.608  0.00  0.00    +0.000 C 
ATOM     12  N   UNL     1       2.003   8.682  18.900  0.00  0.00    +0.000 NA
ATOM     13  C   UNL     1       2.730   7.975  19.981  0.00  0.00    +0.000 C 
ATOM     14  C   UNL     1       2.517   6.450  19.979  0.00  0.00    +0.000 C 
ENDROOT
BRANCH   2  15
ATOM     15  N   UNL     1       5.018   4.343  16.331  0.00  0.00    +0.000 N 
ATOM     16  C   UNL     1       6.302   4.329  15.833  0.00  0.00    +0.000 C 
ATOM     17  O   UNL     1       7.285   4.405  16.560  0.00  0.00    +0.000 OA
ATOM     18  H   UNL     1       4.247   4.295  15.679  0.00  0.00    +0.000 HD
BRANCH  16  19
ATOM     19  C   UNL     1       6.402   4.195  14.378  0.00  0.00    +0.000 A 
ATOM     20  C   UNL     1       5.550   3.493  13.544  0.00  0.00    +0.000 A 
ATOM     21  C   UNL     1       5.914   3.602  12.171  0.00  0.00    +0.000 A 
ATOM     22  C   UNL     1       7.036   4.382  11.995  0.00  0.00    +0.000 A 
ATOM     23  S   UNL     1       7.648   4.965  13.478  0.00  0.00    +0.000 S 
ENDBRANCH  16  19
ENDBRANCH   2  15
BRANCH   1  25
ATOM     24  C   UNL     1       6.471   5.456  19.526  0.00  0.00    +0.000 C 
ATOM     25  O   UNL     1       5.160   6.012  19.530  0.00  0.00    +0.000 OA
ENDBRANCH   1  25
BRANCH  12  26
ATOM     26  C   UNL     1       0.557   8.688  19.190  0.00  0.00    +0.000 C 
BRANCH  26  27
ATOM     27  C   UNL     1       0.138   9.180  20.549  0.00  0.00    +0.000 A 
ATOM     28  C   UNL     1      -0.231   8.473  21.684  0.00  0.00    +0.000 A 
ATOM     29  C   UNL     1      -0.337   9.376  22.758  0.00  0.00    +0.000 A 
ATOM     30  C   UNL     1      -0.092  10.628  22.250  0.00  0.00    +0.000 A 
ATOM     31  N   UNL     1       0.140  10.535  20.891  0.00  0.00    +0.000 N 
BRANCH  31  32
ATOM     32  C   UNL     1       0.346  11.662  20.049  0.00  0.00    +0.000 A 
ATOM     33  C   UNL     1       1.553  12.367  20.093  0.00  0.00    +0.000 A 
ATOM     34  C   UNL     1       1.721  13.486  19.280  0.00  0.00    +0.000 A 
ATOM     35  C   UNL     1       0.671  13.871  18.463  0.00  0.00    +0.000 A 
ATOM     36  N   UNL     1      -0.508  13.218  18.404  0.00  0.00    +0.000 NA
ATOM     37  C   UNL     1      -0.649  12.133  19.204  0.00  0.00    +0.000 A 
ENDBRANCH  31  32
ENDBRANCH  26  27
ENDBRANCH  12  26
TORSDOF 6
ENDMDL
