MODEL 1
REMARK VINA RESULT:      -7.5      0.000      0.000
REMARK  Name = 
REMARK  5 active torsions:
REMARK  status: ('A' for Active; 'I' for Inactive)
REMARK    1  A    between atoms: C_2  and  C_3
REMARK    2  A    between atoms: C_3  and  C_4
REMARK    3  A    between atoms: C_12  and  C_13
REMARK    4  A    between atoms: N_27  and  C_28
REMARK    5  A    between atoms: C_28  and  C_29
REMARK                            x       y       z     vdW  Elec       q    Type
REMARK                         _______ _______ _______ _____ _____    ______ ____
ROOT
ATOM      1  C   UNL     1      -3.426  13.958  24.633  0.00  0.00    +0.000 C 
ATOM      2  C   UNL     1      -4.474  15.038  24.256  0.00  0.00    +0.000 C 
ATOM      3  C   UNL     1      -4.132  16.393  24.880  0.00  0.00    +0.000 C 
ATOM      4  C   UNL     1      -2.726  16.834  24.486  0.00  0.00    +0.000 C 
ATOM      5  C   UNL     1      -1.710  15.750  24.834  0.00  0.00    +0.000 C 
ATOM      6  N   UNL     1      -2.100  14.481  24.202  0.00  0.00    +0.000 N 
ATOM      7  C   UNL     1      -1.318  13.958  23.187  0.00  0.00    +0.000 A 
ATOM      8  C   UNL     1      -0.679  14.792  22.289  0.00  0.00    +0.000 A 
ATOM      9  C   UNL     1       0.163  14.242  21.346  0.00  0.00    +0.000 A 
ATOM     10  N   UNL     1       0.406  12.920  21.305  0.00  0.00    +0.000 NA
ATOM     11  C   UNL     1      -0.264  12.159  22.189  0.00  0.00    +0.000 A 
ATOM     12  N   UNL     1      -0.007  10.762  22.160  0.00  0.00    +0.000 N 
ATOM     13  C   UNL     1       0.926  10.103  21.389  0.00  0.00    +0.000 A 
ATOM     14  C   UNL     1       0.821   8.776  21.729  0.00  0.00    +0.000 A 
ATOM     15  N   UNL     1      -0.160   8.592  22.668  0.00  0.00    +0.000 NA
ATOM     16  C   UNL     1      -0.634   9.797  22.909  0.00  0.00    +0.000 A 
ATOM     17  N   UNL     1      -1.141  12.629  23.104  0.00  0.00    +0.000 NA
ENDROOT
BRANCH   9  18
ATOM     18  C   UNL     1       0.851  15.060  20.324  0.00  0.00    +0.000 A 
ATOM     19  C   UNL     1       0.666  16.451  20.269  0.00  0.00    +0.000 A 
ATOM     20  C   UNL     1       1.306  17.226  19.291  0.00  0.00    +0.000 A 
ATOM     21  C   UNL     1       2.156  16.625  18.366  0.00  0.00    +0.000 A 
ATOM     22  C   UNL     1       2.362  15.253  18.408  0.00  0.00    +0.000 A 
ATOM     23  C   UNL     1       1.720  14.479  19.379  0.00  0.00    +0.000 A 
ENDBRANCH   9  18
BRANCH   1  24
ATOM     24  C   UNL     1      -3.814  12.587  24.074  0.00  0.00    +0.000 C 
BRANCH  24  26
ATOM     25  O   UNL     1      -6.019  12.543  23.064  0.00  0.00    +0.000 OA
ATOM     26  C   UNL     1      -4.808  12.664  22.929  0.00  0.00    +0.000 C 
ATOM     27  N   UNL     1      -4.198  12.853  21.709  0.00  0.00    +0.000 N 
ATOM     28  H   UNL     1      -3.188  12.896  21.662  0.00  0.00    +0.000 HD
BRANCH  27  29
ATOM     29  C   UNL     1      -4.936  12.912  20.463  0.00  0.00    +0.000 C 
BRANCH  29  30
ATOM     30  C   UNL     1      -4.043  12.455  19.339  0.00  0.00    +0.000 A 
ATOM     31  C   UNL     1      -2.653  12.274  19.549  0.00  0.00    +0.000 A 
ATOM     32  C   UNL     1      -1.859  11.639  18.586  0.00  0.00    +0.000 A 
ATOM     33  C   UNL     1      -2.490  11.172  17.455  0.00  0.00    +0.000 A 
ATOM     34  C   UNL     1      -3.830  11.393  17.225  0.00  0.00    +0.000 A 
ATOM     35  C   UNL     1      -4.627  12.050  18.131  0.00  0.00    +0.000 A 
ATOM     36  O   UNL     1      -4.260  10.786  16.083  0.00  0.00    +0.000 OA
ATOM     37  C   UNL     1      -3.146   9.901  15.864  0.00  0.00    +0.000 C 
ATOM     38  O   UNL     1      -1.938  10.378  16.496  0.00  0.00    +0.000 OA
ENDBRANCH  29  30
ENDBRANCH  27  29
ENDBRANCH  24  26
ENDBRANCH   1  24
TORSDOF 5
ENDMDL
MODEL 2
REMARK VINA RESULT:      -7.3      2.053      4.680
REMARK  Name = 
REMARK  5 active torsions:
REMARK  status: ('A' for Active; 'I' for Inactive)
REMARK    1  A    between atoms: C_2  and  C_3
REMARK    2  A    between atoms: C_3  and  C_4
REMARK    3  A    between atoms: C_12  and  C_13
REMARK    4  A    between atoms: N_27  and  C_28
REMARK    5  A    between atoms: C_28  and  C_29
REMARK                            x       y       z     vdW  Elec       q    Type
REMARK                         _______ _______ _______ _____ _____    ______ ____
ROOT
ATOM      1  C   UNL     1      -1.109  11.077  22.204  0.00  0.00    +0.000 C 
ATOM      2  C   UNL     1      -0.281  10.213  23.191  0.00  0.00    +0.000 C 
ATOM      3  C   UNL     1       0.312   8.983  22.499  0.00  0.00    +0.000 C 
ATOM      4  C   UNL     1       1.150   9.391  21.292  0.00  0.00    +0.000 C 
ATOM      5  C   UNL     1       0.334  10.265  20.345  0.00  0.00    +0.000 C 
ATOM      6  N   UNL     1      -0.202  11.424  21.076  0.00  0.00    +0.000 N 
ATOM      7  C   UNL     1       0.268  12.691  20.778  0.00  0.00    +0.000 A 
ATOM      8  C   UNL     1       1.589  12.888  20.420  0.00  0.00    +0.000 A 
ATOM      9  C   UNL     1       2.000  14.149  20.044  0.00  0.00    +0.000 A 
ATOM     10  N   UNL     1       1.139  15.181  19.981  0.00  0.00    +0.000 NA
ATOM     11  C   UNL     1      -0.126  14.931  20.364  0.00  0.00    +0.000 A 
ATOM     12  N   UNL     1      -1.044  16.012  20.291  0.00  0.00    +0.000 N 
ATOM     13  C   UNL     1      -0.810  17.271  19.780  0.00  0.00    +0.000 A 
ATOM     14  C   UNL     1      -1.999  17.949  19.901  0.00  0.00    +0.000 A 
ATOM     15  N   UNL     1      -2.951  17.159  20.488  0.00  0.00    +0.000 NA
ATOM     16  C   UNL     1      -2.353  16.006  20.707  0.00  0.00    +0.000 A 
ATOM     17  N   UNL     1      -0.581  13.732  20.792  0.00  0.00    +0.000 NA
ENDROOT
BRANCH   9  18
ATOM     18  C   UNL     1       3.403  14.451  19.688  0.00  0.00    +0.000 A 
ATOM     19  C   UNL     1       4.343  14.783  20.677  0.00  0.00    +0.000 A 
ATOM     20  C   UNL     1       5.670  15.085  20.339  0.00  0.00    +0.000 A 
ATOM     21  C   UNL     1       6.083  15.038  19.010  0.00  0.00    +0.000 A 
ATOM     22  C   UNL     1       5.174  14.701  18.017  0.00  0.00    +0.000 A 
ATOM     23  C   UNL     1       3.849  14.406  18.353  0.00  0.00    +0.000 A 
ENDBRANCH   9  18
BRANCH   1  24
ATOM     24  C   UNL     1      -1.766  12.262  22.918  0.00  0.00    +0.000 C 
BRANCH  24  26
ATOM     25  O   UNL     1      -4.160  12.305  23.306  0.00  0.00    +0.000 OA
ATOM     26  C   UNL     1      -3.221  12.462  22.535  0.00  0.00    +0.000 C 
ATOM     27  N   UNL     1      -3.379  12.808  21.212  0.00  0.00    +0.000 N 
ATOM     28  H   UNL     1      -2.563  12.874  20.617  0.00  0.00    +0.000 HD
BRANCH  27  29
ATOM     29  C   UNL     1      -4.679  13.006  20.602  0.00  0.00    +0.000 C 
BRANCH  29  30
ATOM     30  C   UNL     1      -4.710  12.302  19.271  0.00  0.00    +0.000 A 
ATOM     31  C   UNL     1      -5.763  12.540  18.353  0.00  0.00    +0.000 A 
ATOM     32  C   UNL     1      -5.686  12.071  17.035  0.00  0.00    +0.000 A 
ATOM     33  C   UNL     1      -4.537  11.409  16.667  0.00  0.00    +0.000 A 
ATOM     34  C   UNL     1      -3.535  11.130  17.571  0.00  0.00    +0.000 A 
ATOM     35  C   UNL     1      -3.600  11.540  18.881  0.00  0.00    +0.000 A 
ATOM     36  O   UNL     1      -2.464  10.531  16.980  0.00  0.00    +0.000 OA
ATOM     37  C   UNL     1      -2.780  10.810  15.603  0.00  0.00    +0.000 C 
ATOM     38  O   UNL     1      -4.191  11.038  15.402  0.00  0.00    +0.000 OA
ENDBRANCH  29  30
ENDBRANCH  27  29
ENDBRANCH  24  26
ENDBRANCH   1  24
TORSDOF 5
ENDMDL
MODEL 3
REMARK VINA RESULT:      -7.2      3.304      6.420
REMARK  Name = 
REMARK  5 active torsions:
REMARK  status: ('A' for Active; 'I' for Inactive)
REMARK    1  A    between atoms: C_2  and  C_3
REMARK    2  A    between atoms: C_3  and  C_4
REMARK    3  A    between atoms: C_12  and  C_13
REMARK    4  A    between atoms: N_27  and  C_28
REMARK    5  A    between atoms: C_28  and  C_29
REMARK                            x       y       z     vdW  Elec       q    Type
REMARK                         _______ _______ _______ _____ _____    ______ ____
ROOT
ATOM      1  C   UNL     1      -1.386  10.869  19.965  0.00  0.00    +0.000 C 
ATOM      2  C   UNL     1      -0.597  10.077  18.890  0.00  0.00    +0.000 C 
ATOM      3  C   UNL     1      -1.386   9.967  17.583  0.00  0.00    +0.000 C 
ATOM      4  C   UNL     1      -1.778  11.347  17.066  0.00  0.00    +0.000 C 
ATOM      5  C   UNL     1      -2.526  12.127  18.143  0.00  0.00    +0.000 C 
ATOM      6  N   UNL     1      -1.711  12.194  19.366  0.00  0.00    +0.000 N 
ATOM      7  C   UNL     1      -1.198  13.412  19.775  0.00  0.00    +0.000 A 
ATOM      8  C   UNL     1      -0.794  14.354  18.848  0.00  0.00    +0.000 A 
ATOM      9  C   UNL     1      -0.371  15.590  19.289  0.00  0.00    +0.000 A 
ATOM     10  N   UNL     1      -0.381  15.913  20.595  0.00  0.00    +0.000 NA
ATOM     11  C   UNL     1      -0.763  14.946  21.449  0.00  0.00    +0.000 A 
ATOM     12  N   UNL     1      -0.786  15.280  22.829  0.00  0.00    +0.000 N 
ATOM     13  C   UNL     1      -0.551  16.517  23.390  0.00  0.00    +0.000 A 
ATOM     14  C   UNL     1      -0.714  16.350  24.744  0.00  0.00    +0.000 A 
ATOM     15  N   UNL     1      -1.021  15.047  25.039  0.00  0.00    +0.000 NA
ATOM     16  C   UNL     1      -1.060  14.433  23.874  0.00  0.00    +0.000 A 
ATOM     17  N   UNL     1      -1.138  13.699  21.086  0.00  0.00    +0.000 NA
ENDROOT
BRANCH   9  18
ATOM     18  C   UNL     1       0.118  16.636  18.365  0.00  0.00    +0.000 A 
ATOM     19  C   UNL     1      -0.772  17.543  17.766  0.00  0.00    +0.000 A 
ATOM     20  C   UNL     1      -0.310  18.525  16.878  0.00  0.00    +0.000 A 
ATOM     21  C   UNL     1       1.049  18.631  16.593  0.00  0.00    +0.000 A 
ATOM     22  C   UNL     1       1.947  17.753  17.183  0.00  0.00    +0.000 A 
ATOM     23  C   UNL     1       1.488  16.769  18.063  0.00  0.00    +0.000 A 
ENDBRANCH   9  18
BRANCH   1  24
ATOM     24  C   UNL     1      -0.629  10.909  21.295  0.00  0.00    +0.000 C 
BRANCH  24  26
ATOM     25  O   UNL     1      -0.747   8.763  22.420  0.00  0.00    +0.000 OA
ATOM     26  C   UNL     1      -0.110   9.551  21.731  0.00  0.00    +0.000 C 
ATOM     27  N   UNL     1       1.174   9.309  21.297  0.00  0.00    +0.000 N 
ATOM     28  H   UNL     1       1.661  10.023  20.772  0.00  0.00    +0.000 HD
BRANCH  27  29
ATOM     29  C   UNL     1       1.900   8.099  21.629  0.00  0.00    +0.000 C 
BRANCH  29  30
ATOM     30  C   UNL     1       1.915   7.190  20.428  0.00  0.00    +0.000 A 
ATOM     31  C   UNL     1       2.250   7.691  19.146  0.00  0.00    +0.000 A 
ATOM     32  C   UNL     1       2.487   6.821  18.074  0.00  0.00    +0.000 A 
ATOM     33  C   UNL     1       2.417   5.470  18.330  0.00  0.00    +0.000 A 
ATOM     34  C   UNL     1       2.040   4.981  19.562  0.00  0.00    +0.000 A 
ATOM     35  C   UNL     1       1.760   5.810  20.622  0.00  0.00    +0.000 A 
ATOM     36  O   UNL     1       2.105   3.621  19.614  0.00  0.00    +0.000 OA
ATOM     37  C   UNL     1       2.891   3.386  18.431  0.00  0.00    +0.000 C 
ATOM     38  O   UNL     1       2.786   4.470  17.482  0.00  0.00    +0.000 OA
ENDBRANCH  29  30
ENDBRANCH  27  29
ENDBRANCH  24  26
ENDBRANCH   1  24
TORSDOF 5
ENDMDL
MODEL 4
REMARK VINA RESULT:      -7.1      3.948      7.736
REMARK  Name = 
REMARK  5 active torsions:
REMARK  status: ('A' for Active; 'I' for Inactive)
REMARK    1  A    between atoms: C_2  and  C_3
REMARK    2  A    between atoms: C_3  and  C_4
REMARK    3  A    between atoms: C_12  and  C_13
REMARK    4  A    between atoms: N_27  and  C_28
REMARK    5  A    between atoms: C_28  and  C_29
REMARK                            x       y       z     vdW  Elec       q    Type
REMARK                         _______ _______ _______ _____ _____    ______ ____
ROOT
ATOM      1  C   UNL     1       0.920  12.566  19.419  0.00  0.00    +0.000 C 
ATOM      2  C   UNL     1       1.495  12.381  20.848  0.00  0.00    +0.000 C 
ATOM      3  C   UNL     1       1.624  13.720  21.578  0.00  0.00    +0.000 C 
ATOM      4  C   UNL     1       0.285  14.449  21.618  0.00  0.00    +0.000 C 
ATOM      5  C   UNL     1      -0.285  14.596  20.210  0.00  0.00    +0.000 C 
ATOM      6  N   UNL     1      -0.381  13.275  19.571  0.00  0.00    +0.000 N 
ATOM      7  C   UNL     1      -1.628  12.739  19.305  0.00  0.00    +0.000 A 
ATOM      8  C   UNL     1      -2.690  12.964  20.160  0.00  0.00    +0.000 A 
ATOM      9  C   UNL     1      -3.939  12.489  19.818  0.00  0.00    +0.000 A 
ATOM     10  N   UNL     1      -4.154  11.849  18.655  0.00  0.00    +0.000 NA
ATOM     11  C   UNL     1      -3.077  11.640  17.877  0.00  0.00    +0.000 A 
ATOM     12  N   UNL     1      -3.295  10.973  16.642  0.00  0.00    +0.000 N 
ATOM     13  C   UNL     1      -4.507  10.596  16.102  0.00  0.00    +0.000 A 
ATOM     14  C   UNL     1      -4.211  10.016  14.892  0.00  0.00    +0.000 A 
ATOM     15  N   UNL     1      -2.858  10.004  14.677  0.00  0.00    +0.000 NA
ATOM     16  C   UNL     1      -2.337  10.586  15.737  0.00  0.00    +0.000 A 
ATOM     17  N   UNL     1      -1.819  12.033  18.178  0.00  0.00    +0.000 NA
ENDROOT
BRANCH   9  18
ATOM     18  C   UNL     1      -5.117  12.650  20.698  0.00  0.00    +0.000 A 
ATOM     19  C   UNL     1      -6.418  12.456  20.205  0.00  0.00    +0.000 A 
ATOM     20  C   UNL     1      -7.535  12.623  21.036  0.00  0.00    +0.000 A 
ATOM     21  C   UNL     1      -7.369  12.965  22.375  0.00  0.00    +0.000 A 
ATOM     22  C   UNL     1      -6.092  13.151  22.886  0.00  0.00    +0.000 A 
ATOM     23  C   UNL     1      -4.977  12.991  22.058  0.00  0.00    +0.000 A 
ENDBRANCH   9  18
BRANCH   1  24
ATOM     24  C   UNL     1       0.867  11.236  18.664  0.00  0.00    +0.000 C 
BRANCH  24  26
ATOM     25  O   UNL     1      -0.360   9.903  20.277  0.00  0.00    +0.000 OA
ATOM     26  C   UNL     1       0.630  10.040  19.569  0.00  0.00    +0.000 C 
ATOM     27  N   UNL     1       1.667   9.135  19.536  0.00  0.00    +0.000 N 
ATOM     28  H   UNL     1       2.478   9.333  18.965  0.00  0.00    +0.000 HD
BRANCH  27  29
ATOM     29  C   UNL     1       1.690   7.937  20.351  0.00  0.00    +0.000 C 
BRANCH  29  30
ATOM     30  C   UNL     1       2.295   6.811  19.554  0.00  0.00    +0.000 A 
ATOM     31  C   UNL     1       2.978   7.070  18.340  0.00  0.00    +0.000 A 
ATOM     32  C   UNL     1       3.733   6.070  17.714  0.00  0.00    +0.000 A 
ATOM     33  C   UNL     1       3.809   4.848  18.344  0.00  0.00    +0.000 A 
ATOM     34  C   UNL     1       3.103   4.577  19.496  0.00  0.00    +0.000 A 
ATOM     35  C   UNL     1       2.320   5.524  20.111  0.00  0.00    +0.000 A 
ATOM     36  O   UNL     1       3.378   3.336  19.984  0.00  0.00    +0.000 OA
ATOM     37  C   UNL     1       4.566   3.051  19.223  0.00  0.00    +0.000 C 
ATOM     38  O   UNL     1       4.626   3.815  17.999  0.00  0.00    +0.000 OA
ENDBRANCH  29  30
ENDBRANCH  27  29
ENDBRANCH  24  26
ENDBRANCH   1  24
TORSDOF 5
ENDMDL
MODEL 5
REMARK VINA RESULT:      -7.0      3.616      7.583
REMARK  Name = 
REMARK  5 active torsions:
REMARK  status: ('A' for Active; 'I' for Inactive)
REMARK    1  A    between atoms: C_2  and  C_3
REMARK    2  A    between atoms: C_3  and  C_4
REMARK    3  A    between atoms: C_12  and  C_13
REMARK    4  A    between atoms: N_27  and  C_28
REMARK    5  A    between atoms: C_28  and  C_29
REMARK                            x       y       z     vdW  Elec       q    Type
REMARK                         _______ _______ _______ _____ _____    ______ ____
ROOT
ATOM      1  C   UNL     1       0.564  10.355  20.641  0.00  0.00    +0.000 C 
ATOM      2  C   UNL     1      -0.179   8.996  20.554  0.00  0.00    +0.000 C 
ATOM      3  C   UNL     1      -0.285   8.326  21.926  0.00  0.00    +0.000 C 
ATOM      4  C   UNL     1      -0.957   9.253  22.933  0.00  0.00    +0.000 C 
ATOM      5  C   UNL     1      -0.235  10.596  22.987  0.00  0.00    +0.000 C 
ATOM      6  N   UNL     1      -0.172  11.181  21.639  0.00  0.00    +0.000 N 
ATOM      7  C   UNL     1      -0.892  12.328  21.361  0.00  0.00    +0.000 A 
ATOM      8  C   UNL     1      -2.126  12.546  21.947  0.00  0.00    +0.000 A 
ATOM      9  C   UNL     1      -2.775  13.740  21.718  0.00  0.00    +0.000 A 
ATOM     10  N   UNL     1      -2.220  14.711  20.971  0.00  0.00    +0.000 NA
ATOM     11  C   UNL     1      -1.031  14.430  20.409  0.00  0.00    +0.000 A 
ATOM     12  N   UNL     1      -0.432  15.454  19.627  0.00  0.00    +0.000 N 
ATOM     13  C   UNL     1      -0.887  16.743  19.453  0.00  0.00    +0.000 A 
ATOM     14  C   UNL     1       0.036  17.359  18.642  0.00  0.00    +0.000 A 
ATOM     15  N   UNL     1       1.034  16.487  18.294  0.00  0.00    +0.000 NA
ATOM     16  C   UNL     1       0.730  15.357  18.900  0.00  0.00    +0.000 A 
ATOM     17  N   UNL     1      -0.366  13.262  20.552  0.00  0.00    +0.000 NA
ENDROOT
BRANCH   9  18
ATOM     18  C   UNL     1      -4.115  14.032  22.272  0.00  0.00    +0.000 A 
ATOM     19  C   UNL     1      -4.685  15.310  22.146  0.00  0.00    +0.000 A 
ATOM     20  C   UNL     1      -5.949  15.591  22.684  0.00  0.00    +0.000 A 
ATOM     21  C   UNL     1      -6.671  14.596  23.337  0.00  0.00    +0.000 A 
ATOM     22  C   UNL     1      -6.132  13.323  23.464  0.00  0.00    +0.000 A 
ATOM     23  C   UNL     1      -4.869  13.043  22.933  0.00  0.00    +0.000 A 
ENDBRANCH   9  18
BRANCH   1  24
ATOM     24  C   UNL     1       0.739  10.984  19.257  0.00  0.00    +0.000 C 
BRANCH  24  26
ATOM     25  O   UNL     1       2.323  10.716  17.438  0.00  0.00    +0.000 OA
ATOM     26  C   UNL     1       1.696  10.215  18.364  0.00  0.00    +0.000 C 
ATOM     27  N   UNL     1       1.761   8.877  18.683  0.00  0.00    +0.000 N 
ATOM     28  H   UNL     1       1.179   8.518  19.429  0.00  0.00    +0.000 HD
BRANCH  27  29
ATOM     29  C   UNL     1       2.570   7.931  17.942  0.00  0.00    +0.000 C 
BRANCH  29  30
ATOM     30  C   UNL     1       2.456   6.574  18.586  0.00  0.00    +0.000 A 
ATOM     31  C   UNL     1       2.318   6.451  19.991  0.00  0.00    +0.000 A 
ATOM     32  C   UNL     1       1.986   5.221  20.574  0.00  0.00    +0.000 A 
ATOM     33  C   UNL     1       1.768   4.159  19.726  0.00  0.00    +0.000 A 
ATOM     34  C   UNL     1       1.953   4.263  18.365  0.00  0.00    +0.000 A 
ATOM     35  C   UNL     1       2.319   5.445  17.767  0.00  0.00    +0.000 A 
ATOM     36  O   UNL     1       1.615   3.115  17.713  0.00  0.00    +0.000 OA
ATOM     37  C   UNL     1       0.881   2.464  18.767  0.00  0.00    +0.000 C 
ATOM     38  O   UNL     1       1.266   2.941  20.075  0.00  0.00    +0.000 OA
ENDBRANCH  29  30
ENDBRANCH  27  29
ENDBRANCH  24  26
ENDBRANCH   1  24
TORSDOF 5
ENDMDL
MODEL 6
REMARK VINA RESULT:      -7.0      3.513      7.249
REMARK  Name = 
REMARK  5 active torsions:
REMARK  status: ('A' for Active; 'I' for Inactive)
REMARK    1  A    between atoms: C_2  and  C_3
REMARK    2  A    between atoms: C_3  and  C_4
REMARK    3  A    between atoms: C_12  and  C_13
REMARK    4  A    between atoms: N_27  and  C_28
REMARK    5  A    between atoms: C_28  and  C_29
REMARK                            x       y       z     vdW  Elec       q    Type
REMARK                         _______ _______ _______ _____ _____    ______ ____
ROOT
ATOM      1  C   UNL     1       0.292  12.450  19.708  0.00  0.00    +0.000 C 
ATOM      2  C   UNL     1       1.412  12.391  20.781  0.00  0.00    +0.000 C 
ATOM      3  C   UNL     1       2.245  13.675  20.792  0.00  0.00    +0.000 C 
ATOM      4  C   UNL     1       1.356  14.898  20.995  0.00  0.00    +0.000 C 
ATOM      5  C   UNL     1       0.241  14.926  19.954  0.00  0.00    +0.000 C 
ATOM      6  N   UNL     1      -0.516  13.666  20.000  0.00  0.00    +0.000 N 
ATOM      7  C   UNL     1      -1.828  13.677  20.439  0.00  0.00    +0.000 A 
ATOM      8  C   UNL     1      -2.230  14.544  21.438  0.00  0.00    +0.000 A 
ATOM      9  C   UNL     1      -3.564  14.590  21.788  0.00  0.00    +0.000 A 
ATOM     10  N   UNL     1      -4.484  13.842  21.154  0.00  0.00    +0.000 NA
ATOM     11  C   UNL     1      -4.027  13.002  20.208  0.00  0.00    +0.000 A 
ATOM     12  N   UNL     1      -4.993  12.215  19.526  0.00  0.00    +0.000 N 
ATOM     13  C   UNL     1      -6.363  12.282  19.656  0.00  0.00    +0.000 A 
ATOM     14  C   UNL     1      -6.867  11.352  18.778  0.00  0.00    +0.000 A 
ATOM     15  N   UNL     1      -5.854  10.701  18.126  0.00  0.00    +0.000 NA
ATOM     16  C   UNL     1      -4.745  11.241  18.590  0.00  0.00    +0.000 A 
ATOM     17  N   UNL     1      -2.729  12.871  19.854  0.00  0.00    +0.000 NA
ENDROOT
BRANCH   9  18
ATOM     18  C   UNL     1      -4.068  15.458  22.874  0.00  0.00    +0.000 A 
ATOM     19  C   UNL     1      -5.292  16.135  22.748  0.00  0.00    +0.000 A 
ATOM     20  C   UNL     1      -5.763  16.969  23.772  0.00  0.00    +0.000 A 
ATOM     21  C   UNL     1      -5.029  17.123  24.945  0.00  0.00    +0.000 A 
ATOM     22  C   UNL     1      -3.822  16.454  25.096  0.00  0.00    +0.000 A 
ATOM     23  C   UNL     1      -3.348  15.627  24.073  0.00  0.00    +0.000 A 
ENDBRANCH   9  18
BRANCH   1  24
ATOM     24  C   UNL     1      -0.487  11.133  19.645  0.00  0.00    +0.000 C 
BRANCH  24  26
ATOM     25  O   UNL     1      -0.842   9.897  17.589  0.00  0.00    +0.000 OA
ATOM     26  C   UNL     1      -0.080  10.249  18.481  0.00  0.00    +0.000 C 
ATOM     27  N   UNL     1       1.237   9.854  18.549  0.00  0.00    +0.000 N 
ATOM     28  H   UNL     1       1.799  10.142  19.340  0.00  0.00    +0.000 HD
BRANCH  27  29
ATOM     29  C   UNL     1       1.843   8.968  17.575  0.00  0.00    +0.000 C 
BRANCH  29  30
ATOM     30  C   UNL     1       2.550   7.852  18.298  0.00  0.00    +0.000 A 
ATOM     31  C   UNL     1       2.056   7.362  19.532  0.00  0.00    +0.000 A 
ATOM     32  C   UNL     1       2.567   6.186  20.095  0.00  0.00    +0.000 A 
ATOM     33  C   UNL     1       3.537   5.516  19.383  0.00  0.00    +0.000 A 
ATOM     34  C   UNL     1       4.057   6.017  18.210  0.00  0.00    +0.000 A 
ATOM     35  C   UNL     1       3.605   7.190  17.654  0.00  0.00    +0.000 A 
ATOM     36  O   UNL     1       4.951   5.161  17.640  0.00  0.00    +0.000 OA
ATOM     37  C   UNL     1       4.636   3.972  18.389  0.00  0.00    +0.000 C 
ATOM     38  O   UNL     1       4.028   4.276  19.663  0.00  0.00    +0.000 OA
ENDBRANCH  29  30
ENDBRANCH  27  29
ENDBRANCH  24  26
ENDBRANCH   1  24
TORSDOF 5
ENDMDL
MODEL 7
REMARK VINA RESULT:      -7.0      3.515      7.233
REMARK  Name = 
REMARK  5 active torsions:
REMARK  status: ('A' for Active; 'I' for Inactive)
REMARK    1  A    between atoms: C_2  and  C_3
REMARK    2  A    between atoms: C_3  and  C_4
REMARK    3  A    between atoms: C_12  and  C_13
REMARK    4  A    between atoms: N_27  and  C_28
REMARK    5  A    between atoms: C_28  and  C_29
REMARK                            x       y       z     vdW  Elec       q    Type
REMARK                         _______ _______ _______ _____ _____    ______ ____
ROOT
ATOM      1  C   UNL     1       0.301  12.345  19.051  0.00  0.00    +0.000 C 
ATOM      2  C   UNL     1       1.557  12.251  19.956  0.00  0.00    +0.000 C 
ATOM      3  C   UNL     1       2.396  13.530  19.885  0.00  0.00    +0.000 C 
ATOM      4  C   UNL     1       1.555  14.752  20.242  0.00  0.00    +0.000 C 
ATOM      5  C   UNL     1       0.307  14.815  19.366  0.00  0.00    +0.000 C 
ATOM      6  N   UNL     1      -0.447  13.558  19.484  0.00  0.00    +0.000 N 
ATOM      7  C   UNL     1      -1.686  13.565  20.100  0.00  0.00    +0.000 A 
ATOM      8  C   UNL     1      -1.938  14.406  21.167  0.00  0.00    +0.000 A 
ATOM      9  C   UNL     1      -3.210  14.451  21.700  0.00  0.00    +0.000 A 
ATOM     10  N   UNL     1      -4.216  13.726  21.180  0.00  0.00    +0.000 NA
ATOM     11  C   UNL     1      -3.902  12.909  20.158  0.00  0.00    +0.000 A 
ATOM     12  N   UNL     1      -4.961  12.146  19.596  0.00  0.00    +0.000 N 
ATOM     13  C   UNL     1      -6.299  12.217  19.918  0.00  0.00    +0.000 A 
ATOM     14  C   UNL     1      -6.929  11.315  19.094  0.00  0.00    +0.000 A 
ATOM     15  N   UNL     1      -6.021  10.676  18.290  0.00  0.00    +0.000 NA
ATOM     16  C   UNL     1      -4.854  11.196  18.610  0.00  0.00    +0.000 A 
ATOM     17  N   UNL     1      -2.667  12.780  19.624  0.00  0.00    +0.000 NA
ENDROOT
BRANCH   9  18
ATOM     18  C   UNL     1      -3.551  15.291  22.868  0.00  0.00    +0.000 A 
ATOM     19  C   UNL     1      -2.545  15.901  23.636  0.00  0.00    +0.000 A 
ATOM     20  C   UNL     1      -2.867  16.686  24.752  0.00  0.00    +0.000 A 
ATOM     21  C   UNL     1      -4.199  16.890  25.105  0.00  0.00    +0.000 A 
ATOM     22  C   UNL     1      -5.209  16.306  24.354  0.00  0.00    +0.000 A 
ATOM     23  C   UNL     1      -4.889  15.519  23.244  0.00  0.00    +0.000 A 
ENDBRANCH   9  18
BRANCH   1  24
ATOM     24  C   UNL     1      -0.492  11.036  19.062  0.00  0.00    +0.000 C 
BRANCH  24  26
ATOM     25  O   UNL     1      -0.494  10.120  21.309  0.00  0.00    +0.000 OA
ATOM     26  C   UNL     1      -0.062  10.083  20.163  0.00  0.00    +0.000 C 
ATOM     27  N   UNL     1       0.895   9.186  19.745  0.00  0.00    +0.000 N 
ATOM     28  H   UNL     1       1.244   9.241  18.796  0.00  0.00    +0.000 HD
BRANCH  27  29
ATOM     29  C   UNL     1       1.495   8.208  20.630  0.00  0.00    +0.000 C 
BRANCH  29  30
ATOM     30  C   UNL     1       2.076   7.089  19.806  0.00  0.00    +0.000 A 
ATOM     31  C   UNL     1       2.706   7.357  18.565  0.00  0.00    +0.000 A 
ATOM     32  C   UNL     1       3.443   6.365  17.905  0.00  0.00    +0.000 A 
ATOM     33  C   UNL     1       3.555   5.142  18.528  0.00  0.00    +0.000 A 
ATOM     34  C   UNL     1       2.899   4.862  19.707  0.00  0.00    +0.000 A 
ATOM     35  C   UNL     1       2.135   5.801  20.358  0.00  0.00    +0.000 A 
ATOM     36  O   UNL     1       3.204   3.622  20.181  0.00  0.00    +0.000 OA
ATOM     37  C   UNL     1       4.363   3.349  19.370  0.00  0.00    +0.000 C 
ATOM     38  O   UNL     1       4.365   4.116  18.147  0.00  0.00    +0.000 OA
ENDBRANCH  29  30
ENDBRANCH  27  29
ENDBRANCH  24  26
ENDBRANCH   1  24
TORSDOF 5
ENDMDL
MODEL 8
REMARK VINA RESULT:      -7.0      3.793      7.746
REMARK  Name = 
REMARK  5 active torsions:
REMARK  status: ('A' for Active; 'I' for Inactive)
REMARK    1  A    between atoms: C_2  and  C_3
REMARK    2  A    between atoms: C_3  and  C_4
REMARK    3  A    between atoms: C_12  and  C_13
REMARK    4  A    between atoms: N_27  and  C_28
REMARK    5  A    between atoms: C_28  and  C_29
REMARK                            x       y       z     vdW  Elec       q    Type
REMARK                         _______ _______ _______ _____ _____    ______ ____
ROOT
ATOM      1  C   UNL     1       0.358  10.611  20.706  0.00  0.00    +0.000 C 
ATOM      2  C   UNL     1      -0.296   9.205  20.658  0.00  0.00    +0.000 C 
ATOM      3  C   UNL     1      -0.285   8.534  22.034  0.00  0.00    +0.000 C 
ATOM      4  C   UNL     1      -0.964   9.417  23.075  0.00  0.00    +0.000 C 
ATOM      5  C   UNL     1      -0.331  10.806  23.091  0.00  0.00    +0.000 C 
ATOM      6  N   UNL     1      -0.378  11.389  21.741  0.00  0.00    +0.000 N 
ATOM      7  C   UNL     1      -1.187  12.485  21.502  0.00  0.00    +0.000 A 
ATOM      8  C   UNL     1      -2.400  12.621  22.152  0.00  0.00    +0.000 A 
ATOM      9  C   UNL     1      -3.139  13.769  21.957  0.00  0.00    +0.000 A 
ATOM     10  N   UNL     1      -2.690  14.772  21.181  0.00  0.00    +0.000 NA
ATOM     11  C   UNL     1      -1.516  14.569  20.558  0.00  0.00    +0.000 A 
ATOM     12  N   UNL     1      -1.029  15.628  19.745  0.00  0.00    +0.000 N 
ATOM     13  C   UNL     1      -1.578  16.883  19.595  0.00  0.00    +0.000 A 
ATOM     14  C   UNL     1      -0.742  17.556  18.737  0.00  0.00    +0.000 A 
ATOM     15  N   UNL     1       0.292  16.751  18.337  0.00  0.00    +0.000 NA
ATOM     16  C   UNL     1       0.097  15.607  18.958  0.00  0.00    +0.000 A 
ATOM     17  N   UNL     1      -0.768  13.448  20.665  0.00  0.00    +0.000 NA
ENDROOT
BRANCH   9  18
ATOM     18  C   UNL     1      -4.465  13.973  22.580  0.00  0.00    +0.000 A 
ATOM     19  C   UNL     1      -5.143  15.196  22.451  0.00  0.00    +0.000 A 
ATOM     20  C   UNL     1      -6.392  15.395  23.055  0.00  0.00    +0.000 A 
ATOM     21  C   UNL     1      -6.993  14.368  23.779  0.00  0.00    +0.000 A 
ATOM     22  C   UNL     1      -6.346  13.147  23.911  0.00  0.00    +0.000 A 
ATOM     23  C   UNL     1      -5.097  12.950  23.314  0.00  0.00    +0.000 A 
ENDBRANCH   9  18
BRANCH   1  24
ATOM     24  C   UNL     1       0.418  11.245  19.314  0.00  0.00    +0.000 C 
BRANCH  24  26
ATOM     25  O   UNL     1       2.404  11.477  17.940  0.00  0.00    +0.000 OA
ATOM     26  C   UNL     1       1.579  10.745  18.475  0.00  0.00    +0.000 C 
ATOM     27  N   UNL     1       1.592   9.374  18.349  0.00  0.00    +0.000 N 
ATOM     28  H   UNL     1       0.852   8.831  18.776  0.00  0.00    +0.000 HD
BRANCH  27  29
ATOM     29  C   UNL     1       2.577   8.667  17.555  0.00  0.00    +0.000 C 
BRANCH  29  30
ATOM     30  C   UNL     1       2.938   7.380  18.251  0.00  0.00    +0.000 A 
ATOM     31  C   UNL     1       2.315   7.019  19.471  0.00  0.00    +0.000 A 
ATOM     32  C   UNL     1       2.473   5.733  20.004  0.00  0.00    +0.000 A 
ATOM     33  C   UNL     1       3.223   4.836  19.278  0.00  0.00    +0.000 A 
ATOM     34  C   UNL     1       3.873   5.200  18.119  0.00  0.00    +0.000 A 
ATOM     35  C   UNL     1       3.772   6.466  17.592  0.00  0.00    +0.000 A 
ATOM     36  O   UNL     1       4.498   4.143  17.529  0.00  0.00    +0.000 OA
ATOM     37  C   UNL     1       3.858   3.072  18.247  0.00  0.00    +0.000 C 
ATOM     38  O   UNL     1       3.347   3.503  19.527  0.00  0.00    +0.000 OA
ENDBRANCH  29  30
ENDBRANCH  27  29
ENDBRANCH  24  26
ENDBRANCH   1  24
TORSDOF 5
ENDMDL
MODEL 9
REMARK VINA RESULT:      -7.0      2.891      5.933
REMARK  Name = 
REMARK  5 active torsions:
REMARK  status: ('A' for Active; 'I' for Inactive)
REMARK    1  A    between atoms: C_2  and  C_3
REMARK    2  A    between atoms: C_3  and  C_4
REMARK    3  A    between atoms: C_12  and  C_13
REMARK    4  A    between atoms: N_27  and  C_28
REMARK    5  A    between atoms: C_28  and  C_29
REMARK                            x       y       z     vdW  Elec       q    Type
REMARK                         _______ _______ _______ _____ _____    ______ ____
ROOT
ATOM      1  C   UNL     1      -5.493  13.641  23.529  0.00  0.00    +0.000 C 
ATOM      2  C   UNL     1      -6.515  12.514  23.830  0.00  0.00    +0.000 C 
ATOM      3  C   UNL     1      -7.830  12.734  23.079  0.00  0.00    +0.000 C 
ATOM      4  C   UNL     1      -7.585  12.864  21.579  0.00  0.00    +0.000 C 
ATOM      5  C   UNL     1      -6.555  13.955  21.299  0.00  0.00    +0.000 C 
ATOM      6  N   UNL     1      -5.321  13.679  22.050  0.00  0.00    +0.000 N 
ATOM      7  C   UNL     1      -4.170  13.338  21.363  0.00  0.00    +0.000 A 
ATOM      8  C   UNL     1      -4.235  12.584  20.206  0.00  0.00    +0.000 A 
ATOM      9  C   UNL     1      -3.077  12.339  19.499  0.00  0.00    +0.000 A 
ATOM     10  N   UNL     1      -1.894  12.849  19.888  0.00  0.00    +0.000 NA
ATOM     11  C   UNL     1      -1.892  13.554  21.033  0.00  0.00    +0.000 A 
ATOM     12  N   UNL     1      -0.649  14.104  21.446  0.00  0.00    +0.000 N 
ATOM     13  C   UNL     1       0.544  14.079  20.755  0.00  0.00    +0.000 A 
ATOM     14  C   UNL     1       1.444  14.759  21.540  0.00  0.00    +0.000 A 
ATOM     15  N   UNL     1       0.852  15.185  22.700  0.00  0.00    +0.000 NA
ATOM     16  C   UNL     1      -0.399  14.782  22.614  0.00  0.00    +0.000 A 
ATOM     17  N   UNL     1      -2.981  13.786  21.800  0.00  0.00    +0.000 NA
ENDROOT
BRANCH   9  18
ATOM     18  C   UNL     1      -3.056  11.507  18.277  0.00  0.00    +0.000 A 
ATOM     19  C   UNL     1      -2.022  10.584  18.051  0.00  0.00    +0.000 A 
ATOM     20  C   UNL     1      -1.993   9.805  16.885  0.00  0.00    +0.000 A 
ATOM     21  C   UNL     1      -3.008   9.921  15.939  0.00  0.00    +0.000 A 
ATOM     22  C   UNL     1      -4.046  10.819  16.147  0.00  0.00    +0.000 A 
ATOM     23  C   UNL     1      -4.072  11.601  17.306  0.00  0.00    +0.000 A 
ENDBRANCH   9  18
BRANCH   1  24
ATOM     24  C   UNL     1      -4.209  13.460  24.343  0.00  0.00    +0.000 C 
BRANCH  24  26
ATOM     25  O   UNL     1      -2.776  14.878  25.693  0.00  0.00    +0.000 OA
ATOM     26  C   UNL     1      -3.583  14.773  24.777  0.00  0.00    +0.000 C 
ATOM     27  N   UNL     1      -4.045  15.847  24.051  0.00  0.00    +0.000 N 
ATOM     28  H   UNL     1      -4.748  15.697  23.339  0.00  0.00    +0.000 HD
BRANCH  27  29
ATOM     29  C   UNL     1      -3.628  17.210  24.313  0.00  0.00    +0.000 C 
BRANCH  29  30
ATOM     30  C   UNL     1      -2.740  17.679  23.190  0.00  0.00    +0.000 A 
ATOM     31  C   UNL     1      -1.502  18.312  23.463  0.00  0.00    +0.000 A 
ATOM     32  C   UNL     1      -0.573  18.544  22.441  0.00  0.00    +0.000 A 
ATOM     33  C   UNL     1      -0.899  18.101  21.179  0.00  0.00    +0.000 A 
ATOM     34  C   UNL     1      -2.123  17.533  20.900  0.00  0.00    +0.000 A 
ATOM     35  C   UNL     1      -3.072  17.330  21.873  0.00  0.00    +0.000 A 
ATOM     36  O   UNL     1      -2.207  17.105  19.609  0.00  0.00    +0.000 OA
ATOM     37  C   UNL     1      -0.809  17.147  19.266  0.00  0.00    +0.000 C 
ATOM     38  O   UNL     1      -0.070  18.067  20.099  0.00  0.00    +0.000 OA
ENDBRANCH  29  30
ENDBRANCH  27  29
ENDBRANCH  24  26
ENDBRANCH   1  24
TORSDOF 5
ENDMDL
