MODEL 1
REMARK VINA RESULT:      -6.8      0.000      0.000
REMARK  Name = 
REMARK  6 active torsions:
REMARK  status: ('A' for Active; 'I' for Inactive)
REMARK    1  A    between atoms: C_1  and  N_2
REMARK    2  A    between atoms: N_2  and  C_3
REMARK    3  A    between atoms: C_6  and  C_7
REMARK    4  A    between atoms: N_9  and  C_10
REMARK    5  A    between atoms: C_10  and  C_11
REMARK    6  A    between atoms: C_10  and  C_12
REMARK                            x       y       z     vdW  Elec       q    Type
REMARK                         _______ _______ _______ _____ _____    ______ ____
ROOT
ATOM      1  C   UNL     1       5.027   5.294  18.040  0.00  0.00    +0.000 C 
ATOM      2  O   UNL     1       5.664   4.952  19.035  0.00  0.00    +0.000 OA
ATOM      3  N   UNL     1       3.786   5.897  18.130  0.00  0.00    +0.000 N 
ATOM      4  H   UNL     1       3.264   6.125  17.298  0.00  0.00    +0.000 HD
ENDROOT
BRANCH   1   8
ATOM      5  C   UNL     1       6.628   4.529  14.070  0.00  0.00    +0.000 A 
ATOM      6  C   UNL     1       5.328   4.170  14.437  0.00  0.00    +0.000 A 
ATOM      7  C   UNL     1       4.825   4.446  15.714  0.00  0.00    +0.000 A 
ATOM      8  C   UNL     1       5.620   5.080  16.678  0.00  0.00    +0.000 A 
ATOM      9  C   UNL     1       6.921   5.454  16.318  0.00  0.00    +0.000 A 
ATOM     10  C   UNL     1       7.411   5.182  15.029  0.00  0.00    +0.000 A 
BRANCH   5  12
ATOM     11  C   UNL     1       6.378   3.201  11.999  0.00  0.00    +0.000 C 
ATOM     12  N   UNL     1       7.114   4.139  12.825  0.00  0.00    +0.000 N 
ATOM     13  H   UNL     1       8.124   4.026  12.782  0.00  0.00    +0.000 HD
ENDBRANCH   5  12
ENDBRANCH   1   8
BRANCH   3  14
ATOM     14  C   UNL     1       3.139   6.143  19.404  0.00  0.00    +0.000 C 
ATOM     15  C   UNL     1       2.236   7.385  19.293  0.00  0.00    +0.000 C 
BRANCH  14  16
ATOM     16  C   UNL     1       2.397   4.898  19.871  0.00  0.00    +0.000 A 
ATOM     17  C   UNL     1       2.560   4.474  21.200  0.00  0.00    +0.000 A 
ATOM     18  C   UNL     1       1.884   3.349  21.684  0.00  0.00    +0.000 A 
ATOM     19  C   UNL     1       1.047   2.623  20.842  0.00  0.00    +0.000 A 
ATOM     20  C   UNL     1       0.893   3.016  19.514  0.00  0.00    +0.000 A 
ATOM     21  C   UNL     1       1.570   4.140  19.030  0.00  0.00    +0.000 A 
ENDBRANCH  14  16
ENDBRANCH   3  14
TORSDOF 4
ENDMDL
MODEL 2
REMARK VINA RESULT:      -6.8      0.286      1.132
REMARK  Name = 
REMARK  6 active torsions:
REMARK  status: ('A' for Active; 'I' for Inactive)
REMARK    1  A    between atoms: C_1  and  N_2
REMARK    2  A    between atoms: N_2  and  C_3
REMARK    3  A    between atoms: C_6  and  C_7
REMARK    4  A    between atoms: N_9  and  C_10
REMARK    5  A    between atoms: C_10  and  C_11
REMARK    6  A    between atoms: C_10  and  C_12
REMARK                            x       y       z     vdW  Elec       q    Type
REMARK                         _______ _______ _______ _____ _____    ______ ____
ROOT
ATOM      1  C   UNL     1       5.108   5.089  18.098  0.00  0.00    +0.000 C 
ATOM      2  O   UNL     1       5.720   4.623  19.058  0.00  0.00    +0.000 OA
ATOM      3  N   UNL     1       3.904   5.751  18.241  0.00  0.00    +0.000 N 
ATOM      4  H   UNL     1       3.400   6.083  17.433  0.00  0.00    +0.000 HD
ENDROOT
BRANCH   1   8
ATOM      5  C   UNL     1       6.681   4.594  14.073  0.00  0.00    +0.000 A 
ATOM      6  C   UNL     1       5.354   4.298  14.403  0.00  0.00    +0.000 A 
ATOM      7  C   UNL     1       4.863   4.486  15.700  0.00  0.00    +0.000 A 
ATOM      8  C   UNL     1       5.695   4.964  16.721  0.00  0.00    +0.000 A 
ATOM      9  C   UNL     1       7.022   5.273  16.400  0.00  0.00    +0.000 A 
ATOM     10  C   UNL     1       7.502   5.092  15.091  0.00  0.00    +0.000 A 
BRANCH   5  12
ATOM     11  C   UNL     1       6.549   3.220  12.021  0.00  0.00    +0.000 C 
ATOM     12  N   UNL     1       7.147   4.291  12.797  0.00  0.00    +0.000 N 
ATOM     13  H   UNL     1       8.154   4.373  12.684  0.00  0.00    +0.000 HD
ENDBRANCH   5  12
ENDBRANCH   1   8
BRANCH   3  14
ATOM     14  C   UNL     1       3.265   5.919  19.532  0.00  0.00    +0.000 C 
ATOM     15  C   UNL     1       2.451   7.226  19.540  0.00  0.00    +0.000 C 
BRANCH  14  16
ATOM     16  C   UNL     1       2.435   4.690  19.877  0.00  0.00    +0.000 A 
ATOM     17  C   UNL     1       1.722   4.048  18.851  0.00  0.00    +0.000 A 
ATOM     18  C   UNL     1       0.962   2.903  19.112  0.00  0.00    +0.000 A 
ATOM     19  C   UNL     1       0.892   2.393  20.405  0.00  0.00    +0.000 A 
ATOM     20  C   UNL     1       1.573   3.032  21.438  0.00  0.00    +0.000 A 
ATOM     21  C   UNL     1       2.332   4.177  21.178  0.00  0.00    +0.000 A 
ENDBRANCH  14  16
ENDBRANCH   3  14
TORSDOF 4
ENDMDL
MODEL 3
REMARK VINA RESULT:      -6.8      3.600      7.641
REMARK  Name = 
REMARK  6 active torsions:
REMARK  status: ('A' for Active; 'I' for Inactive)
REMARK    1  A    between atoms: C_1  and  N_2
REMARK    2  A    between atoms: N_2  and  C_3
REMARK    3  A    between atoms: C_6  and  C_7
REMARK    4  A    between atoms: N_9  and  C_10
REMARK    5  A    between atoms: C_10  and  C_11
REMARK    6  A    between atoms: C_10  and  C_12
REMARK                            x       y       z     vdW  Elec       q    Type
REMARK                         _______ _______ _______ _____ _____    ______ ____
ROOT
ATOM      1  C   UNL     1       2.035   8.339  18.485  0.00  0.00    +0.000 C 
ATOM      2  O   UNL     1       2.111   8.913  17.400  0.00  0.00    +0.000 OA
ATOM      3  N   UNL     1       2.600   7.097  18.704  0.00  0.00    +0.000 N 
ATOM      4  H   UNL     1       2.483   6.628  19.590  0.00  0.00    +0.000 HD
ENDROOT
BRANCH   1   8
ATOM      5  C   UNL     1      -0.023  10.130  21.872  0.00  0.00    +0.000 A 
ATOM      6  C   UNL     1       0.702   8.938  21.978  0.00  0.00    +0.000 A 
ATOM      7  C   UNL     1       1.375   8.391  20.879  0.00  0.00    +0.000 A 
ATOM      8  C   UNL     1       1.330   9.015  19.625  0.00  0.00    +0.000 A 
ATOM      9  C   UNL     1       0.615  10.214  19.510  0.00  0.00    +0.000 A 
ATOM     10  C   UNL     1      -0.048  10.760  20.623  0.00  0.00    +0.000 A 
BRANCH   5  12
ATOM     11  C   UNL     1      -1.364  11.894  22.970  0.00  0.00    +0.000 C 
ATOM     12  N   UNL     1      -0.760  10.575  22.966  0.00  0.00    +0.000 N 
ATOM     13  H   UNL     1      -0.395  10.283  23.869  0.00  0.00    +0.000 HD
ENDBRANCH   5  12
ENDBRANCH   1   8
BRANCH   3  14
ATOM     14  C   UNL     1       3.299   6.373  17.661  0.00  0.00    +0.000 C 
ATOM     15  C   UNL     1       4.797   6.722  17.704  0.00  0.00    +0.000 C 
BRANCH  14  16
ATOM     16  C   UNL     1       3.024   4.880  17.776  0.00  0.00    +0.000 A 
ATOM     17  C   UNL     1       1.729   4.457  18.119  0.00  0.00    +0.000 A 
ATOM     18  C   UNL     1       1.420   3.096  18.217  0.00  0.00    +0.000 A 
ATOM     19  C   UNL     1       2.405   2.140  17.988  0.00  0.00    +0.000 A 
ATOM     20  C   UNL     1       3.700   2.543  17.671  0.00  0.00    +0.000 A 
ATOM     21  C   UNL     1       4.010   3.903  17.575  0.00  0.00    +0.000 A 
ENDBRANCH  14  16
ENDBRANCH   3  14
TORSDOF 4
ENDMDL
MODEL 4
REMARK VINA RESULT:      -6.7      3.698      6.004
REMARK  Name = 
REMARK  6 active torsions:
REMARK  status: ('A' for Active; 'I' for Inactive)
REMARK    1  A    between atoms: C_1  and  N_2
REMARK    2  A    between atoms: N_2  and  C_3
REMARK    3  A    between atoms: C_6  and  C_7
REMARK    4  A    between atoms: N_9  and  C_10
REMARK    5  A    between atoms: C_10  and  C_11
REMARK    6  A    between atoms: C_10  and  C_12
REMARK                            x       y       z     vdW  Elec       q    Type
REMARK                         _______ _______ _______ _____ _____    ______ ____
ROOT
ATOM      1  C   UNL     1       2.245   8.402  18.313  0.00  0.00    +0.000 C 
ATOM      2  O   UNL     1       2.446   9.121  17.335  0.00  0.00    +0.000 OA
ATOM      3  N   UNL     1       1.349   8.743  19.308  0.00  0.00    +0.000 N 
ATOM      4  H   UNL     1       1.237   8.158  20.122  0.00  0.00    +0.000 HD
ENDROOT
BRANCH   1   8
ATOM      5  C   UNL     1       4.321   4.614  18.819  0.00  0.00    +0.000 A 
ATOM      6  C   UNL     1       3.330   5.052  19.704  0.00  0.00    +0.000 A 
ATOM      7  C   UNL     1       2.659   6.265  19.509  0.00  0.00    +0.000 A 
ATOM      8  C   UNL     1       2.973   7.093  18.424  0.00  0.00    +0.000 A 
ATOM      9  C   UNL     1       3.957   6.661  17.526  0.00  0.00    +0.000 A 
ATOM     10  C   UNL     1       4.616   5.435  17.725  0.00  0.00    +0.000 A 
BRANCH   5  12
ATOM     11  C   UNL     1       4.429   2.394  19.903  0.00  0.00    +0.000 C 
ATOM     12  N   UNL     1       5.030   3.453  19.115  0.00  0.00    +0.000 N 
ATOM     13  H   UNL     1       6.019   3.598  19.300  0.00  0.00    +0.000 HD
ENDBRANCH   5  12
ENDBRANCH   1   8
BRANCH   3  14
ATOM     14  C   UNL     1       0.604   9.986  19.282  0.00  0.00    +0.000 C 
ATOM     15  C   UNL     1      -0.441   9.938  18.152  0.00  0.00    +0.000 C 
BRANCH  14  16
ATOM     16  C   UNL     1      -0.001  10.271  20.649  0.00  0.00    +0.000 A 
ATOM     17  C   UNL     1      -0.732  11.458  20.830  0.00  0.00    +0.000 A 
ATOM     18  C   UNL     1      -1.324  11.755  22.062  0.00  0.00    +0.000 A 
ATOM     19  C   UNL     1      -1.183  10.879  23.134  0.00  0.00    +0.000 A 
ATOM     20  C   UNL     1      -0.441   9.710  22.978  0.00  0.00    +0.000 A 
ATOM     21  C   UNL     1       0.153   9.413  21.747  0.00  0.00    +0.000 A 
ENDBRANCH  14  16
ENDBRANCH   3  14
TORSDOF 4
ENDMDL
MODEL 5
REMARK VINA RESULT:      -6.7      2.562      6.925
REMARK  Name = 
REMARK  6 active torsions:
REMARK  status: ('A' for Active; 'I' for Inactive)
REMARK    1  A    between atoms: C_1  and  N_2
REMARK    2  A    between atoms: N_2  and  C_3
REMARK    3  A    between atoms: C_6  and  C_7
REMARK    4  A    between atoms: N_9  and  C_10
REMARK    5  A    between atoms: C_10  and  C_11
REMARK    6  A    between atoms: C_10  and  C_12
REMARK                            x       y       z     vdW  Elec       q    Type
REMARK                         _______ _______ _______ _____ _____    ______ ____
ROOT
ATOM      1  C   UNL     1       3.019   6.102  19.047  0.00  0.00    +0.000 C 
ATOM      2  O   UNL     1       3.713   5.732  19.993  0.00  0.00    +0.000 OA
ATOM      3  N   UNL     1       2.896   5.360  17.888  0.00  0.00    +0.000 N 
ATOM      4  H   UNL     1       2.357   5.707  17.109  0.00  0.00    +0.000 HD
ENDROOT
BRANCH   1   8
ATOM      5  C   UNL     1       0.891   9.891  19.218  0.00  0.00    +0.000 A 
ATOM      6  C   UNL     1       1.441   9.390  18.033  0.00  0.00    +0.000 A 
ATOM      7  C   UNL     1       2.103   8.157  17.996  0.00  0.00    +0.000 A 
ATOM      8  C   UNL     1       2.252   7.387  19.157  0.00  0.00    +0.000 A 
ATOM      9  C   UNL     1       1.697   7.874  20.347  0.00  0.00    +0.000 A 
ATOM     10  C   UNL     1       1.024   9.108  20.370  0.00  0.00    +0.000 A 
BRANCH   5  12
ATOM     11  C   UNL     1      -0.846  11.469  18.438  0.00  0.00    +0.000 C 
ATOM     12  N   UNL     1       0.337  11.167  19.222  0.00  0.00    +0.000 N 
ATOM     13  H   UNL     1       1.016  11.923  19.256  0.00  0.00    +0.000 HD
ENDBRANCH   5  12
ENDBRANCH   1   8
BRANCH   3  14
ATOM     14  C   UNL     1       3.599   4.106  17.696  0.00  0.00    +0.000 C 
ATOM     15  C   UNL     1       2.643   3.065  17.087  0.00  0.00    +0.000 C 
BRANCH  14  16
ATOM     16  C   UNL     1       4.857   4.326  16.867  0.00  0.00    +0.000 A 
ATOM     17  C   UNL     1       6.081   4.512  17.534  0.00  0.00    +0.000 A 
ATOM     18  C   UNL     1       7.268   4.696  16.818  0.00  0.00    +0.000 A 
ATOM     19  C   UNL     1       7.248   4.713  15.426  0.00  0.00    +0.000 A 
ATOM     20  C   UNL     1       6.040   4.554  14.751  0.00  0.00    +0.000 A 
ATOM     21  C   UNL     1       4.852   4.371  15.466  0.00  0.00    +0.000 A 
ENDBRANCH  14  16
ENDBRANCH   3  14
TORSDOF 4
ENDMDL
MODEL 6
REMARK VINA RESULT:      -6.7      2.575      7.095
REMARK  Name = 
REMARK  6 active torsions:
REMARK  status: ('A' for Active; 'I' for Inactive)
REMARK    1  A    between atoms: C_1  and  N_2
REMARK    2  A    between atoms: N_2  and  C_3
REMARK    3  A    between atoms: C_6  and  C_7
REMARK    4  A    between atoms: N_9  and  C_10
REMARK    5  A    between atoms: C_10  and  C_11
REMARK    6  A    between atoms: C_10  and  C_12
REMARK                            x       y       z     vdW  Elec       q    Type
REMARK                         _______ _______ _______ _____ _____    ______ ____
ROOT
ATOM      1  C   UNL     1       2.799   6.128  19.248  0.00  0.00    +0.000 C 
ATOM      2  O   UNL     1       3.167   5.597  20.296  0.00  0.00    +0.000 OA
ATOM      3  N   UNL     1       2.945   5.514  18.019  0.00  0.00    +0.000 N 
ATOM      4  H   UNL     1       2.677   5.989  17.171  0.00  0.00    +0.000 HD
ENDROOT
BRANCH   1   8
ATOM      5  C   UNL     1       1.005  10.089  19.254  0.00  0.00    +0.000 A 
ATOM      6  C   UNL     1       1.588   9.530  18.112  0.00  0.00    +0.000 A 
ATOM      7  C   UNL     1       2.140   8.244  18.127  0.00  0.00    +0.000 A 
ATOM      8  C   UNL     1       2.142   7.477  19.300  0.00  0.00    +0.000 A 
ATOM      9  C   UNL     1       1.553   8.022  20.447  0.00  0.00    +0.000 A 
ATOM     10  C   UNL     1       0.991   9.311  20.417  0.00  0.00    +0.000 A 
BRANCH   5  12
ATOM     11  C   UNL     1       0.746  12.289  20.354  0.00  0.00    +0.000 C 
ATOM     12  N   UNL     1       0.566  11.409  19.215  0.00  0.00    +0.000 N 
ATOM     13  H   UNL     1      -0.311  11.549  18.718  0.00  0.00    +0.000 HD
ENDBRANCH   5  12
ENDBRANCH   1   8
BRANCH   3  14
ATOM     14  C   UNL     1       3.568   4.211  17.877  0.00  0.00    +0.000 C 
ATOM     15  C   UNL     1       2.584   3.240  17.200  0.00  0.00    +0.000 C 
BRANCH  14  16
ATOM     16  C   UNL     1       4.894   4.336  17.141  0.00  0.00    +0.000 A 
ATOM     17  C   UNL     1       4.905   4.205  15.742  0.00  0.00    +0.000 A 
ATOM     18  C   UNL     1       6.095   4.332  15.018  0.00  0.00    +0.000 A 
ATOM     19  C   UNL     1       7.293   4.576  15.683  0.00  0.00    +0.000 A 
ATOM     20  C   UNL     1       7.304   4.684  17.072  0.00  0.00    +0.000 A 
ATOM     21  C   UNL     1       6.114   4.556  17.796  0.00  0.00    +0.000 A 
ENDBRANCH  14  16
ENDBRANCH   3  14
TORSDOF 4
ENDMDL
MODEL 7
REMARK VINA RESULT:      -6.7      2.584      7.113
REMARK  Name = 
REMARK  6 active torsions:
REMARK  status: ('A' for Active; 'I' for Inactive)
REMARK    1  A    between atoms: C_1  and  N_2
REMARK    2  A    between atoms: N_2  and  C_3
REMARK    3  A    between atoms: C_6  and  C_7
REMARK    4  A    between atoms: N_9  and  C_10
REMARK    5  A    between atoms: C_10  and  C_11
REMARK    6  A    between atoms: C_10  and  C_12
REMARK                            x       y       z     vdW  Elec       q    Type
REMARK                         _______ _______ _______ _____ _____    ______ ____
ROOT
ATOM      1  C   UNL     1       2.732   6.191  19.240  0.00  0.00    +0.000 C 
ATOM      2  O   UNL     1       2.977   5.620  20.302  0.00  0.00    +0.000 OA
ATOM      3  N   UNL     1       2.984   5.608  18.013  0.00  0.00    +0.000 N 
ATOM      4  H   UNL     1       2.817   6.116  17.158  0.00  0.00    +0.000 HD
ENDROOT
BRANCH   1   8
ATOM      5  C   UNL     1       0.827  10.095  19.464  0.00  0.00    +0.000 A 
ATOM      6  C   UNL     1       0.936   9.247  20.571  0.00  0.00    +0.000 A 
ATOM      7  C   UNL     1       1.573   8.004  20.482  0.00  0.00    +0.000 A 
ATOM      8  C   UNL     1       2.111   7.558  19.268  0.00  0.00    +0.000 A 
ATOM      9  C   UNL     1       2.017   8.402  18.154  0.00  0.00    +0.000 A 
ATOM     10  C   UNL     1       1.385   9.654  18.259  0.00  0.00    +0.000 A 
BRANCH   5  12
ATOM     11  C   UNL     1      -0.816  11.689  18.529  0.00  0.00    +0.000 C 
ATOM     12  N   UNL     1       0.094  11.271  19.580  0.00  0.00    +0.000 N 
ATOM     13  H   UNL     1       0.591  12.038  20.027  0.00  0.00    +0.000 HD
ENDBRANCH   5  12
ENDBRANCH   1   8
BRANCH   3  14
ATOM     14  C   UNL     1       3.581   4.291  17.893  0.00  0.00    +0.000 C 
ATOM     15  C   UNL     1       2.577   3.327  17.237  0.00  0.00    +0.000 C 
BRANCH  14  16
ATOM     16  C   UNL     1       4.907   4.376  17.152  0.00  0.00    +0.000 A 
ATOM     17  C   UNL     1       4.908   4.255  15.752  0.00  0.00    +0.000 A 
ATOM     18  C   UNL     1       6.098   4.347  15.023  0.00  0.00    +0.000 A 
ATOM     19  C   UNL     1       7.306   4.547  15.683  0.00  0.00    +0.000 A 
ATOM     20  C   UNL     1       7.327   4.645  17.073  0.00  0.00    +0.000 A 
ATOM     21  C   UNL     1       6.137   4.551  17.802  0.00  0.00    +0.000 A 
ENDBRANCH  14  16
ENDBRANCH   3  14
TORSDOF 4
ENDMDL
MODEL 8
REMARK VINA RESULT:      -6.7      0.286      1.131
REMARK  Name = 
REMARK  6 active torsions:
REMARK  status: ('A' for Active; 'I' for Inactive)
REMARK    1  A    between atoms: C_1  and  N_2
REMARK    2  A    between atoms: N_2  and  C_3
REMARK    3  A    between atoms: C_6  and  C_7
REMARK    4  A    between atoms: N_9  and  C_10
REMARK    5  A    between atoms: C_10  and  C_11
REMARK    6  A    between atoms: C_10  and  C_12
REMARK                            x       y       z     vdW  Elec       q    Type
REMARK                         _______ _______ _______ _____ _____    ______ ____
ROOT
ATOM      1  C   UNL     1       5.014   5.242  18.138  0.00  0.00    +0.000 C 
ATOM      2  O   UNL     1       5.664   4.931  19.135  0.00  0.00    +0.000 OA
ATOM      3  N   UNL     1       3.769   5.835  18.225  0.00  0.00    +0.000 N 
ATOM      4  H   UNL     1       3.236   6.038  17.392  0.00  0.00    +0.000 HD
ENDROOT
BRANCH   1   8
ATOM      5  C   UNL     1       6.805   4.696  14.213  0.00  0.00    +0.000 A 
ATOM      6  C   UNL     1       7.449   5.390  15.243  0.00  0.00    +0.000 A 
ATOM      7  C   UNL     1       6.863   5.534  16.506  0.00  0.00    +0.000 A 
ATOM      8  C   UNL     1       5.597   5.000  16.776  0.00  0.00    +0.000 A 
ATOM      9  C   UNL     1       4.947   4.295  15.755  0.00  0.00    +0.000 A 
ATOM     10  C   UNL     1       5.550   4.146  14.494  0.00  0.00    +0.000 A 
BRANCH   5  12
ATOM     11  C   UNL     1       6.898   3.763  11.925  0.00  0.00    +0.000 C 
ATOM     12  N   UNL     1       7.383   4.671  12.947  0.00  0.00    +0.000 N 
ATOM     13  H   UNL     1       8.391   4.804  12.939  0.00  0.00    +0.000 HD
ENDBRANCH   5  12
ENDBRANCH   1   8
BRANCH   3  14
ATOM     14  C   UNL     1       3.131   6.106  19.499  0.00  0.00    +0.000 C 
ATOM     15  C   UNL     1       2.218   7.339  19.367  0.00  0.00    +0.000 C 
BRANCH  14  16
ATOM     16  C   UNL     1       2.402   4.868  20.001  0.00  0.00    +0.000 A 
ATOM     17  C   UNL     1       2.664   4.412  21.304  0.00  0.00    +0.000 A 
ATOM     18  C   UNL     1       2.005   3.292  21.820  0.00  0.00    +0.000 A 
ATOM     19  C   UNL     1       1.086   2.602  21.036  0.00  0.00    +0.000 A 
ATOM     20  C   UNL     1       0.832   3.025  19.734  0.00  0.00    +0.000 A 
ATOM     21  C   UNL     1       1.492   4.145  19.217  0.00  0.00    +0.000 A 
ENDBRANCH  14  16
ENDBRANCH   3  14
TORSDOF 4
ENDMDL
MODEL 9
REMARK VINA RESULT:      -6.6      0.407      1.599
REMARK  Name = 
REMARK  6 active torsions:
REMARK  status: ('A' for Active; 'I' for Inactive)
REMARK    1  A    between atoms: C_1  and  N_2
REMARK    2  A    between atoms: N_2  and  C_3
REMARK    3  A    between atoms: C_6  and  C_7
REMARK    4  A    between atoms: N_9  and  C_10
REMARK    5  A    between atoms: C_10  and  C_11
REMARK    6  A    between atoms: C_10  and  C_12
REMARK                            x       y       z     vdW  Elec       q    Type
REMARK                         _______ _______ _______ _____ _____    ______ ____
ROOT
ATOM      1  C   UNL     1       5.052   5.019  18.234  0.00  0.00    +0.000 C 
ATOM      2  O   UNL     1       5.612   4.521  19.209  0.00  0.00    +0.000 OA
ATOM      3  N   UNL     1       3.892   5.760  18.348  0.00  0.00    +0.000 N 
ATOM      4  H   UNL     1       3.428   6.119  17.527  0.00  0.00    +0.000 HD
ENDROOT
BRANCH   1   8
ATOM      5  C   UNL     1       6.895   4.677  14.309  0.00  0.00    +0.000 A 
ATOM      6  C   UNL     1       7.469   5.418  15.347  0.00  0.00    +0.000 A 
ATOM      7  C   UNL     1       6.870   5.496  16.609  0.00  0.00    +0.000 A 
ATOM      8  C   UNL     1       5.658   4.844  16.871  0.00  0.00    +0.000 A 
ATOM      9  C   UNL     1       5.078   4.091  15.842  0.00  0.00    +0.000 A 
ATOM     10  C   UNL     1       5.695   4.011  14.581  0.00  0.00    +0.000 A 
BRANCH   5  12
ATOM     11  C   UNL     1       6.979   3.878  11.970  0.00  0.00    +0.000 C 
ATOM     12  N   UNL     1       7.475   4.718  13.044  0.00  0.00    +0.000 N 
ATOM     13  H   UNL     1       8.485   4.836  13.046  0.00  0.00    +0.000 HD
ENDBRANCH   5  12
ENDBRANCH   1   8
BRANCH   3  14
ATOM     14  C   UNL     1       3.239   5.980  19.624  0.00  0.00    +0.000 C 
ATOM     15  C   UNL     1       2.383   7.258  19.553  0.00  0.00    +0.000 C 
BRANCH  14  16
ATOM     16  C   UNL     1       2.448   4.747  20.034  0.00  0.00    +0.000 A 
ATOM     17  C   UNL     1       1.652   4.104  19.071  0.00  0.00    +0.000 A 
ATOM     18  C   UNL     1       0.922   2.955  19.393  0.00  0.00    +0.000 A 
ATOM     19  C   UNL     1       0.966   2.440  20.685  0.00  0.00    +0.000 A 
ATOM     20  C   UNL     1       1.732   3.079  21.658  0.00  0.00    +0.000 A 
ATOM     21  C   UNL     1       2.460   4.229  21.337  0.00  0.00    +0.000 A 
ENDBRANCH  14  16
ENDBRANCH   3  14
TORSDOF 4
ENDMDL
