MODEL 1
REMARK VINA RESULT:      -8.7      0.000      0.000
REMARK  Name = 
REMARK  9 active torsions:
REMARK  status: ('A' for Active; 'I' for Inactive)
REMARK    1  A    between atoms: C_1  and  C_2
REMARK    2  A    between atoms: C_8  and  N_9
REMARK    3  A    between atoms: C_11  and  C_12
REMARK    4  A    between atoms: C_14  and  C_15
REMARK    5  A    between atoms: C_17  and  O_18
REMARK    6  A    between atoms: O_18  and  C_19
REMARK    7  A    between atoms: C_19  and  C_20
REMARK    8  A    between atoms: N_22  and  C_23
REMARK    9  A    between atoms: C_23  and  C_24
REMARK                            x       y       z     vdW  Elec       q    Type
REMARK                         _______ _______ _______ _____ _____    ______ ____
ROOT
ATOM      1  N   UNL     1       8.562  14.516  19.839  0.00  0.00    +0.000 N 
ATOM      2  N   UNL     1       9.183  15.649  19.417  0.00  0.00    +0.000 NA
ATOM      3  C   UNL     1      10.139  15.241  18.578  0.00  0.00    +0.000 A 
ATOM      4  C   UNL     1      11.023  16.263  17.961  0.00  0.00    +0.000 C 
ATOM      5  C   UNL     1      10.142  13.837  18.405  0.00  0.00    +0.000 A 
ATOM      6  C   UNL     1      10.846  12.879  17.643  0.00  0.00    +0.000 A 
ATOM      7  C   UNL     1      11.941  13.186  16.661  0.00  0.00    +0.000 C 
ATOM      8  C   UNL     1      10.452  11.537  17.811  0.00  0.00    +0.000 A 
ATOM      9  C   UNL     1       9.428  11.220  18.690  0.00  0.00    +0.000 A 
ATOM     10  N   UNL     1       8.741  12.105  19.428  0.00  0.00    +0.000 NA
ATOM     11  C   UNL     1       9.131  13.387  19.257  0.00  0.00    +0.000 A 
ENDROOT
BRANCH   1  19
ATOM     12  C   UNL     1       9.056  13.923  22.713  0.00  0.00    +0.000 C 
ATOM     13  C   UNL     1       7.686  14.246  22.160  0.00  0.00    +0.000 A 
ATOM     14  C   UNL     1       6.562  14.278  23.011  0.00  0.00    +0.000 A 
ATOM     15 CL   UNL     1       6.654  13.887  24.698  0.00  0.00    +0.000 Cl
ATOM     16  C   UNL     1       5.297  14.643  22.534  0.00  0.00    +0.000 A 
ATOM     17  C   UNL     1       5.124  14.988  21.200  0.00  0.00    +0.000 A 
ATOM     18  C   UNL     1       6.215  14.956  20.332  0.00  0.00    +0.000 A 
ATOM     19  C   UNL     1       7.492  14.577  20.789  0.00  0.00    +0.000 A 
ENDBRANCH   1  19
BRANCH   9  20
ATOM     20  O   UNL     1       9.102   9.880  18.783  0.00  0.00    +0.000 OA
BRANCH  20  21
ATOM     21  C   UNL     1       8.124   9.476  17.818  0.00  0.00    +0.000 C 
BRANCH  21  22
ATOM     22  C   UNL     1       7.922   7.958  17.856  0.00  0.00    +0.000 C 
ATOM     23  O   UNL     1       8.420   7.253  18.725  0.00  0.00    +0.000 OA
ATOM     24  N   UNL     1       7.113   7.479  16.849  0.00  0.00    +0.000 N 
ATOM     25  H   UNL     1       6.857   8.133  16.121  0.00  0.00    +0.000 HD
BRANCH  24  26
ATOM     26  C   UNL     1       6.829   6.077  16.660  0.00  0.00    +0.000 C 
BRANCH  26  27
ATOM     27  C   UNL     1       5.735   5.638  17.598  0.00  0.00    +0.000 A 
ATOM     28  C   UNL     1       4.473   6.284  17.605  0.00  0.00    +0.000 A 
ATOM     29  C   UNL     1       3.418   5.794  18.385  0.00  0.00    +0.000 A 
ATOM     30  C   UNL     1       3.649   4.654  19.122  0.00  0.00    +0.000 A 
ATOM     31  C   UNL     1       4.882   4.042  19.146  0.00  0.00    +0.000 A 
ATOM     32  C   UNL     1       5.942   4.511  18.407  0.00  0.00    +0.000 A 
ATOM     33  O   UNL     1       4.887   2.920  19.916  0.00  0.00    +0.000 OA
ATOM     34  C   UNL     1       3.469   2.754  20.108  0.00  0.00    +0.000 C 
ATOM     35  O   UNL     1       2.727   3.966  19.851  0.00  0.00    +0.000 OA
ENDBRANCH  26  27
ENDBRANCH  24  26
ENDBRANCH  21  22
ENDBRANCH  20  21
ENDBRANCH   9  20
TORSDOF 6
ENDMDL
MODEL 2
REMARK VINA RESULT:      -8.7      0.796      1.454
REMARK  Name = 
REMARK  9 active torsions:
REMARK  status: ('A' for Active; 'I' for Inactive)
REMARK    1  A    between atoms: C_1  and  C_2
REMARK    2  A    between atoms: C_8  and  N_9
REMARK    3  A    between atoms: C_11  and  C_12
REMARK    4  A    between atoms: C_14  and  C_15
REMARK    5  A    between atoms: C_17  and  O_18
REMARK    6  A    between atoms: O_18  and  C_19
REMARK    7  A    between atoms: C_19  and  C_20
REMARK    8  A    between atoms: N_22  and  C_23
REMARK    9  A    between atoms: C_23  and  C_24
REMARK                            x       y       z     vdW  Elec       q    Type
REMARK                         _______ _______ _______ _____ _____    ______ ____
ROOT
ATOM      1  N   UNL     1       9.040  14.080  20.625  0.00  0.00    +0.000 N 
ATOM      2  N   UNL     1       9.619  15.237  20.211  0.00  0.00    +0.000 NA
ATOM      3  C   UNL     1      10.343  14.909  19.138  0.00  0.00    +0.000 A 
ATOM      4  C   UNL     1      11.129  15.974  18.462  0.00  0.00    +0.000 C 
ATOM      5  C   UNL     1      10.225  13.540  18.804  0.00  0.00    +0.000 A 
ATOM      6  C   UNL     1      10.687  12.665  17.796  0.00  0.00    +0.000 A 
ATOM      7  C   UNL     1      11.558  13.061  16.637  0.00  0.00    +0.000 C 
ATOM      8  C   UNL     1      10.261  11.326  17.890  0.00  0.00    +0.000 A 
ATOM      9  C   UNL     1       9.437  10.932  18.933  0.00  0.00    +0.000 A 
ATOM     10  N   UNL     1       8.982  11.736  19.905  0.00  0.00    +0.000 NA
ATOM     11  C   UNL     1       9.400  13.016  19.802  0.00  0.00    +0.000 A 
ENDROOT
BRANCH   1  19
ATOM     12  C   UNL     1       6.189  14.919  20.473  0.00  0.00    +0.000 C 
ATOM     13  C   UNL     1       6.857  14.499  21.762  0.00  0.00    +0.000 A 
ATOM     14  C   UNL     1       6.133  14.489  22.972  0.00  0.00    +0.000 A 
ATOM     15 CL   UNL     1       4.485  15.016  23.080  0.00  0.00    +0.000 Cl
ATOM     16  C   UNL     1       6.712  14.036  24.164  0.00  0.00    +0.000 A 
ATOM     17  C   UNL     1       8.024  13.579  24.177  0.00  0.00    +0.000 A 
ATOM     18  C   UNL     1       8.768  13.586  22.998  0.00  0.00    +0.000 A 
ATOM     19  C   UNL     1       8.209  14.052  21.792  0.00  0.00    +0.000 A 
ENDBRANCH   1  19
BRANCH   9  20
ATOM     20  O   UNL     1       9.061   9.601  18.938  0.00  0.00    +0.000 OA
BRANCH  20  21
ATOM     21  C   UNL     1       8.187   9.265  17.855  0.00  0.00    +0.000 C 
BRANCH  21  22
ATOM     22  C   UNL     1       7.871   7.766  17.862  0.00  0.00    +0.000 C 
ATOM     23  O   UNL     1       8.315   7.007  18.713  0.00  0.00    +0.000 OA
ATOM     24  N   UNL     1       7.026   7.371  16.847  0.00  0.00    +0.000 N 
ATOM     25  H   UNL     1       6.819   8.059  16.134  0.00  0.00    +0.000 HD
BRANCH  24  26
ATOM     26  C   UNL     1       6.636   5.999  16.629  0.00  0.00    +0.000 C 
BRANCH  26  27
ATOM     27  C   UNL     1       5.492   5.635  17.539  0.00  0.00    +0.000 A 
ATOM     28  C   UNL     1       4.290   6.386  17.542  0.00  0.00    +0.000 A 
ATOM     29  C   UNL     1       3.183   5.971  18.292  0.00  0.00    +0.000 A 
ATOM     30  C   UNL     1       3.302   4.799  19.004  0.00  0.00    +0.000 A 
ATOM     31  C   UNL     1       4.478   4.083  19.033  0.00  0.00    +0.000 A 
ATOM     32  C   UNL     1       5.587   4.476  18.323  0.00  0.00    +0.000 A 
ATOM     33  O   UNL     1       4.373   2.947  19.775  0.00  0.00    +0.000 OA
ATOM     34  C   UNL     1       2.943   2.898  19.941  0.00  0.00    +0.000 C 
ATOM     35  O   UNL     1       2.312   4.175  19.702  0.00  0.00    +0.000 OA
ENDBRANCH  26  27
ENDBRANCH  24  26
ENDBRANCH  21  22
ENDBRANCH  20  21
ENDBRANCH   9  20
TORSDOF 6
ENDMDL
MODEL 3
REMARK VINA RESULT:      -8.6      7.239      9.630
REMARK  Name = 
REMARK  9 active torsions:
REMARK  status: ('A' for Active; 'I' for Inactive)
REMARK    1  A    between atoms: C_1  and  C_2
REMARK    2  A    between atoms: C_8  and  N_9
REMARK    3  A    between atoms: C_11  and  C_12
REMARK    4  A    between atoms: C_14  and  C_15
REMARK    5  A    between atoms: C_17  and  O_18
REMARK    6  A    between atoms: O_18  and  C_19
REMARK    7  A    between atoms: C_19  and  C_20
REMARK    8  A    between atoms: N_22  and  C_23
REMARK    9  A    between atoms: C_23  and  C_24
REMARK                            x       y       z     vdW  Elec       q    Type
REMARK                         _______ _______ _______ _____ _____    ______ ____
ROOT
ATOM      1  N   UNL     1      -3.493  12.598  20.410  0.00  0.00    +0.000 N 
ATOM      2  N   UNL     1      -4.587  12.567  19.605  0.00  0.00    +0.000 NA
ATOM      3  C   UNL     1      -4.208  11.895  18.514  0.00  0.00    +0.000 A 
ATOM      4  C   UNL     1      -5.193  11.713  17.416  0.00  0.00    +0.000 C 
ATOM      5  C   UNL     1      -2.871  11.440  18.597  0.00  0.00    +0.000 A 
ATOM      6  C   UNL     1      -1.977  10.672  17.820  0.00  0.00    +0.000 A 
ATOM      7  C   UNL     1      -2.302  10.042  16.494  0.00  0.00    +0.000 C 
ATOM      8  C   UNL     1      -0.695  10.469  18.364  0.00  0.00    +0.000 A 
ATOM      9  C   UNL     1      -0.369  11.014  19.596  0.00  0.00    +0.000 A 
ATOM     10  N   UNL     1      -1.193  11.749  20.358  0.00  0.00    +0.000 NA
ATOM     11  C   UNL     1      -2.419  11.936  19.822  0.00  0.00    +0.000 A 
ENDROOT
BRANCH   1  19
ATOM     12  C   UNL     1      -2.305  15.311  20.697  0.00  0.00    +0.000 C 
ATOM     13  C   UNL     1      -2.922  14.555  21.850  0.00  0.00    +0.000 A 
ATOM     14  C   UNL     1      -2.957  15.124  23.141  0.00  0.00    +0.000 A 
ATOM     15 CL   UNL     1      -2.247  16.663  23.504  0.00  0.00    +0.000 Cl
ATOM     16  C   UNL     1      -3.585  14.470  24.209  0.00  0.00    +0.000 A 
ATOM     17  C   UNL     1      -4.197  13.239  24.014  0.00  0.00    +0.000 A 
ATOM     18  C   UNL     1      -4.169  12.647  22.752  0.00  0.00    +0.000 A 
ATOM     19  C   UNL     1      -3.529  13.280  21.670  0.00  0.00    +0.000 A 
ENDBRANCH   1  19
BRANCH   9  20
ATOM     20  O   UNL     1       0.909  10.754  20.056  0.00  0.00    +0.000 OA
BRANCH  20  21
ATOM     21  C   UNL     1       0.919  10.094  21.327  0.00  0.00    +0.000 C 
BRANCH  21  22
ATOM     22  C   UNL     1       0.751   8.581  21.150  0.00  0.00    +0.000 C 
ATOM     23  O   UNL     1      -0.258   7.987  21.508  0.00  0.00    +0.000 OA
ATOM     24  N   UNL     1       1.820   7.972  20.530  0.00  0.00    +0.000 N 
ATOM     25  H   UNL     1       2.647   8.539  20.387  0.00  0.00    +0.000 HD
BRANCH  24  26
ATOM     26  C   UNL     1       1.903   6.549  20.307  0.00  0.00    +0.000 C 
BRANCH  26  27
ATOM     27  C   UNL     1       2.999   6.241  19.320  0.00  0.00    +0.000 A 
ATOM     28  C   UNL     1       3.131   6.979  18.118  0.00  0.00    +0.000 A 
ATOM     29  C   UNL     1       4.224   6.779  17.266  0.00  0.00    +0.000 A 
ATOM     30  C   UNL     1       5.170   5.857  17.653  0.00  0.00    +0.000 A 
ATOM     31  C   UNL     1       5.030   5.111  18.803  0.00  0.00    +0.000 A 
ATOM     32  C   UNL     1       3.959   5.272  19.649  0.00  0.00    +0.000 A 
ATOM     33  O   UNL     1       6.087   4.279  19.011  0.00  0.00    +0.000 OA
ATOM     34  C   UNL     1       7.007   4.811  18.039  0.00  0.00    +0.000 C 
ATOM     35  O   UNL     1       6.350   5.599  17.023  0.00  0.00    +0.000 OA
ENDBRANCH  26  27
ENDBRANCH  24  26
ENDBRANCH  21  22
ENDBRANCH  20  21
ENDBRANCH   9  20
TORSDOF 6
ENDMDL
MODEL 4
REMARK VINA RESULT:      -8.6      3.687      9.560
REMARK  Name = 
REMARK  9 active torsions:
REMARK  status: ('A' for Active; 'I' for Inactive)
REMARK    1  A    between atoms: C_1  and  C_2
REMARK    2  A    between atoms: C_8  and  N_9
REMARK    3  A    between atoms: C_11  and  C_12
REMARK    4  A    between atoms: C_14  and  C_15
REMARK    5  A    between atoms: C_17  and  O_18
REMARK    6  A    between atoms: O_18  and  C_19
REMARK    7  A    between atoms: C_19  and  C_20
REMARK    8  A    between atoms: N_22  and  C_23
REMARK    9  A    between atoms: C_23  and  C_24
REMARK                            x       y       z     vdW  Elec       q    Type
REMARK                         _______ _______ _______ _____ _____    ______ ____
ROOT
ATOM      1  N   UNL     1       2.012   5.816  19.642  0.00  0.00    +0.000 N 
ATOM      2  N   UNL     1       1.032   4.901  19.427  0.00  0.00    +0.000 NA
ATOM      3  C   UNL     1       1.664   3.766  19.119  0.00  0.00    +0.000 A 
ATOM      4  C   UNL     1       0.849   2.565  18.799  0.00  0.00    +0.000 C 
ATOM      5  C   UNL     1       3.071   3.903  19.160  0.00  0.00    +0.000 A 
ATOM      6  C   UNL     1       4.208   3.082  18.990  0.00  0.00    +0.000 A 
ATOM      7  C   UNL     1       4.177   1.613  18.680  0.00  0.00    +0.000 C 
ATOM      8  C   UNL     1       5.458   3.707  19.159  0.00  0.00    +0.000 A 
ATOM      9  C   UNL     1       5.523   5.057  19.469  0.00  0.00    +0.000 A 
ATOM     10  N   UNL     1       4.465   5.863  19.636  0.00  0.00    +0.000 NA
ATOM     11  C   UNL     1       3.272   5.250  19.470  0.00  0.00    +0.000 A 
ENDROOT
BRANCH   1  19
ATOM     12  C   UNL     1       2.264   7.959  17.592  0.00  0.00    +0.000 C 
ATOM     13  C   UNL     1       1.853   8.229  19.021  0.00  0.00    +0.000 A 
ATOM     14  C   UNL     1       1.566   9.543  19.446  0.00  0.00    +0.000 A 
ATOM     15 CL   UNL     1       1.731  10.919  18.405  0.00  0.00    +0.000 Cl
ATOM     16  C   UNL     1       1.115   9.806  20.745  0.00  0.00    +0.000 A 
ATOM     17  C   UNL     1       0.936   8.767  21.649  0.00  0.00    +0.000 A 
ATOM     18  C   UNL     1       1.222   7.459  21.261  0.00  0.00    +0.000 A 
ATOM     19  C   UNL     1       1.690   7.175  19.964  0.00  0.00    +0.000 A 
ENDBRANCH   1  19
BRANCH   9  20
ATOM     20  O   UNL     1       6.792   5.583  19.626  0.00  0.00    +0.000 OA
BRANCH  20  21
ATOM     21  C   UNL     1       7.550   5.581  18.410  0.00  0.00    +0.000 C 
BRANCH  21  22
ATOM     22  C   UNL     1       7.312   6.875  17.625  0.00  0.00    +0.000 C 
ATOM     23  O   UNL     1       6.510   6.943  16.702  0.00  0.00    +0.000 OA
ATOM     24  N   UNL     1       8.058   7.943  18.073  0.00  0.00    +0.000 N 
ATOM     25  H   UNL     1       8.773   7.742  18.760  0.00  0.00    +0.000 HD
BRANCH  24  26
ATOM     26  C   UNL     1       8.035   9.244  17.450  0.00  0.00    +0.000 C 
BRANCH  26  27
ATOM     27  C   UNL     1       8.676  10.263  18.355  0.00  0.00    +0.000 A 
ATOM     28  C   UNL     1       9.148   9.906  19.642  0.00  0.00    +0.000 A 
ATOM     29  C   UNL     1       9.859  10.822  20.429  0.00  0.00    +0.000 A 
ATOM     30  C   UNL     1      10.096  12.068  19.894  0.00  0.00    +0.000 A 
ATOM     31  C   UNL     1       9.610  12.433  18.658  0.00  0.00    +0.000 A 
ATOM     32  C   UNL     1       8.893  11.562  17.872  0.00  0.00    +0.000 A 
ATOM     33  O   UNL     1       9.979  13.695  18.310  0.00  0.00    +0.000 OA
ATOM     34  C   UNL     1      10.977  13.942  19.319  0.00  0.00    +0.000 C 
ATOM     35  O   UNL     1      10.855  13.053  20.451  0.00  0.00    +0.000 OA
ENDBRANCH  26  27
ENDBRANCH  24  26
ENDBRANCH  21  22
ENDBRANCH  20  21
ENDBRANCH   9  20
TORSDOF 6
ENDMDL
MODEL 5
REMARK VINA RESULT:      -8.6      3.351      9.524
REMARK  Name = 
REMARK  9 active torsions:
REMARK  status: ('A' for Active; 'I' for Inactive)
REMARK    1  A    between atoms: C_1  and  C_2
REMARK    2  A    between atoms: C_8  and  N_9
REMARK    3  A    between atoms: C_11  and  C_12
REMARK    4  A    between atoms: C_14  and  C_15
REMARK    5  A    between atoms: C_17  and  O_18
REMARK    6  A    between atoms: O_18  and  C_19
REMARK    7  A    between atoms: C_19  and  C_20
REMARK    8  A    between atoms: N_22  and  C_23
REMARK    9  A    between atoms: C_23  and  C_24
REMARK                            x       y       z     vdW  Elec       q    Type
REMARK                         _______ _______ _______ _____ _____    ______ ____
ROOT
ATOM      1  N   UNL     1       2.300   6.300  19.743  0.00  0.00    +0.000 N 
ATOM      2  N   UNL     1       1.443   5.543  20.476  0.00  0.00    +0.000 NA
ATOM      3  C   UNL     1       2.024   4.345  20.580  0.00  0.00    +0.000 A 
ATOM      4  C   UNL     1       1.307   3.272  21.316  0.00  0.00    +0.000 C 
ATOM      5  C   UNL     1       3.290   4.302  19.950  0.00  0.00    +0.000 A 
ATOM      6  C   UNL     1       4.343   3.377  19.781  0.00  0.00    +0.000 A 
ATOM      7  C   UNL     1       4.370   1.982  20.338  0.00  0.00    +0.000 C 
ATOM      8  C   UNL     1       5.460   3.832  19.054  0.00  0.00    +0.000 A 
ATOM      9  C   UNL     1       5.480   5.121  18.546  0.00  0.00    +0.000 A 
ATOM     10  N   UNL     1       4.497   6.023  18.688  0.00  0.00    +0.000 NA
ATOM     11  C   UNL     1       3.432   5.572  19.387  0.00  0.00    +0.000 A 
ENDROOT
BRANCH   1  19
ATOM     12  C   UNL     1       1.246   8.170  21.803  0.00  0.00    +0.000 C 
ATOM     13  C   UNL     1       1.419   8.554  20.352  0.00  0.00    +0.000 A 
ATOM     14  C   UNL     1       1.077   9.850  19.910  0.00  0.00    +0.000 A 
ATOM     15 CL   UNL     1       0.382  11.042  20.959  0.00  0.00    +0.000 Cl
ATOM     16  C   UNL     1       1.295  10.249  18.586  0.00  0.00    +0.000 A 
ATOM     17  C   UNL     1       1.862   9.369  17.673  0.00  0.00    +0.000 A 
ATOM     18  C   UNL     1       2.201   8.079  18.078  0.00  0.00    +0.000 A 
ATOM     19  C   UNL     1       1.975   7.653  19.401  0.00  0.00    +0.000 A 
ENDBRANCH   1  19
BRANCH   9  20
ATOM     20  O   UNL     1       6.621   5.484  17.854  0.00  0.00    +0.000 OA
BRANCH  20  21
ATOM     21  C   UNL     1       7.428   6.428  18.568  0.00  0.00    +0.000 C 
BRANCH  21  22
ATOM     22  C   UNL     1       7.880   7.561  17.640  0.00  0.00    +0.000 C 
ATOM     23  O   UNL     1       7.968   7.418  16.427  0.00  0.00    +0.000 OA
ATOM     24  N   UNL     1       8.145   8.744  18.294  0.00  0.00    +0.000 N 
ATOM     25  H   UNL     1       8.155   8.712  19.306  0.00  0.00    +0.000 HD
BRANCH  24  26
ATOM     26  C   UNL     1       8.634   9.926  17.628  0.00  0.00    +0.000 C 
BRANCH  26  27
ATOM     27  C   UNL     1       9.039  10.963  18.644  0.00  0.00    +0.000 A 
ATOM     28  C   UNL     1       9.487  10.588  19.935  0.00  0.00    +0.000 A 
ATOM     29  C   UNL     1       9.984  11.543  20.831  0.00  0.00    +0.000 A 
ATOM     30  C   UNL     1      10.040  12.849  20.399  0.00  0.00    +0.000 A 
ATOM     31  C   UNL     1       9.575  13.225  19.159  0.00  0.00    +0.000 A 
ATOM     32  C   UNL     1       9.064  12.314  18.266  0.00  0.00    +0.000 A 
ATOM     33  O   UNL     1       9.746  14.554  18.924  0.00  0.00    +0.000 OA
ATOM     34  C   UNL     1      10.625  14.881  20.017  0.00  0.00    +0.000 C 
ATOM     35  O   UNL     1      10.587  13.898  21.075  0.00  0.00    +0.000 OA
ENDBRANCH  26  27
ENDBRANCH  24  26
ENDBRANCH  21  22
ENDBRANCH  20  21
ENDBRANCH   9  20
TORSDOF 6
ENDMDL
MODEL 6
REMARK VINA RESULT:      -8.6      3.245      8.823
REMARK  Name = 
REMARK  9 active torsions:
REMARK  status: ('A' for Active; 'I' for Inactive)
REMARK    1  A    between atoms: C_1  and  C_2
REMARK    2  A    between atoms: C_8  and  N_9
REMARK    3  A    between atoms: C_11  and  C_12
REMARK    4  A    between atoms: C_14  and  C_15
REMARK    5  A    between atoms: C_17  and  O_18
REMARK    6  A    between atoms: O_18  and  C_19
REMARK    7  A    between atoms: C_19  and  C_20
REMARK    8  A    between atoms: N_22  and  C_23
REMARK    9  A    between atoms: C_23  and  C_24
REMARK                            x       y       z     vdW  Elec       q    Type
REMARK                         _______ _______ _______ _____ _____    ______ ____
ROOT
ATOM      1  N   UNL     1       2.931   6.525  18.063  0.00  0.00    +0.000 N 
ATOM      2  N   UNL     1       2.267   5.345  17.963  0.00  0.00    +0.000 NA
ATOM      3  C   UNL     1       3.118   4.506  17.366  0.00  0.00    +0.000 A 
ATOM      4  C   UNL     1       2.666   3.118  17.087  0.00  0.00    +0.000 C 
ATOM      5  C   UNL     1       4.369   5.107  17.097  0.00  0.00    +0.000 A 
ATOM      6  C   UNL     1       5.618   4.727  16.559  0.00  0.00    +0.000 A 
ATOM      7  C   UNL     1       5.969   3.350  16.070  0.00  0.00    +0.000 C 
ATOM      8  C   UNL     1       6.608   5.728  16.513  0.00  0.00    +0.000 A 
ATOM      9  C   UNL     1       6.326   7.003  16.978  0.00  0.00    +0.000 A 
ATOM     10  N   UNL     1       5.152   7.397  17.493  0.00  0.00    +0.000 NA
ATOM     11  C   UNL     1       4.213   6.426  17.529  0.00  0.00    +0.000 A 
ENDROOT
BRANCH   1  19
ATOM     12  C   UNL     1       2.018   6.510  20.896  0.00  0.00    +0.000 C 
ATOM     13  C   UNL     1       1.801   7.681  19.965  0.00  0.00    +0.000 A 
ATOM     14  C   UNL     1       1.140   8.842  20.419  0.00  0.00    +0.000 A 
ATOM     15 CL   UNL     1       0.478   8.977  22.016  0.00  0.00    +0.000 Cl
ATOM     16  C   UNL     1       0.990   9.965  19.596  0.00  0.00    +0.000 A 
ATOM     17  C   UNL     1       1.500   9.959  18.304  0.00  0.00    +0.000 A 
ATOM     18  C   UNL     1       2.150   8.823  17.824  0.00  0.00    +0.000 A 
ATOM     19  C   UNL     1       2.297   7.678  18.631  0.00  0.00    +0.000 A 
ENDBRANCH   1  19
BRANCH   9  20
ATOM     20  O   UNL     1       7.360   7.918  16.904  0.00  0.00    +0.000 OA
BRANCH  20  21
ATOM     21  C   UNL     1       8.010   8.127  18.164  0.00  0.00    +0.000 C 
BRANCH  21  22
ATOM     22  C   UNL     1       8.510   9.571  18.280  0.00  0.00    +0.000 C 
ATOM     23  O   UNL     1       8.111  10.464  17.542  0.00  0.00    +0.000 OA
ATOM     24  N   UNL     1       9.416   9.765  19.299  0.00  0.00    +0.000 N 
ATOM     25  H   UNL     1       9.763   8.936  19.764  0.00  0.00    +0.000 HD
BRANCH  24  26
ATOM     26  C   UNL     1      10.058  11.031  19.559  0.00  0.00    +0.000 C 
BRANCH  26  27
ATOM     27  C   UNL     1       9.311  11.780  20.632  0.00  0.00    +0.000 A 
ATOM     28  C   UNL     1       8.910  13.126  20.442  0.00  0.00    +0.000 A 
ATOM     29  C   UNL     1       8.106  13.778  21.384  0.00  0.00    +0.000 A 
ATOM     30  C   UNL     1       7.705  13.055  22.485  0.00  0.00    +0.000 A 
ATOM     31  C   UNL     1       8.119  11.758  22.693  0.00  0.00    +0.000 A 
ATOM     32  C   UNL     1       8.924  11.099  21.795  0.00  0.00    +0.000 A 
ATOM     33  O   UNL     1       7.588  11.222  23.825  0.00  0.00    +0.000 OA
ATOM     34  C   UNL     1       6.586  12.214  24.116  0.00  0.00    +0.000 C 
ATOM     35  O   UNL     1       6.839  13.471  23.451  0.00  0.00    +0.000 OA
ENDBRANCH  26  27
ENDBRANCH  24  26
ENDBRANCH  21  22
ENDBRANCH  20  21
ENDBRANCH   9  20
TORSDOF 6
ENDMDL
MODEL 7
REMARK VINA RESULT:      -8.6      9.487     12.454
REMARK  Name = 
REMARK  9 active torsions:
REMARK  status: ('A' for Active; 'I' for Inactive)
REMARK    1  A    between atoms: C_1  and  C_2
REMARK    2  A    between atoms: C_8  and  N_9
REMARK    3  A    between atoms: C_11  and  C_12
REMARK    4  A    between atoms: C_14  and  C_15
REMARK    5  A    between atoms: C_17  and  O_18
REMARK    6  A    between atoms: O_18  and  C_19
REMARK    7  A    between atoms: C_19  and  C_20
REMARK    8  A    between atoms: N_22  and  C_23
REMARK    9  A    between atoms: C_23  and  C_24
REMARK                            x       y       z     vdW  Elec       q    Type
REMARK                         _______ _______ _______ _____ _____    ______ ____
ROOT
ATOM      1  N   UNL     1      -0.969  12.611  22.706  0.00  0.00    +0.000 N 
ATOM      2  N   UNL     1      -0.106  13.660  22.728  0.00  0.00    +0.000 NA
ATOM      3  C   UNL     1      -0.814  14.696  23.188  0.00  0.00    +0.000 A 
ATOM      4  C   UNL     1      -0.144  16.017  23.304  0.00  0.00    +0.000 C 
ATOM      5  C   UNL     1      -2.145  14.339  23.511  0.00  0.00    +0.000 A 
ATOM      6  C   UNL     1      -3.289  14.957  24.059  0.00  0.00    +0.000 A 
ATOM      7  C   UNL     1      -3.369  16.387  24.514  0.00  0.00    +0.000 C 
ATOM      8  C   UNL     1      -4.427  14.140  24.209  0.00  0.00    +0.000 A 
ATOM      9  C   UNL     1      -4.381  12.810  23.823  0.00  0.00    +0.000 A 
ATOM     10  N   UNL     1      -3.312  12.193  23.298  0.00  0.00    +0.000 NA
ATOM     11  C   UNL     1      -2.229  12.989  23.159  0.00  0.00    +0.000 A 
ENDROOT
BRANCH   1  19
ATOM     12  C   UNL     1       0.366  12.345  20.060  0.00  0.00    +0.000 C 
ATOM     13  C   UNL     1       0.041  11.162  20.942  0.00  0.00    +0.000 A 
ATOM     14  C   UNL     1       0.368   9.853  20.532  0.00  0.00    +0.000 A 
ATOM     15 CL   UNL     1       1.082   9.507  18.990  0.00  0.00    +0.000 Cl
ATOM     16  C   UNL     1       0.140   8.750  21.364  0.00  0.00    +0.000 A 
ATOM     17  C   UNL     1      -0.414   8.926  22.625  0.00  0.00    +0.000 A 
ATOM     18  C   UNL     1      -0.757  10.207  23.055  0.00  0.00    +0.000 A 
ATOM     19  C   UNL     1      -0.550  11.328  22.227  0.00  0.00    +0.000 A 
ENDBRANCH   1  19
BRANCH   9  20
ATOM     20  O   UNL     1      -5.541  12.082  24.016  0.00  0.00    +0.000 OA
BRANCH  20  21
ATOM     21  C   UNL     1      -6.702  12.735  23.491  0.00  0.00    +0.000 C 
BRANCH  21  22
ATOM     22  C   UNL     1      -6.974  12.277  22.054  0.00  0.00    +0.000 C 
ATOM     23  O   UNL     1      -7.459  11.182  21.796  0.00  0.00    +0.000 OA
ATOM     24  N   UNL     1      -6.652  13.217  21.100  0.00  0.00    +0.000 N 
ATOM     25  H   UNL     1      -6.148  14.035  21.420  0.00  0.00    +0.000 HD
BRANCH  24  26
ATOM     26  C   UNL     1      -6.775  12.983  19.682  0.00  0.00    +0.000 C 
BRANCH  26  27
ATOM     27  C   UNL     1      -5.448  12.555  19.110  0.00  0.00    +0.000 A 
ATOM     28  C   UNL     1      -4.259  12.639  19.876  0.00  0.00    +0.000 A 
ATOM     29  C   UNL     1      -3.051  12.122  19.391  0.00  0.00    +0.000 A 
ATOM     30  C   UNL     1      -3.071  11.514  18.156  0.00  0.00    +0.000 A 
ATOM     31  C   UNL     1      -4.216  11.460  17.392  0.00  0.00    +0.000 A 
ATOM     32  C   UNL     1      -5.411  11.976  17.833  0.00  0.00    +0.000 A 
ATOM     33  O   UNL     1      -4.024  10.795  16.220  0.00  0.00    +0.000 OA
ATOM     34  C   UNL     1      -2.740  10.200  16.488  0.00  0.00    +0.000 C 
ATOM     35  O   UNL     1      -2.035  10.859  17.563  0.00  0.00    +0.000 OA
ENDBRANCH  26  27
ENDBRANCH  24  26
ENDBRANCH  21  22
ENDBRANCH  20  21
ENDBRANCH   9  20
TORSDOF 6
ENDMDL
MODEL 8
REMARK VINA RESULT:      -8.6      3.313      9.298
REMARK  Name = 
REMARK  9 active torsions:
REMARK  status: ('A' for Active; 'I' for Inactive)
REMARK    1  A    between atoms: C_1  and  C_2
REMARK    2  A    between atoms: C_8  and  N_9
REMARK    3  A    between atoms: C_11  and  C_12
REMARK    4  A    between atoms: C_14  and  C_15
REMARK    5  A    between atoms: C_17  and  O_18
REMARK    6  A    between atoms: O_18  and  C_19
REMARK    7  A    between atoms: C_19  and  C_20
REMARK    8  A    between atoms: N_22  and  C_23
REMARK    9  A    between atoms: C_23  and  C_24
REMARK                            x       y       z     vdW  Elec       q    Type
REMARK                         _______ _______ _______ _____ _____    ______ ____
ROOT
ATOM      1  N   UNL     1       2.305   6.629  19.686  0.00  0.00    +0.000 N 
ATOM      2  N   UNL     1       1.674   5.884  20.630  0.00  0.00    +0.000 NA
ATOM      3  C   UNL     1       2.285   4.696  20.615  0.00  0.00    +0.000 A 
ATOM      4  C   UNL     1       1.796   3.636  21.534  0.00  0.00    +0.000 C 
ATOM      5  C   UNL     1       3.353   4.650  19.688  0.00  0.00    +0.000 A 
ATOM      6  C   UNL     1       4.346   3.733  19.282  0.00  0.00    +0.000 A 
ATOM      7  C   UNL     1       4.538   2.354  19.849  0.00  0.00    +0.000 C 
ATOM      8  C   UNL     1       5.236   4.179  18.286  0.00  0.00    +0.000 A 
ATOM      9  C   UNL     1       5.104   5.453  17.758  0.00  0.00    +0.000 A 
ATOM     10  N   UNL     1       4.172   6.347  18.120  0.00  0.00    +0.000 NA
ATOM     11  C   UNL     1       3.325   5.905  19.075  0.00  0.00    +0.000 A 
ENDROOT
BRANCH   1  19
ATOM     12  C   UNL     1       1.112   8.321  21.824  0.00  0.00    +0.000 C 
ATOM     13  C   UNL     1       1.257   8.781  20.392  0.00  0.00    +0.000 A 
ATOM     14  C   UNL     1       0.819  10.066  20.007  0.00  0.00    +0.000 A 
ATOM     15 CL   UNL     1       0.035  11.155  21.104  0.00  0.00    +0.000 Cl
ATOM     16  C   UNL     1       1.008  10.539  18.702  0.00  0.00    +0.000 A 
ATOM     17  C   UNL     1       1.641   9.746  17.753  0.00  0.00    +0.000 A 
ATOM     18  C   UNL     1       2.075   8.468  18.102  0.00  0.00    +0.000 A 
ATOM     19  C   UNL     1       1.881   7.968  19.404  0.00  0.00    +0.000 A 
ENDBRANCH   1  19
BRANCH   9  20
ATOM     20  O   UNL     1       6.028   5.809  16.793  0.00  0.00    +0.000 OA
BRANCH  20  21
ATOM     21  C   UNL     1       6.472   7.165  16.920  0.00  0.00    +0.000 C 
BRANCH  21  22
ATOM     22  C   UNL     1       7.615   7.265  17.937  0.00  0.00    +0.000 C 
ATOM     23  O   UNL     1       8.100   6.278  18.475  0.00  0.00    +0.000 OA
ATOM     24  N   UNL     1       8.052   8.552  18.157  0.00  0.00    +0.000 N 
ATOM     25  H   UNL     1       7.499   9.297  17.750  0.00  0.00    +0.000 HD
BRANCH  24  26
ATOM     26  C   UNL     1       9.081   8.889  19.111  0.00  0.00    +0.000 C 
BRANCH  26  27
ATOM     27  C   UNL     1       9.205  10.385  19.234  0.00  0.00    +0.000 A 
ATOM     28  C   UNL     1       9.340  11.008  20.500  0.00  0.00    +0.000 A 
ATOM     29  C   UNL     1       9.584  12.383  20.604  0.00  0.00    +0.000 A 
ATOM     30  C   UNL     1       9.708  13.096  19.433  0.00  0.00    +0.000 A 
ATOM     31  C   UNL     1       9.544  12.503  18.201  0.00  0.00    +0.000 A 
ATOM     32  C   UNL     1       9.284  11.160  18.068  0.00  0.00    +0.000 A 
ATOM     33  O   UNL     1       9.733  13.379  17.177  0.00  0.00    +0.000 OA
ATOM     34  C   UNL     1      10.317  14.477  17.904  0.00  0.00    +0.000 C 
ATOM     35  O   UNL     1      10.051  14.410  19.322  0.00  0.00    +0.000 OA
ENDBRANCH  26  27
ENDBRANCH  24  26
ENDBRANCH  21  22
ENDBRANCH  20  21
ENDBRANCH   9  20
TORSDOF 6
ENDMDL
MODEL 9
REMARK VINA RESULT:      -8.5      6.997      9.483
REMARK  Name = 
REMARK  9 active torsions:
REMARK  status: ('A' for Active; 'I' for Inactive)
REMARK    1  A    between atoms: C_1  and  C_2
REMARK    2  A    between atoms: C_8  and  N_9
REMARK    3  A    between atoms: C_11  and  C_12
REMARK    4  A    between atoms: C_14  and  C_15
REMARK    5  A    between atoms: C_17  and  O_18
REMARK    6  A    between atoms: O_18  and  C_19
REMARK    7  A    between atoms: C_19  and  C_20
REMARK    8  A    between atoms: N_22  and  C_23
REMARK    9  A    between atoms: C_23  and  C_24
REMARK                            x       y       z     vdW  Elec       q    Type
REMARK                         _______ _______ _______ _____ _____    ______ ____
ROOT
ATOM      1  N   UNL     1      -3.131  13.056  20.222  0.00  0.00    +0.000 N 
ATOM      2  N   UNL     1      -4.405  12.929  19.769  0.00  0.00    +0.000 NA
ATOM      3  C   UNL     1      -4.356  11.985  18.825  0.00  0.00    +0.000 A 
ATOM      4  C   UNL     1      -5.611  11.633  18.111  0.00  0.00    +0.000 C 
ATOM      5  C   UNL     1      -3.057  11.448  18.665  0.00  0.00    +0.000 A 
ATOM      6  C   UNL     1      -2.429  10.441  17.900  0.00  0.00    +0.000 A 
ATOM      7  C   UNL     1      -3.120   9.544  16.913  0.00  0.00    +0.000 C 
ATOM      8  C   UNL     1      -1.050  10.263  18.119  0.00  0.00    +0.000 A 
ATOM      9  C   UNL     1      -0.385  11.057  19.041  0.00  0.00    +0.000 A 
ATOM     10  N   UNL     1      -0.951  12.021  19.781  0.00  0.00    +0.000 NA
ATOM     11  C   UNL     1      -2.274  12.182  19.559  0.00  0.00    +0.000 A 
ENDROOT
BRANCH   1  19
ATOM     12  C   UNL     1      -3.378  12.371  23.107  0.00  0.00    +0.000 C 
ATOM     13  C   UNL     1      -2.963  13.739  22.617  0.00  0.00    +0.000 A 
ATOM     14  C   UNL     1      -2.670  14.769  23.535  0.00  0.00    +0.000 A 
ATOM     15 CL   UNL     1      -2.832  14.567  25.249  0.00  0.00    +0.000 Cl
ATOM     16  C   UNL     1      -2.216  16.022  23.105  0.00  0.00    +0.000 A 
ATOM     17  C   UNL     1      -2.039  16.276  21.751  0.00  0.00    +0.000 A 
ATOM     18  C   UNL     1      -2.331  15.281  20.819  0.00  0.00    +0.000 A 
ATOM     19  C   UNL     1      -2.803  14.020  21.230  0.00  0.00    +0.000 A 
ENDBRANCH   1  19
BRANCH   9  20
ATOM     20  O   UNL     1       0.966  10.804  19.197  0.00  0.00    +0.000 OA
BRANCH  20  21
ATOM     21  C   UNL     1       1.443   9.771  18.327  0.00  0.00    +0.000 C 
BRANCH  21  22
ATOM     22  C   UNL     1       1.825   8.523  19.129  0.00  0.00    +0.000 C 
ATOM     23  O   UNL     1       1.524   8.385  20.308  0.00  0.00    +0.000 OA
ATOM     24  N   UNL     1       2.504   7.576  18.395  0.00  0.00    +0.000 N 
ATOM     25  H   UNL     1       2.802   7.848  17.466  0.00  0.00    +0.000 HD
BRANCH  24  26
ATOM     26  C   UNL     1       3.007   6.346  18.957  0.00  0.00    +0.000 C 
BRANCH  26  27
ATOM     27  C   UNL     1       4.317   5.978  18.310  0.00  0.00    +0.000 A 
ATOM     28  C   UNL     1       5.323   5.290  19.033  0.00  0.00    +0.000 A 
ATOM     29  C   UNL     1       6.485   4.836  18.396  0.00  0.00    +0.000 A 
ATOM     30  C   UNL     1       6.598   5.065  17.043  0.00  0.00    +0.000 A 
ATOM     31  C   UNL     1       5.640   5.764  16.342  0.00  0.00    +0.000 A 
ATOM     32  C   UNL     1       4.499   6.238  16.944  0.00  0.00    +0.000 A 
ATOM     33  O   UNL     1       5.934   5.855  15.017  0.00  0.00    +0.000 OA
ATOM     34  C   UNL     1       7.004   4.894  14.940  0.00  0.00    +0.000 C 
ATOM     35  O   UNL     1       7.591   4.610  16.229  0.00  0.00    +0.000 OA
ENDBRANCH  26  27
ENDBRANCH  24  26
ENDBRANCH  21  22
ENDBRANCH  20  21
ENDBRANCH   9  20
TORSDOF 6
ENDMDL
