MODEL 1
REMARK VINA RESULT:      -8.9      0.000      0.000
REMARK  Name = 
REMARK  7 active torsions:
REMARK  status: ('A' for Active; 'I' for Inactive)
REMARK    1  A    between atoms: C_1  and  C_2
REMARK    2  A    between atoms: C_5  and  C_6
REMARK    3  A    between atoms: C_10  and  N_11
REMARK    4  A    between atoms: N_16  and  C_17
REMARK    5  A    between atoms: C_22  and  O_23
REMARK    6  A    between atoms: O_23  and  C_24
REMARK    7  A    between atoms: C_24  and  C_25
REMARK                            x       y       z     vdW  Elec       q    Type
REMARK                         _______ _______ _______ _____ _____    ______ ____
ROOT
ATOM      1  C   UNL     1       2.853   2.247  19.991  0.00  0.00    +0.000 C 
ATOM      2  C   UNL     1       2.935   3.725  19.771  0.00  0.00    +0.000 A 
ATOM      3  C   UNL     1       3.501   4.290  18.690  0.00  0.00    +0.000 A 
ATOM      4  C   UNL     1       3.448   5.747  18.447  0.00  0.00    +0.000 A 
ATOM      5  C   UNL     1       4.102   6.415  17.398  0.00  0.00    +0.000 A 
ATOM      6  C   UNL     1       3.709   7.754  17.219  0.00  0.00    +0.000 A 
ATOM      7  N   UNL     1       2.792   8.443  17.954  0.00  0.00    +0.000 NA
ATOM      8  C   UNL     1       2.261   7.816  19.011  0.00  0.00    +0.000 A 
ATOM      9  N   UNL     1       1.363   8.481  19.874  0.00  0.00    +0.000 N 
ATOM     10  C   UNL     1       2.597   6.482  19.305  0.00  0.00    +0.000 A 
ATOM     11  N   UNL     1       2.086   5.883  20.461  0.00  0.00    +0.000 N 
ATOM     12  C   UNL     1       2.276   4.580  20.802  0.00  0.00    +0.000 A 
ATOM     13  O   UNL     1       1.880   4.125  21.868  0.00  0.00    +0.000 OA
ATOM     14  H   UNL     1       1.898   8.711  20.707  0.00  0.00    +0.000 HD
ATOM     15  H   UNL     1       1.547   6.458  21.099  0.00  0.00    +0.000 HD
ENDROOT
BRANCH   9  16
ATOM     16  C   UNL     1       0.629   9.664  19.366  0.00  0.00    +0.000 C 
ATOM     17  C   UNL     1       1.530  10.903  19.538  0.00  0.00    +0.000 C 
ATOM     18  C   UNL     1       1.689  11.355  20.996  0.00  0.00    +0.000 C 
ATOM     19  N   UNL     1       0.500  11.319  21.841  0.00  0.00    +0.000 NA
ATOM     20  C   UNL     1      -0.398  10.187  21.587  0.00  0.00    +0.000 C 
ATOM     21  C   UNL     1      -0.708   9.966  20.092  0.00  0.00    +0.000 C 
ATOM     22  H   UNL     1       0.777  11.314  22.823  0.00  0.00    +0.000 HD
BRANCH  21  23
ATOM     23  O   UNL     1      -1.373  11.168  19.607  0.00  0.00    +0.000 OA
BRANCH  23  24
ATOM     24  C   UNL     1      -1.608  11.190  18.206  0.00  0.00    +0.000 C 
BRANCH  24  25
ATOM     25  C   UNL     1      -2.611  10.116  17.721  0.00  0.00    +0.000 C 
ATOM     26  C   UNL     1      -4.077  10.567  17.775  0.00  0.00    +0.000 C 
ATOM     27  C   UNL     1      -4.513  11.423  16.591  0.00  0.00    +0.000 C 
ATOM     28  C   UNL     1      -4.185  10.766  15.255  0.00  0.00    +0.000 C 
ATOM     29  C   UNL     1      -2.717  10.366  15.160  0.00  0.00    +0.000 C 
ATOM     30  C   UNL     1      -2.281   9.511  16.346  0.00  0.00    +0.000 C 
ENDBRANCH  24  25
ENDBRANCH  23  24
ENDBRANCH  21  23
ENDBRANCH   9  16
BRANCH   5  31
ATOM     31  C   UNL     1       5.180   5.840  16.544  0.00  0.00    +0.000 A 
ATOM     32  C   UNL     1       6.522   6.218  16.665  0.00  0.00    +0.000 A 
ATOM     33  N   UNL     1       7.533   5.798  15.863  0.00  0.00    +0.000 NA
ATOM     34  C   UNL     1       7.189   4.983  14.843  0.00  0.00    +0.000 A 
ATOM     35  C   UNL     1       5.907   4.494  14.621  0.00  0.00    +0.000 A 
ATOM     36  C   UNL     1       4.904   4.956  15.483  0.00  0.00    +0.000 A 
BRANCH  35  37
ATOM     37  N   UNL     1       5.566   3.811  13.448  0.00  0.00    +0.000 N 
ATOM     38  H   UNL     1       6.293   3.799  12.740  0.00  0.00    +0.000 HD
ATOM     39  H   UNL     1       5.148   2.896  13.592  0.00  0.00    +0.000 HD
ENDBRANCH  35  37
ENDBRANCH   5  31
TORSDOF 6
ENDMDL
MODEL 2
REMARK VINA RESULT:      -8.1      0.981      1.627
REMARK  Name = 
REMARK  7 active torsions:
REMARK  status: ('A' for Active; 'I' for Inactive)
REMARK    1  A    between atoms: C_1  and  C_2
REMARK    2  A    between atoms: C_5  and  C_6
REMARK    3  A    between atoms: C_10  and  N_11
REMARK    4  A    between atoms: N_16  and  C_17
REMARK    5  A    between atoms: C_22  and  O_23
REMARK    6  A    between atoms: O_23  and  C_24
REMARK    7  A    between atoms: C_24  and  C_25
REMARK                            x       y       z     vdW  Elec       q    Type
REMARK                         _______ _______ _______ _____ _____    ______ ____
ROOT
ATOM      1  C   UNL     1       3.111   2.308  20.128  0.00  0.00    +0.000 C 
ATOM      2  C   UNL     1       3.132   3.775  19.836  0.00  0.00    +0.000 A 
ATOM      3  C   UNL     1       3.654   4.306  18.716  0.00  0.00    +0.000 A 
ATOM      4  C   UNL     1       3.541   5.747  18.404  0.00  0.00    +0.000 A 
ATOM      5  C   UNL     1       4.147   6.386  17.309  0.00  0.00    +0.000 A 
ATOM      6  C   UNL     1       3.701   7.699  17.075  0.00  0.00    +0.000 A 
ATOM      7  N   UNL     1       2.775   8.391  17.798  0.00  0.00    +0.000 NA
ATOM      8  C   UNL     1       2.291   7.797  18.896  0.00  0.00    +0.000 A 
ATOM      9  N   UNL     1       1.388   8.471  19.747  0.00  0.00    +0.000 N 
ATOM     10  C   UNL     1       2.683   6.492  19.246  0.00  0.00    +0.000 A 
ATOM     11  N   UNL     1       2.219   5.932  20.441  0.00  0.00    +0.000 N 
ATOM     12  C   UNL     1       2.465   4.655  20.839  0.00  0.00    +0.000 A 
ATOM     13  O   UNL     1       2.111   4.240  21.936  0.00  0.00    +0.000 OA
ATOM     14  H   UNL     1       1.933   8.761  20.555  0.00  0.00    +0.000 HD
ATOM     15  H   UNL     1       1.674   6.518  21.063  0.00  0.00    +0.000 HD
ENDROOT
BRANCH   9  16
ATOM     16  C   UNL     1       0.600   9.601  19.201  0.00  0.00    +0.000 C 
ATOM     17  C   UNL     1       1.441  10.886  19.332  0.00  0.00    +0.000 C 
ATOM     18  C   UNL     1       1.575  11.393  20.775  0.00  0.00    +0.000 C 
ATOM     19  N   UNL     1       0.387  11.327  21.621  0.00  0.00    +0.000 NA
ATOM     20  C   UNL     1      -0.456  10.146  21.403  0.00  0.00    +0.000 C 
ATOM     21  C   UNL     1      -0.752   9.862  19.915  0.00  0.00    +0.000 C 
ATOM     22  H   UNL     1       0.662  11.367  22.602  0.00  0.00    +0.000 HD
BRANCH  21  23
ATOM     23  O   UNL     1      -1.472  11.014  19.391  0.00  0.00    +0.000 OA
BRANCH  23  24
ATOM     24  C   UNL     1      -2.481  10.700  18.441  0.00  0.00    +0.000 C 
BRANCH  24  25
ATOM     25  C   UNL     1      -3.455  11.868  18.154  0.00  0.00    +0.000 C 
ATOM     26  C   UNL     1      -4.714  11.450  17.380  0.00  0.00    +0.000 C 
ATOM     27  C   UNL     1      -5.805  10.831  18.247  0.00  0.00    +0.000 C 
ATOM     28  C   UNL     1      -6.157  11.709  19.443  0.00  0.00    +0.000 C 
ATOM     29  C   UNL     1      -4.925  12.083  20.258  0.00  0.00    +0.000 C 
ATOM     30  C   UNL     1      -3.832  12.701  19.391  0.00  0.00    +0.000 C 
ENDBRANCH  24  25
ENDBRANCH  23  24
ENDBRANCH  21  23
ENDBRANCH   9  16
BRANCH   5  31
ATOM     31  C   UNL     1       5.226   5.809  16.458  0.00  0.00    +0.000 A 
ATOM     32  C   UNL     1       6.568   6.188  16.579  0.00  0.00    +0.000 A 
ATOM     33  N   UNL     1       7.580   5.766  15.780  0.00  0.00    +0.000 NA
ATOM     34  C   UNL     1       7.238   4.948  14.763  0.00  0.00    +0.000 A 
ATOM     35  C   UNL     1       5.956   4.457  14.541  0.00  0.00    +0.000 A 
ATOM     36  C   UNL     1       4.952   4.921  15.400  0.00  0.00    +0.000 A 
BRANCH  35  37
ATOM     37  N   UNL     1       5.617   3.770  13.370  0.00  0.00    +0.000 N 
ATOM     38  H   UNL     1       4.697   3.340  13.384  0.00  0.00    +0.000 HD
ATOM     39  H   UNL     1       5.795   4.278  12.509  0.00  0.00    +0.000 HD
ENDBRANCH  35  37
ENDBRANCH   5  31
TORSDOF 6
ENDMDL
MODEL 3
REMARK VINA RESULT:      -8.0      3.222      8.441
REMARK  Name = 
REMARK  7 active torsions:
REMARK  status: ('A' for Active; 'I' for Inactive)
REMARK    1  A    between atoms: C_1  and  C_2
REMARK    2  A    between atoms: C_5  and  C_6
REMARK    3  A    between atoms: C_10  and  N_11
REMARK    4  A    between atoms: N_16  and  C_17
REMARK    5  A    between atoms: C_22  and  O_23
REMARK    6  A    between atoms: O_23  and  C_24
REMARK    7  A    between atoms: C_24  and  C_25
REMARK                            x       y       z     vdW  Elec       q    Type
REMARK                         _______ _______ _______ _____ _____    ______ ____
ROOT
ATOM      1  C   UNL     1      -0.788  10.923  23.300  0.00  0.00    +0.000 C 
ATOM      2  C   UNL     1      -0.249  10.348  22.029  0.00  0.00    +0.000 A 
ATOM      3  C   UNL     1       0.423  11.065  21.110  0.00  0.00    +0.000 A 
ATOM      4  C   UNL     1       1.052  10.435  19.930  0.00  0.00    +0.000 A 
ATOM      5  C   UNL     1       1.678  11.131  18.882  0.00  0.00    +0.000 A 
ATOM      6  C   UNL     1       2.416  10.322  17.999  0.00  0.00    +0.000 A 
ATOM      7  N   UNL     1       2.565   8.969  18.059  0.00  0.00    +0.000 NA
ATOM      8  C   UNL     1       1.874   8.320  19.004  0.00  0.00    +0.000 A 
ATOM      9  N   UNL     1       1.906   6.911  19.088  0.00  0.00    +0.000 N 
ATOM     10  C   UNL     1       1.080   9.022  19.929  0.00  0.00    +0.000 A 
ATOM     11  N   UNL     1       0.309   8.308  20.854  0.00  0.00    +0.000 N 
ATOM     12  C   UNL     1      -0.429   8.878  21.844  0.00  0.00    +0.000 A 
ATOM     13  O   UNL     1      -1.156   8.215  22.573  0.00  0.00    +0.000 OA
ATOM     14  H   UNL     1       1.023   6.591  18.701  0.00  0.00    +0.000 HD
ATOM     15  H   UNL     1       0.285   7.297  20.777  0.00  0.00    +0.000 HD
ENDROOT
BRANCH   9  16
ATOM     16  C   UNL     1       3.049   6.185  18.486  0.00  0.00    +0.000 C 
ATOM     17  C   UNL     1       2.491   5.043  17.614  0.00  0.00    +0.000 C 
ATOM     18  C   UNL     1       1.898   3.881  18.423  0.00  0.00    +0.000 C 
ATOM     19  N   UNL     1       2.617   3.465  19.623  0.00  0.00    +0.000 NA
ATOM     20  C   UNL     1       3.231   4.561  20.381  0.00  0.00    +0.000 C 
ATOM     21  C   UNL     1       4.030   5.549  19.504  0.00  0.00    +0.000 C 
ATOM     22  H   UNL     1       1.990   2.944  20.236  0.00  0.00    +0.000 HD
BRANCH  21  23
ATOM     23  O   UNL     1       5.107   4.794  18.878  0.00  0.00    +0.000 OA
BRANCH  23  24
ATOM     24  C   UNL     1       6.407   5.326  19.097  0.00  0.00    +0.000 C 
BRANCH  24  25
ATOM     25  C   UNL     1       7.180   5.647  17.795  0.00  0.00    +0.000 C 
ATOM     26  C   UNL     1       7.317   4.451  16.842  0.00  0.00    +0.000 C 
ATOM     27  C   UNL     1       6.087   4.194  15.979  0.00  0.00    +0.000 C 
ATOM     28  C   UNL     1       5.636   5.445  15.233  0.00  0.00    +0.000 C 
ATOM     29  C   UNL     1       5.435   6.628  16.173  0.00  0.00    +0.000 C 
ATOM     30  C   UNL     1       6.665   6.885  17.039  0.00  0.00    +0.000 C 
ENDBRANCH  24  25
ENDBRANCH  23  24
ENDBRANCH  21  23
ENDBRANCH   9  16
BRANCH   5  31
ATOM     31  C   UNL     1       1.562  12.594  18.623  0.00  0.00    +0.000 A 
ATOM     32  C   UNL     1       2.667  13.397  18.316  0.00  0.00    +0.000 A 
ATOM     33  N   UNL     1       2.641  14.744  18.157  0.00  0.00    +0.000 NA
ATOM     34  C   UNL     1       1.450  15.347  18.357  0.00  0.00    +0.000 A 
ATOM     35  C   UNL     1       0.262  14.679  18.628  0.00  0.00    +0.000 A 
ATOM     36  C   UNL     1       0.347  13.289  18.776  0.00  0.00    +0.000 A 
BRANCH  35  37
ATOM     37  N   UNL     1      -0.900  15.357  19.014  0.00  0.00    +0.000 N 
ATOM     38  H   UNL     1      -1.145  15.252  19.994  0.00  0.00    +0.000 HD
ATOM     39  H   UNL     1      -0.956  16.322  18.701  0.00  0.00    +0.000 HD
ENDBRANCH  35  37
ENDBRANCH   5  31
TORSDOF 6
ENDMDL
MODEL 4
REMARK VINA RESULT:      -7.9      1.634      2.368
REMARK  Name = 
REMARK  7 active torsions:
REMARK  status: ('A' for Active; 'I' for Inactive)
REMARK    1  A    between atoms: C_1  and  C_2
REMARK    2  A    between atoms: C_5  and  C_6
REMARK    3  A    between atoms: C_10  and  N_11
REMARK    4  A    between atoms: N_16  and  C_17
REMARK    5  A    between atoms: C_22  and  O_23
REMARK    6  A    between atoms: O_23  and  C_24
REMARK    7  A    between atoms: C_24  and  C_25
REMARK                            x       y       z     vdW  Elec       q    Type
REMARK                         _______ _______ _______ _____ _____    ______ ____
ROOT
ATOM      1  C   UNL     1       2.744   2.354  19.887  0.00  0.00    +0.000 C 
ATOM      2  C   UNL     1       2.863   3.824  19.635  0.00  0.00    +0.000 A 
ATOM      3  C   UNL     1       3.460   4.351  18.551  0.00  0.00    +0.000 A 
ATOM      4  C   UNL     1       3.444   5.802  18.275  0.00  0.00    +0.000 A 
ATOM      5  C   UNL     1       4.131   6.431  17.221  0.00  0.00    +0.000 A 
ATOM      6  C   UNL     1       3.772   7.774  17.006  0.00  0.00    +0.000 A 
ATOM      7  N   UNL     1       2.859   8.501  17.710  0.00  0.00    +0.000 NA
ATOM      8  C   UNL     1       2.297   7.910  18.771  0.00  0.00    +0.000 A 
ATOM      9  N   UNL     1       1.400   8.616  19.604  0.00  0.00    +0.000 N 
ATOM     10  C   UNL     1       2.597   6.576  19.101  0.00  0.00    +0.000 A 
ATOM     11  N   UNL     1       2.053   6.015  20.262  0.00  0.00    +0.000 N 
ATOM     12  C   UNL     1       2.208   4.717  20.635  0.00  0.00    +0.000 A 
ATOM     13  O   UNL     1       1.785   4.296  21.704  0.00  0.00    +0.000 OA
ATOM     14  H   UNL     1       1.927   8.852  20.440  0.00  0.00    +0.000 HD
ATOM     15  H   UNL     1       1.518   6.617  20.877  0.00  0.00    +0.000 HD
ENDROOT
BRANCH   9  16
ATOM     16  C   UNL     1       0.702   9.803  19.057  0.00  0.00    +0.000 C 
ATOM     17  C   UNL     1       1.547  11.052  19.379  0.00  0.00    +0.000 C 
ATOM     18  C   UNL     1       1.523  11.449  20.862  0.00  0.00    +0.000 C 
ATOM     19  N   UNL     1       0.245  11.356  21.559  0.00  0.00    +0.000 NA
ATOM     20  C   UNL     1      -0.590  10.217  21.160  0.00  0.00    +0.000 C 
ATOM     21  C   UNL     1      -0.718  10.049  19.631  0.00  0.00    +0.000 C 
ATOM     22  H   UNL     1       0.405  11.317  22.565  0.00  0.00    +0.000 HD
BRANCH  21  23
ATOM     23  O   UNL     1      -1.350  11.256  19.116  0.00  0.00    +0.000 OA
BRANCH  23  24
ATOM     24  C   UNL     1      -2.758  11.310  19.298  0.00  0.00    +0.000 C 
BRANCH  24  25
ATOM     25  C   UNL     1      -3.288  12.715  19.672  0.00  0.00    +0.000 C 
ATOM     26  C   UNL     1      -4.819  12.827  19.659  0.00  0.00    +0.000 C 
ATOM     27  C   UNL     1      -5.497  12.300  20.919  0.00  0.00    +0.000 C 
ATOM     28  C   UNL     1      -4.910  12.912  22.186  0.00  0.00    +0.000 C 
ATOM     29  C   UNL     1      -3.395  12.756  22.246  0.00  0.00    +0.000 C 
ATOM     30  C   UNL     1      -2.716  13.281  20.984  0.00  0.00    +0.000 C 
ENDBRANCH  24  25
ENDBRANCH  23  24
ENDBRANCH  21  23
ENDBRANCH   9  16
BRANCH   5  31
ATOM     31  C   UNL     1       5.208   5.812  16.399  0.00  0.00    +0.000 A 
ATOM     32  C   UNL     1       6.562   6.130  16.564  0.00  0.00    +0.000 A 
ATOM     33  N   UNL     1       7.578   5.669  15.792  0.00  0.00    +0.000 NA
ATOM     34  C   UNL     1       7.231   4.874  14.758  0.00  0.00    +0.000 A 
ATOM     35  C   UNL     1       5.936   4.443  14.493  0.00  0.00    +0.000 A 
ATOM     36  C   UNL     1       4.928   4.945  15.325  0.00  0.00    +0.000 A 
BRANCH  35  37
ATOM     37  N   UNL     1       5.603   3.781  13.306  0.00  0.00    +0.000 N 
ATOM     38  H   UNL     1       5.761   4.322  12.461  0.00  0.00    +0.000 HD
ATOM     39  H   UNL     1       5.958   2.831  13.232  0.00  0.00    +0.000 HD
ENDBRANCH  35  37
ENDBRANCH   5  31
TORSDOF 6
ENDMDL
MODEL 5
REMARK VINA RESULT:      -7.7      4.088      7.693
REMARK  Name = 
REMARK  7 active torsions:
REMARK  status: ('A' for Active; 'I' for Inactive)
REMARK    1  A    between atoms: C_1  and  C_2
REMARK    2  A    between atoms: C_5  and  C_6
REMARK    3  A    between atoms: C_10  and  N_11
REMARK    4  A    between atoms: N_16  and  C_17
REMARK    5  A    between atoms: C_22  and  O_23
REMARK    6  A    between atoms: O_23  and  C_24
REMARK    7  A    between atoms: C_24  and  C_25
REMARK                            x       y       z     vdW  Elec       q    Type
REMARK                         _______ _______ _______ _____ _____    ______ ____
ROOT
ATOM      1  C   UNL     1      -2.934   9.619  15.815  0.00  0.00    +0.000 C 
ATOM      2  C   UNL     1      -2.372  10.318  17.012  0.00  0.00    +0.000 A 
ATOM      3  C   UNL     1      -1.210   9.980  17.599  0.00  0.00    +0.000 A 
ATOM      4  C   UNL     1      -0.626  10.776  18.699  0.00  0.00    +0.000 A 
ATOM      5  C   UNL     1       0.527  10.427  19.424  0.00  0.00    +0.000 A 
ATOM      6  C   UNL     1       1.034  11.448  20.247  0.00  0.00    +0.000 A 
ATOM      7  N   UNL     1       0.520  12.700  20.410  0.00  0.00    +0.000 NA
ATOM      8  C   UNL     1      -0.635  12.970  19.790  0.00  0.00    +0.000 A 
ATOM      9  N   UNL     1      -1.279  14.214  19.968  0.00  0.00    +0.000 N 
ATOM     10  C   UNL     1      -1.250  12.017  18.958  0.00  0.00    +0.000 A 
ATOM     11  N   UNL     1      -2.495  12.304  18.388  0.00  0.00    +0.000 N 
ATOM     12  C   UNL     1      -3.144  11.496  17.507  0.00  0.00    +0.000 A 
ATOM     13  O   UNL     1      -4.271  11.751  17.104  0.00  0.00    +0.000 OA
ATOM     14  H   UNL     1      -2.053  14.036  20.602  0.00  0.00    +0.000 HD
ATOM     15  H   UNL     1      -2.957  13.166  18.658  0.00  0.00    +0.000 HD
ENDROOT
BRANCH   9  16
ATOM     16  C   UNL     1      -0.477  15.377  20.414  0.00  0.00    +0.000 C 
ATOM     17  C   UNL     1      -1.441  16.446  20.966  0.00  0.00    +0.000 C 
ATOM     18  C   UNL     1      -2.265  17.154  19.882  0.00  0.00    +0.000 C 
ATOM     19  N   UNL     1      -1.580  17.503  18.641  0.00  0.00    +0.000 NA
ATOM     20  C   UNL     1      -0.589  16.520  18.191  0.00  0.00    +0.000 C 
ATOM     21  C   UNL     1       0.371  16.053  19.305  0.00  0.00    +0.000 C 
ATOM     22  H   UNL     1      -2.265  17.652  17.901  0.00  0.00    +0.000 HD
BRANCH  21  23
ATOM     23  O   UNL     1       1.100  17.226  19.767  0.00  0.00    +0.000 OA
BRANCH  23  24
ATOM     24  C   UNL     1       2.385  16.951  20.307  0.00  0.00    +0.000 C 
BRANCH  24  25
ATOM     25  C   UNL     1       3.549  17.231  19.327  0.00  0.00    +0.000 C 
ATOM     26  C   UNL     1       4.915  16.743  19.829  0.00  0.00    +0.000 C 
ATOM     27  C   UNL     1       5.167  15.255  19.611  0.00  0.00    +0.000 C 
ATOM     28  C   UNL     1       4.929  14.838  18.164  0.00  0.00    +0.000 C 
ATOM     29  C   UNL     1       3.552  15.261  17.667  0.00  0.00    +0.000 C 
ATOM     30  C   UNL     1       3.299  16.750  17.887  0.00  0.00    +0.000 C 
ENDBRANCH  24  25
ENDBRANCH  23  24
ENDBRANCH  21  23
ENDBRANCH   9  16
BRANCH   5  31
ATOM     31  C   UNL     1       1.178   9.086  19.422  0.00  0.00    +0.000 A 
ATOM     32  C   UNL     1       1.127   8.220  20.521  0.00  0.00    +0.000 A 
ATOM     33  N   UNL     1       1.769   7.029  20.614  0.00  0.00    +0.000 NA
ATOM     34  C   UNL     1       2.551   6.687  19.568  0.00  0.00    +0.000 A 
ATOM     35  C   UNL     1       2.669   7.425  18.396  0.00  0.00    +0.000 A 
ATOM     36  C   UNL     1       1.980   8.643  18.353  0.00  0.00    +0.000 A 
BRANCH  35  37
ATOM     37  N   UNL     1       3.634   7.128  17.426  0.00  0.00    +0.000 N 
ATOM     38  H   UNL     1       3.430   7.496  16.502  0.00  0.00    +0.000 HD
ATOM     39  H   UNL     1       4.594   7.301  17.711  0.00  0.00    +0.000 HD
ENDBRANCH  35  37
ENDBRANCH   5  31
TORSDOF 6
ENDMDL
MODEL 6
REMARK VINA RESULT:      -7.7      0.556      1.020
REMARK  Name = 
REMARK  7 active torsions:
REMARK  status: ('A' for Active; 'I' for Inactive)
REMARK    1  A    between atoms: C_1  and  C_2
REMARK    2  A    between atoms: C_5  and  C_6
REMARK    3  A    between atoms: C_10  and  N_11
REMARK    4  A    between atoms: N_16  and  C_17
REMARK    5  A    between atoms: C_22  and  O_23
REMARK    6  A    between atoms: O_23  and  C_24
REMARK    7  A    between atoms: C_24  and  C_25
REMARK                            x       y       z     vdW  Elec       q    Type
REMARK                         _______ _______ _______ _____ _____    ______ ____
ROOT
ATOM      1  C   UNL     1       3.001   2.199  20.044  0.00  0.00    +0.000 C 
ATOM      2  C   UNL     1       3.070   3.675  19.811  0.00  0.00    +0.000 A 
ATOM      3  C   UNL     1       3.605   4.234  18.710  0.00  0.00    +0.000 A 
ATOM      4  C   UNL     1       3.538   5.688  18.458  0.00  0.00    +0.000 A 
ATOM      5  C   UNL     1       4.161   6.351  17.385  0.00  0.00    +0.000 A 
ATOM      6  C   UNL     1       3.758   7.686  17.207  0.00  0.00    +0.000 A 
ATOM      7  N   UNL     1       2.857   8.378  17.961  0.00  0.00    +0.000 NA
ATOM      8  C   UNL     1       2.358   7.757  19.037  0.00  0.00    +0.000 A 
ATOM      9  N   UNL     1       1.481   8.426  19.919  0.00  0.00    +0.000 N 
ATOM     10  C   UNL     1       2.708   6.427  19.332  0.00  0.00    +0.000 A 
ATOM     11  N   UNL     1       2.230   5.835  20.506  0.00  0.00    +0.000 N 
ATOM     12  C   UNL     1       2.435   4.535  20.852  0.00  0.00    +0.000 A 
ATOM     13  O   UNL     1       2.071   4.088  21.932  0.00  0.00    +0.000 OA
ATOM     14  H   UNL     1       2.038   8.664  20.735  0.00  0.00    +0.000 HD
ATOM     15  H   UNL     1       1.707   6.413  21.154  0.00  0.00    +0.000 HD
ENDROOT
BRANCH   9  16
ATOM     16  C   UNL     1       0.728   9.602  19.422  0.00  0.00    +0.000 C 
ATOM     17  C   UNL     1       1.549  10.869  19.735  0.00  0.00    +0.000 C 
ATOM     18  C   UNL     1       1.572  11.238  21.224  0.00  0.00    +0.000 C 
ATOM     19  N   UNL     1       0.324  11.095  21.969  0.00  0.00    +0.000 NA
ATOM     20  C   UNL     1      -0.493   9.940  21.580  0.00  0.00    +0.000 C 
ATOM     21  C   UNL     1      -0.675   9.796  20.054  0.00  0.00    +0.000 C 
ATOM     22  H   UNL     1       0.525  11.044  22.967  0.00  0.00    +0.000 HD
BRANCH  21  23
ATOM     23  O   UNL     1      -1.361  10.992  19.587  0.00  0.00    +0.000 OA
BRANCH  23  24
ATOM     24  C   UNL     1      -1.182  11.276  18.206  0.00  0.00    +0.000 C 
BRANCH  24  25
ATOM     25  C   UNL     1      -2.487  11.670  17.473  0.00  0.00    +0.000 C 
ATOM     26  C   UNL     1      -2.450  11.419  15.959  0.00  0.00    +0.000 C 
ATOM     27  C   UNL     1      -2.729   9.975  15.556  0.00  0.00    +0.000 C 
ATOM     28  C   UNL     1      -4.019   9.446  16.172  0.00  0.00    +0.000 C 
ATOM     29  C   UNL     1      -4.048   9.632  17.685  0.00  0.00    +0.000 C 
ATOM     30  C   UNL     1      -3.766  11.076  18.088  0.00  0.00    +0.000 C 
ENDBRANCH  24  25
ENDBRANCH  23  24
ENDBRANCH  21  23
ENDBRANCH   9  16
BRANCH   5  31
ATOM     31  C   UNL     1       5.217   5.774  16.507  0.00  0.00    +0.000 A 
ATOM     32  C   UNL     1       6.569   6.121  16.622  0.00  0.00    +0.000 A 
ATOM     33  N   UNL     1       7.562   5.699  15.800  0.00  0.00    +0.000 NA
ATOM     34  C   UNL     1       7.191   4.914  14.766  0.00  0.00    +0.000 A 
ATOM     35  C   UNL     1       5.897   4.457  14.547  0.00  0.00    +0.000 A 
ATOM     36  C   UNL     1       4.913   4.919  15.430  0.00  0.00    +0.000 A 
BRANCH  35  37
ATOM     37  N   UNL     1       5.529   3.808  13.363  0.00  0.00    +0.000 N 
ATOM     38  H   UNL     1       5.648   2.799  13.379  0.00  0.00    +0.000 HD
ATOM     39  H   UNL     1       4.629   4.087  12.984  0.00  0.00    +0.000 HD
ENDBRANCH  35  37
ENDBRANCH   5  31
TORSDOF 6
ENDMDL
MODEL 7
REMARK VINA RESULT:      -7.7      1.994      2.810
REMARK  Name = 
REMARK  7 active torsions:
REMARK  status: ('A' for Active; 'I' for Inactive)
REMARK    1  A    between atoms: C_1  and  C_2
REMARK    2  A    between atoms: C_5  and  C_6
REMARK    3  A    between atoms: C_10  and  N_11
REMARK    4  A    between atoms: N_16  and  C_17
REMARK    5  A    between atoms: C_22  and  O_23
REMARK    6  A    between atoms: O_23  and  C_24
REMARK    7  A    between atoms: C_24  and  C_25
REMARK                            x       y       z     vdW  Elec       q    Type
REMARK                         _______ _______ _______ _____ _____    ______ ____
ROOT
ATOM      1  C   UNL     1       2.592   1.403  19.600  0.00  0.00    +0.000 C 
ATOM      2  C   UNL     1       2.831   2.879  19.633  0.00  0.00    +0.000 A 
ATOM      3  C   UNL     1       3.411   3.565  18.632  0.00  0.00    +0.000 A 
ATOM      4  C   UNL     1       3.513   5.040  18.647  0.00  0.00    +0.000 A 
ATOM      5  C   UNL     1       4.193   5.812  17.689  0.00  0.00    +0.000 A 
ATOM      6  C   UNL     1       3.948   7.195  17.769  0.00  0.00    +0.000 A 
ATOM      7  N   UNL     1       3.147   7.834  18.667  0.00  0.00    +0.000 NA
ATOM      8  C   UNL     1       2.595   7.088  19.631  0.00  0.00    +0.000 A 
ATOM      9  N   UNL     1       1.817   7.679  20.650  0.00  0.00    +0.000 N 
ATOM     10  C   UNL     1       2.790   5.695  19.670  0.00  0.00    +0.000 A 
ATOM     11  N   UNL     1       2.264   4.956  20.735  0.00  0.00    +0.000 N 
ATOM     12  C   UNL     1       2.319   3.601  20.834  0.00  0.00    +0.000 A 
ATOM     13  O   UNL     1       1.921   3.008  21.829  0.00  0.00    +0.000 OA
ATOM     14  H   UNL     1       2.410   7.700  21.475  0.00  0.00    +0.000 HD
ATOM     15  H   UNL     1       1.822   5.462  21.495  0.00  0.00    +0.000 HD
ENDROOT
BRANCH   9  16
ATOM     16  C   UNL     1       1.200   9.004  20.401  0.00  0.00    +0.000 C 
ATOM     17  C   UNL     1       1.555   9.932  21.580  0.00  0.00    +0.000 C 
ATOM     18  C   UNL     1       0.815   9.589  22.881  0.00  0.00    +0.000 C 
ATOM     19  N   UNL     1      -0.592   9.217  22.772  0.00  0.00    +0.000 NA
ATOM     20  C   UNL     1      -0.926   8.423  21.585  0.00  0.00    +0.000 C 
ATOM     21  C   UNL     1      -0.345   8.993  20.274  0.00  0.00    +0.000 C 
ATOM     22  H   UNL     1      -0.877   8.708  23.608  0.00  0.00    +0.000 HD
BRANCH  21  23
ATOM     23  O   UNL     1      -0.921  10.318  20.088  0.00  0.00    +0.000 OA
BRANCH  23  24
ATOM     24  C   UNL     1      -0.510  10.981  18.901  0.00  0.00    +0.000 C 
BRANCH  24  25
ATOM     25  C   UNL     1      -0.604  12.524  18.980  0.00  0.00    +0.000 C 
ATOM     26  C   UNL     1      -1.089  13.048  20.338  0.00  0.00    +0.000 C 
ATOM     27  C   UNL     1      -0.003  13.118  21.407  0.00  0.00    +0.000 C 
ATOM     28  C   UNL     1       1.227  13.881  20.927  0.00  0.00    +0.000 C 
ATOM     29  C   UNL     1       1.760  13.334  19.608  0.00  0.00    +0.000 C 
ATOM     30  C   UNL     1       0.673  13.262  18.540  0.00  0.00    +0.000 C 
ENDBRANCH  24  25
ENDBRANCH  23  24
ENDBRANCH  21  23
ENDBRANCH   9  16
BRANCH   5  31
ATOM     31  C   UNL     1       5.161   5.289  16.684  0.00  0.00    +0.000 A 
ATOM     32  C   UNL     1       6.542   5.489  16.789  0.00  0.00    +0.000 A 
ATOM     33  N   UNL     1       7.463   5.115  15.865  0.00  0.00    +0.000 NA
ATOM     34  C   UNL     1       6.985   4.543  14.740  0.00  0.00    +0.000 A 
ATOM     35  C   UNL     1       5.647   4.246  14.512  0.00  0.00    +0.000 A 
ATOM     36  C   UNL     1       4.741   4.649  15.501  0.00  0.00    +0.000 A 
BRANCH  35  37
ATOM     37  N   UNL     1       5.181   3.832  13.260  0.00  0.00    +0.000 N 
ATOM     38  H   UNL     1       5.907   3.697  12.562  0.00  0.00    +0.000 HD
ATOM     39  H   UNL     1       4.518   3.062  13.283  0.00  0.00    +0.000 HD
ENDBRANCH  35  37
ENDBRANCH   5  31
TORSDOF 6
ENDMDL
MODEL 8
REMARK VINA RESULT:      -7.7      0.942      1.209
REMARK  Name = 
REMARK  7 active torsions:
REMARK  status: ('A' for Active; 'I' for Inactive)
REMARK    1  A    between atoms: C_1  and  C_2
REMARK    2  A    between atoms: C_5  and  C_6
REMARK    3  A    between atoms: C_10  and  N_11
REMARK    4  A    between atoms: N_16  and  C_17
REMARK    5  A    between atoms: C_22  and  O_23
REMARK    6  A    between atoms: O_23  and  C_24
REMARK    7  A    between atoms: C_24  and  C_25
REMARK                            x       y       z     vdW  Elec       q    Type
REMARK                         _______ _______ _______ _____ _____    ______ ____
ROOT
ATOM      1  C   UNL     1       2.878   2.618  20.108  0.00  0.00    +0.000 C 
ATOM      2  C   UNL     1       2.975   4.057  19.708  0.00  0.00    +0.000 A 
ATOM      3  C   UNL     1       3.567   4.481  18.578  0.00  0.00    +0.000 A 
ATOM      4  C   UNL     1       3.529   5.897  18.155  0.00  0.00    +0.000 A 
ATOM      5  C   UNL     1       4.209   6.427  17.045  0.00  0.00    +0.000 A 
ATOM      6  C   UNL     1       3.829   7.734  16.694  0.00  0.00    +0.000 A 
ATOM      7  N   UNL     1       2.903   8.514  17.319  0.00  0.00    +0.000 NA
ATOM      8  C   UNL     1       2.347   8.025  18.434  0.00  0.00    +0.000 A 
ATOM      9  N   UNL     1       1.437   8.797  19.189  0.00  0.00    +0.000 N 
ATOM     10  C   UNL     1       2.667   6.737  18.898  0.00  0.00    +0.000 A 
ATOM     11  N   UNL     1       2.128   6.287  20.108  0.00  0.00    +0.000 N 
ATOM     12  C   UNL     1       2.302   5.036  20.612  0.00  0.00    +0.000 A 
ATOM     13  O   UNL     1       1.883   4.719  21.718  0.00  0.00    +0.000 OA
ATOM     14  H   UNL     1       1.957   9.125  19.998  0.00  0.00    +0.000 HD
ATOM     15  H   UNL     1       1.581   6.940  20.659  0.00  0.00    +0.000 HD
ENDROOT
BRANCH   9  16
ATOM     16  C   UNL     1       0.721   9.912  18.525  0.00  0.00    +0.000 C 
ATOM     17  C   UNL     1       1.567  11.191  18.681  0.00  0.00    +0.000 C 
ATOM     18  C   UNL     1       1.574  11.757  20.108  0.00  0.00    +0.000 C 
ATOM     19  N   UNL     1       0.311  11.743  20.839  0.00  0.00    +0.000 NA
ATOM     20  C   UNL     1      -0.527  10.564  20.593  0.00  0.00    +0.000 C 
ATOM     21  C   UNL     1      -0.687  10.220  19.097  0.00  0.00    +0.000 C 
ATOM     22  H   UNL     1       0.493  11.821  21.839  0.00  0.00    +0.000 HD
BRANCH  21  23
ATOM     23  O   UNL     1      -1.335  11.357  18.459  0.00  0.00    +0.000 OA
BRANCH  23  24
ATOM     24  C   UNL     1      -2.469  11.858  19.154  0.00  0.00    +0.000 C 
BRANCH  24  25
ATOM     25  C   UNL     1      -3.762  11.043  18.915  0.00  0.00    +0.000 C 
ATOM     26  C   UNL     1      -5.031  11.716  19.455  0.00  0.00    +0.000 C 
ATOM     27  C   UNL     1      -5.609  12.791  18.540  0.00  0.00    +0.000 C 
ATOM     28  C   UNL     1      -5.816  12.282  17.118  0.00  0.00    +0.000 C 
ATOM     29  C   UNL     1      -4.548  11.664  16.541  0.00  0.00    +0.000 C 
ATOM     30  C   UNL     1      -3.969  10.591  17.458  0.00  0.00    +0.000 C 
ENDBRANCH  24  25
ENDBRANCH  23  24
ENDBRANCH  21  23
ENDBRANCH   9  16
BRANCH   5  31
ATOM     31  C   UNL     1       5.298   5.745  16.291  0.00  0.00    +0.000 A 
ATOM     32  C   UNL     1       6.653   6.037  16.491  0.00  0.00    +0.000 A 
ATOM     33  N   UNL     1       7.683   5.517  15.778  0.00  0.00    +0.000 NA
ATOM     34  C   UNL     1       7.353   4.683  14.769  0.00  0.00    +0.000 A 
ATOM     35  C   UNL     1       6.058   4.272  14.477  0.00  0.00    +0.000 A 
ATOM     36  C   UNL     1       5.034   4.836  15.248  0.00  0.00    +0.000 A 
BRANCH  35  37
ATOM     37  N   UNL     1       5.750   3.564  13.310  0.00  0.00    +0.000 N 
ATOM     38  H   UNL     1       6.556   3.194  12.815  0.00  0.00    +0.000 HD
ATOM     39  H   UNL     1       5.006   2.878  13.409  0.00  0.00    +0.000 HD
ENDBRANCH  35  37
ENDBRANCH   5  31
TORSDOF 6
ENDMDL
MODEL 9
REMARK VINA RESULT:      -7.6      4.092     10.884
REMARK  Name = 
REMARK  7 active torsions:
REMARK  status: ('A' for Active; 'I' for Inactive)
REMARK    1  A    between atoms: C_1  and  C_2
REMARK    2  A    between atoms: C_5  and  C_6
REMARK    3  A    between atoms: C_10  and  N_11
REMARK    4  A    between atoms: N_16  and  C_17
REMARK    5  A    between atoms: C_22  and  O_23
REMARK    6  A    between atoms: O_23  and  C_24
REMARK    7  A    between atoms: C_24  and  C_25
REMARK                            x       y       z     vdW  Elec       q    Type
REMARK                         _______ _______ _______ _____ _____    ______ ____
ROOT
ATOM      1  C   UNL     1      -7.050  11.908  17.863  0.00  0.00    +0.000 C 
ATOM      2  C   UNL     1      -5.695  12.178  18.437  0.00  0.00    +0.000 A 
ATOM      3  C   UNL     1      -5.490  12.643  19.683  0.00  0.00    +0.000 A 
ATOM      4  C   UNL     1      -4.135  12.775  20.258  0.00  0.00    +0.000 A 
ATOM      5  C   UNL     1      -3.841  13.346  21.509  0.00  0.00    +0.000 A 
ATOM      6  C   UNL     1      -2.523  13.139  21.953  0.00  0.00    +0.000 A 
ATOM      7  N   UNL     1      -1.534  12.468  21.299  0.00  0.00    +0.000 NA
ATOM      8  C   UNL     1      -1.811  12.024  20.066  0.00  0.00    +0.000 A 
ATOM      9  N   UNL     1      -0.820  11.389  19.285  0.00  0.00    +0.000 N 
ATOM     10  C   UNL     1      -3.089  12.196  19.505  0.00  0.00    +0.000 A 
ATOM     11  N   UNL     1      -3.320  11.791  18.186  0.00  0.00    +0.000 N 
ATOM     12  C   UNL     1      -4.532  11.832  17.569  0.00  0.00    +0.000 A 
ATOM     13  O   UNL     1      -4.665  11.548  16.385  0.00  0.00    +0.000 OA
ATOM     14  H   UNL     1      -0.521  12.080  18.603  0.00  0.00    +0.000 HD
ATOM     15  H   UNL     1      -2.532  11.456  17.643  0.00  0.00    +0.000 HD
ENDROOT
BRANCH   9  16
ATOM     16  C   UNL     1       0.342  10.772  19.968  0.00  0.00    +0.000 C 
ATOM     17  C   UNL     1       1.565  11.688  19.764  0.00  0.00    +0.000 C 
ATOM     18  C   UNL     1       2.119  11.671  18.332  0.00  0.00    +0.000 C 
ATOM     19  N   UNL     1       2.178  10.380  17.654  0.00  0.00    +0.000 NA
ATOM     20  C   UNL     1       1.055   9.481  17.946  0.00  0.00    +0.000 C 
ATOM     21  C   UNL     1       0.732   9.363  19.451  0.00  0.00    +0.000 C 
ATOM     22  H   UNL     1       2.238  10.525  16.646  0.00  0.00    +0.000 HD
BRANCH  21  23
ATOM     23  O   UNL     1       1.913   8.813  20.103  0.00  0.00    +0.000 OA
BRANCH  23  24
ATOM     24  C   UNL     1       1.703   7.569  20.756  0.00  0.00    +0.000 C 
BRANCH  24  25
ATOM     25  C   UNL     1       1.562   6.370  19.787  0.00  0.00    +0.000 C 
ATOM     26  C   UNL     1       2.735   6.220  18.808  0.00  0.00    +0.000 C 
ATOM     27  C   UNL     1       3.958   5.525  19.397  0.00  0.00    +0.000 C 
ATOM     28  C   UNL     1       3.604   4.191  20.044  0.00  0.00    +0.000 C 
ATOM     29  C   UNL     1       2.481   4.330  21.065  0.00  0.00    +0.000 C 
ATOM     30  C   UNL     1       1.258   5.028  20.477  0.00  0.00    +0.000 C 
ENDBRANCH  24  25
ENDBRANCH  23  24
ENDBRANCH  21  23
ENDBRANCH   9  16
BRANCH   5  31
ATOM     31  C   UNL     1      -4.776  14.172  22.324  0.00  0.00    +0.000 A 
ATOM     32  C   UNL     1      -4.571  15.537  22.559  0.00  0.00    +0.000 A 
ATOM     33  N   UNL     1      -5.334  16.321  23.361  0.00  0.00    +0.000 NA
ATOM     34  C   UNL     1      -6.345  15.707  24.012  0.00  0.00    +0.000 A 
ATOM     35  C   UNL     1      -6.692  14.371  23.850  0.00  0.00    +0.000 A 
ATOM     36  C   UNL     1      -5.873  13.610  23.006  0.00  0.00    +0.000 A 
BRANCH  35  37
ATOM     37  N   UNL     1      -7.620  13.738  24.685  0.00  0.00    +0.000 N 
ATOM     38  H   UNL     1      -7.587  12.723  24.661  0.00  0.00    +0.000 HD
ATOM     39  H   UNL     1      -7.662  14.104  25.632  0.00  0.00    +0.000 HD
ENDBRANCH  35  37
ENDBRANCH   5  31
TORSDOF 6
ENDMDL
