MODEL 1
REMARK VINA RESULT:      -8.2      0.000      0.000
REMARK  Name = 
REMARK  9 active torsions:
REMARK  status: ('A' for Active; 'I' for Inactive)
REMARK    1  A    between atoms: C_1  and  N_2
REMARK    2  A    between atoms: N_2  and  C_3
REMARK    3  A    between atoms: C_4  and  C_6
REMARK    4  A    between atoms: C_6  and  O_7
REMARK    5  A    between atoms: O_7  and  C_8
REMARK    6  A    between atoms: C_11  and  C_12
REMARK    7  A    between atoms: C_17  and  O_18
REMARK    8  A    between atoms: C_19  and  O_20
REMARK    9  A    between atoms: C_21  and  O_22
REMARK                            x       y       z     vdW  Elec       q    Type
REMARK                         _______ _______ _______ _____ _____    ______ ____
ROOT
ATOM      1  C   UNL     1       2.662   7.293  18.545  0.00  0.00    +0.000 A 
ATOM      2  C   UNL     1       2.284   6.074  18.954  0.00  0.00    +0.000 A 
ATOM      3  C   UNL     1       3.170   4.944  18.763  0.00  0.00    +0.000 A 
ATOM      4  O   UNL     1       3.030   3.896  19.376  0.00  0.00    +0.000 OA
ATOM      5  C   UNL     1       4.192   5.103  17.742  0.00  0.00    +0.000 A 
ATOM      6  C   UNL     1       4.804   3.964  17.216  0.00  0.00    +0.000 A 
ATOM      7  C   UNL     1       5.592   4.096  16.092  0.00  0.00    +0.000 A 
ATOM      8  C   UNL     1       5.808   5.354  15.534  0.00  0.00    +0.000 A 
ATOM      9  C   UNL     1       5.258   6.511  16.107  0.00  0.00    +0.000 A 
ATOM     10  C   UNL     1       4.417   6.384  17.217  0.00  0.00    +0.000 A 
ATOM     11  O   UNL     1       3.788   7.512  17.741  0.00  0.00    +0.000 OA
ENDROOT
BRANCH   1  15
ATOM     12  C   UNL     1      -0.178  10.320  19.737  0.00  0.00    +0.000 A 
ATOM     13  C   UNL     1       0.331   9.419  20.657  0.00  0.00    +0.000 A 
ATOM     14  C   UNL     1       1.328   8.528  20.264  0.00  0.00    +0.000 A 
ATOM     15  C   UNL     1       1.792   8.440  18.930  0.00  0.00    +0.000 A 
ATOM     16  C   UNL     1       1.338   9.412  18.037  0.00  0.00    +0.000 A 
ATOM     17  C   UNL     1       0.353  10.336  18.441  0.00  0.00    +0.000 A 
BRANCH  12  18
ATOM     18  O   UNL     1      -1.194  11.198  19.989  0.00  0.00    +0.000 OA
BRANCH  18  19
ATOM     19  C   UNL     1      -1.647  11.990  18.894  0.00  0.00    +0.000 C 
BRANCH  19  23
ATOM     20  C   UNL     1      -4.995  11.395  17.120  0.00  0.00    +0.000 C 
ATOM     21  N   UNL     1      -3.573  11.391  17.413  0.00  0.00    +0.000 N 
ATOM     22  C   UNL     1      -2.654  10.971  16.367  0.00  0.00    +0.000 C 
ATOM     23  C   UNL     1      -3.157  11.855  18.662  0.00  0.00    +0.000 C 
ATOM     24  O   UNL     1      -3.959  12.228  19.517  0.00  0.00    +0.000 OA
ENDBRANCH  19  23
ENDBRANCH  18  19
ENDBRANCH  12  18
ENDBRANCH   1  15
BRANCH   6  25
ATOM     25  O   UNL     1       4.618   2.698  17.713  0.00  0.00    +0.000 OA
ATOM     26  H   UNL     1       3.645   2.546  17.784  0.00  0.00    +0.000 HD
ENDBRANCH   6  25
BRANCH   7  27
ATOM     27  O   UNL     1       6.118   2.985  15.490  0.00  0.00    +0.000 OA
ATOM     28  H   UNL     1       5.386   2.646  14.928  0.00  0.00    +0.000 HD
ENDBRANCH   7  27
BRANCH   8  29
ATOM     29  O   UNL     1       6.538   5.446  14.382  0.00  0.00    +0.000 OA
ATOM     30  H   UNL     1       7.355   4.933  14.563  0.00  0.00    +0.000 HD
ENDBRANCH   8  29
TORSDOF 7
ENDMDL
MODEL 2
REMARK VINA RESULT:      -8.1      1.852      2.386
REMARK  Name = 
REMARK  9 active torsions:
REMARK  status: ('A' for Active; 'I' for Inactive)
REMARK    1  A    between atoms: C_1  and  N_2
REMARK    2  A    between atoms: N_2  and  C_3
REMARK    3  A    between atoms: C_4  and  C_6
REMARK    4  A    between atoms: C_6  and  O_7
REMARK    5  A    between atoms: O_7  and  C_8
REMARK    6  A    between atoms: C_11  and  C_12
REMARK    7  A    between atoms: C_17  and  O_18
REMARK    8  A    between atoms: C_19  and  O_20
REMARK    9  A    between atoms: C_21  and  O_22
REMARK                            x       y       z     vdW  Elec       q    Type
REMARK                         _______ _______ _______ _____ _____    ______ ____
ROOT
ATOM      1  C   UNL     1       2.687   7.195  18.486  0.00  0.00    +0.000 A 
ATOM      2  C   UNL     1       2.272   5.962  18.809  0.00  0.00    +0.000 A 
ATOM      3  C   UNL     1       3.146   4.828  18.590  0.00  0.00    +0.000 A 
ATOM      4  O   UNL     1       2.963   3.750  19.136  0.00  0.00    +0.000 OA
ATOM      5  C   UNL     1       4.212   5.025  17.621  0.00  0.00    +0.000 A 
ATOM      6  C   UNL     1       4.825   3.906  17.057  0.00  0.00    +0.000 A 
ATOM      7  C   UNL     1       5.661   4.086  15.974  0.00  0.00    +0.000 A 
ATOM      8  C   UNL     1       5.922   5.370  15.499  0.00  0.00    +0.000 A 
ATOM      9  C   UNL     1       5.368   6.502  16.114  0.00  0.00    +0.000 A 
ATOM     10  C   UNL     1       4.480   6.330  17.180  0.00  0.00    +0.000 A 
ATOM     11  O   UNL     1       3.848   7.438  17.742  0.00  0.00    +0.000 OA
ENDROOT
BRANCH   1  15
ATOM     12  C   UNL     1      -0.129  10.198  19.791  0.00  0.00    +0.000 A 
ATOM     13  C   UNL     1       0.455   9.328  20.696  0.00  0.00    +0.000 A 
ATOM     14  C   UNL     1       1.442   8.446  20.260  0.00  0.00    +0.000 A 
ATOM     15  C   UNL     1       1.821   8.335  18.901  0.00  0.00    +0.000 A 
ATOM     16  C   UNL     1       1.292   9.278  18.017  0.00  0.00    +0.000 A 
ATOM     17  C   UNL     1       0.317  10.193  18.464  0.00  0.00    +0.000 A 
BRANCH  12  18
ATOM     18  O   UNL     1      -1.144  11.063  20.088  0.00  0.00    +0.000 OA
BRANCH  18  19
ATOM     19  C   UNL     1      -0.857  12.093  21.030  0.00  0.00    +0.000 C 
BRANCH  19  23
ATOM     20  C   UNL     1      -3.460  12.358  23.835  0.00  0.00    +0.000 C 
ATOM     21  N   UNL     1      -2.834  12.431  22.527  0.00  0.00    +0.000 N 
ATOM     22  C   UNL     1      -3.528  13.145  21.469  0.00  0.00    +0.000 C 
ATOM     23  C   UNL     1      -1.566  11.869  22.373  0.00  0.00    +0.000 C 
ATOM     24  O   UNL     1      -0.993  11.293  23.296  0.00  0.00    +0.000 OA
ENDBRANCH  19  23
ENDBRANCH  18  19
ENDBRANCH  12  18
ENDBRANCH   1  15
BRANCH   6  25
ATOM     25  O   UNL     1       4.598   2.618  17.473  0.00  0.00    +0.000 OA
ATOM     26  H   UNL     1       4.469   2.063  16.666  0.00  0.00    +0.000 HD
ENDBRANCH   6  25
BRANCH   7  27
ATOM     27  O   UNL     1       6.193   3.001  15.332  0.00  0.00    +0.000 OA
ATOM     28  H   UNL     1       5.642   2.247  15.636  0.00  0.00    +0.000 HD
ENDBRANCH   7  27
BRANCH   8  29
ATOM     29  O   UNL     1       6.700   5.512  14.384  0.00  0.00    +0.000 OA
ATOM     30  H   UNL     1       6.353   4.848  13.751  0.00  0.00    +0.000 HD
ENDBRANCH   8  29
TORSDOF 7
ENDMDL
MODEL 3
REMARK VINA RESULT:      -8.0      1.547      3.008
REMARK  Name = 
REMARK  9 active torsions:
REMARK  status: ('A' for Active; 'I' for Inactive)
REMARK    1  A    between atoms: C_1  and  N_2
REMARK    2  A    between atoms: N_2  and  C_3
REMARK    3  A    between atoms: C_4  and  C_6
REMARK    4  A    between atoms: C_6  and  O_7
REMARK    5  A    between atoms: O_7  and  C_8
REMARK    6  A    between atoms: C_11  and  C_12
REMARK    7  A    between atoms: C_17  and  O_18
REMARK    8  A    between atoms: C_19  and  O_20
REMARK    9  A    between atoms: C_21  and  O_22
REMARK                            x       y       z     vdW  Elec       q    Type
REMARK                         _______ _______ _______ _____ _____    ______ ____
ROOT
ATOM      1  C   UNL     1       2.356   7.209  18.942  0.00  0.00    +0.000 A 
ATOM      2  C   UNL     1       3.329   7.034  18.036  0.00  0.00    +0.000 A 
ATOM      3  C   UNL     1       3.782   5.696  17.716  0.00  0.00    +0.000 A 
ATOM      4  O   UNL     1       4.420   5.449  16.704  0.00  0.00    +0.000 OA
ATOM      5  C   UNL     1       3.497   4.675  18.711  0.00  0.00    +0.000 A 
ATOM      6  C   UNL     1       4.230   3.486  18.686  0.00  0.00    +0.000 A 
ATOM      7  C   UNL     1       4.130   2.626  19.760  0.00  0.00    +0.000 A 
ATOM      8  C   UNL     1       3.271   2.923  20.816  0.00  0.00    +0.000 A 
ATOM      9  C   UNL     1       2.475   4.079  20.806  0.00  0.00    +0.000 A 
ATOM     10  C   UNL     1       2.604   4.983  19.748  0.00  0.00    +0.000 A 
ATOM     11  O   UNL     1       1.890   6.179  19.769  0.00  0.00    +0.000 OA
ENDROOT
BRANCH   1  15
ATOM     12  C   UNL     1       0.369  11.015  19.404  0.00  0.00    +0.000 A 
ATOM     13  C   UNL     1       0.415  10.105  20.446  0.00  0.00    +0.000 A 
ATOM     14  C   UNL     1       1.159   8.935  20.301  0.00  0.00    +0.000 A 
ATOM     15  C   UNL     1       1.809   8.587  19.093  0.00  0.00    +0.000 A 
ATOM     16  C   UNL     1       1.831   9.553  18.085  0.00  0.00    +0.000 A 
ATOM     17  C   UNL     1       1.106  10.752  18.242  0.00  0.00    +0.000 A 
BRANCH  12  18
ATOM     18  O   UNL     1      -0.371  12.164  19.407  0.00  0.00    +0.000 OA
BRANCH  18  19
ATOM     19  C   UNL     1      -1.213  12.390  18.280  0.00  0.00    +0.000 C 
BRANCH  19  23
ATOM     20  C   UNL     1      -4.661  10.849  17.610  0.00  0.00    +0.000 C 
ATOM     21  N   UNL     1      -3.259  11.201  17.468  0.00  0.00    +0.000 N 
ATOM     22  C   UNL     1      -2.591  10.878  16.218  0.00  0.00    +0.000 C 
ATOM     23  C   UNL     1      -2.645  11.892  18.513  0.00  0.00    +0.000 C 
ATOM     24  O   UNL     1      -3.247  12.173  19.549  0.00  0.00    +0.000 OA
ENDBRANCH  19  23
ENDBRANCH  18  19
ENDBRANCH  12  18
ENDBRANCH   1  15
BRANCH   6  25
ATOM     25  O   UNL     1       5.101   3.146  17.682  0.00  0.00    +0.000 OA
ATOM     26  H   UNL     1       5.643   2.386  18.003  0.00  0.00    +0.000 HD
ENDBRANCH   6  25
BRANCH   7  27
ATOM     27  O   UNL     1       4.916   1.507  19.816  0.00  0.00    +0.000 OA
ATOM     28  H   UNL     1       5.655   1.760  20.412  0.00  0.00    +0.000 HD
ENDBRANCH   7  27
BRANCH   8  29
ATOM     29  O   UNL     1       3.243   2.086  21.897  0.00  0.00    +0.000 OA
ATOM     30  H   UNL     1       4.066   2.289  22.390  0.00  0.00    +0.000 HD
ENDBRANCH   8  29
TORSDOF 7
ENDMDL
MODEL 4
REMARK VINA RESULT:      -8.0      1.421      2.658
REMARK  Name = 
REMARK  9 active torsions:
REMARK  status: ('A' for Active; 'I' for Inactive)
REMARK    1  A    between atoms: C_1  and  N_2
REMARK    2  A    between atoms: N_2  and  C_3
REMARK    3  A    between atoms: C_4  and  C_6
REMARK    4  A    between atoms: C_6  and  O_7
REMARK    5  A    between atoms: O_7  and  C_8
REMARK    6  A    between atoms: C_11  and  C_12
REMARK    7  A    between atoms: C_17  and  O_18
REMARK    8  A    between atoms: C_19  and  O_20
REMARK    9  A    between atoms: C_21  and  O_22
REMARK                            x       y       z     vdW  Elec       q    Type
REMARK                         _______ _______ _______ _____ _____    ______ ____
ROOT
ATOM      1  C   UNL     1       2.493   7.161  18.252  0.00  0.00    +0.000 A 
ATOM      2  C   UNL     1       3.782   7.117  17.885  0.00  0.00    +0.000 A 
ATOM      3  C   UNL     1       4.317   5.915  17.280  0.00  0.00    +0.000 A 
ATOM      4  O   UNL     1       5.365   5.913  16.652  0.00  0.00    +0.000 OA
ATOM      5  C   UNL     1       3.571   4.692  17.530  0.00  0.00    +0.000 A 
ATOM      6  C   UNL     1       4.209   3.464  17.345  0.00  0.00    +0.000 A 
ATOM      7  C   UNL     1       3.588   2.321  17.805  0.00  0.00    +0.000 A 
ATOM      8  C   UNL     1       2.326   2.400  18.391  0.00  0.00    +0.000 A 
ATOM      9  C   UNL     1       1.650   3.623  18.507  0.00  0.00    +0.000 A 
ATOM     10  C   UNL     1       2.289   4.794  18.090  0.00  0.00    +0.000 A 
ATOM     11  O   UNL     1       1.671   6.028  18.284  0.00  0.00    +0.000 OA
ENDROOT
BRANCH   1  15
ATOM     12  C   UNL     1       0.550  10.778  19.591  0.00  0.00    +0.000 A 
ATOM     13  C   UNL     1       0.752   9.716  20.456  0.00  0.00    +0.000 A 
ATOM     14  C   UNL     1       1.481   8.610  20.024  0.00  0.00    +0.000 A 
ATOM     15  C   UNL     1       1.957   8.478  18.698  0.00  0.00    +0.000 A 
ATOM     16  C   UNL     1       1.827   9.592  17.866  0.00  0.00    +0.000 A 
ATOM     17  C   UNL     1       1.118  10.726  18.312  0.00  0.00    +0.000 A 
BRANCH  12  18
ATOM     18  O   UNL     1      -0.195  11.887  19.881  0.00  0.00    +0.000 OA
BRANCH  18  19
ATOM     19  C   UNL     1      -1.008  12.408  18.833  0.00  0.00    +0.000 C 
BRANCH  19  23
ATOM     20  C   UNL     1      -4.531  11.125  18.024  0.00  0.00    +0.000 C 
ATOM     21  N   UNL     1      -3.099  11.356  17.949  0.00  0.00    +0.000 N 
ATOM     22  C   UNL     1      -2.394  10.932  16.751  0.00  0.00    +0.000 C 
ATOM     23  C   UNL     1      -2.486  12.036  19.002  0.00  0.00    +0.000 C 
ATOM     24  O   UNL     1      -3.117  12.406  19.992  0.00  0.00    +0.000 OA
ENDBRANCH  19  23
ENDBRANCH  18  19
ENDBRANCH  12  18
ENDBRANCH   1  15
BRANCH   6  25
ATOM     25  O   UNL     1       5.455   3.326  16.787  0.00  0.00    +0.000 OA
ATOM     26  H   UNL     1       6.115   3.358  17.521  0.00  0.00    +0.000 HD
ENDBRANCH   6  25
BRANCH   7  27
ATOM     27  O   UNL     1       4.233   1.116  17.736  0.00  0.00    +0.000 OA
ATOM     28  H   UNL     1       4.906   1.162  18.450  0.00  0.00    +0.000 HD
ENDBRANCH   7  27
BRANCH   8  29
ATOM     29  O   UNL     1       1.765   1.260  18.897  0.00  0.00    +0.000 OA
ATOM     30  H   UNL     1       1.787   1.383  19.870  0.00  0.00    +0.000 HD
ENDBRANCH   8  29
TORSDOF 7
ENDMDL
MODEL 5
REMARK VINA RESULT:      -7.9      0.814      1.103
REMARK  Name = 
REMARK  9 active torsions:
REMARK  status: ('A' for Active; 'I' for Inactive)
REMARK    1  A    between atoms: C_1  and  N_2
REMARK    2  A    between atoms: N_2  and  C_3
REMARK    3  A    between atoms: C_4  and  C_6
REMARK    4  A    between atoms: C_6  and  O_7
REMARK    5  A    between atoms: O_7  and  C_8
REMARK    6  A    between atoms: C_11  and  C_12
REMARK    7  A    between atoms: C_17  and  O_18
REMARK    8  A    between atoms: C_19  and  O_20
REMARK    9  A    between atoms: C_21  and  O_22
REMARK                            x       y       z     vdW  Elec       q    Type
REMARK                         _______ _______ _______ _____ _____    ______ ____
ROOT
ATOM      1  C   UNL     1       2.627   7.309  18.527  0.00  0.00    +0.000 A 
ATOM      2  C   UNL     1       2.262   6.087  18.940  0.00  0.00    +0.000 A 
ATOM      3  C   UNL     1       3.164   4.967  18.760  0.00  0.00    +0.000 A 
ATOM      4  O   UNL     1       3.034   3.921  19.378  0.00  0.00    +0.000 OA
ATOM      5  C   UNL     1       4.190   5.135  17.744  0.00  0.00    +0.000 A 
ATOM      6  C   UNL     1       4.819   4.000  17.228  0.00  0.00    +0.000 A 
ATOM      7  C   UNL     1       5.612   4.137  16.108  0.00  0.00    +0.000 A 
ATOM      8  C   UNL     1       5.815   5.395  15.545  0.00  0.00    +0.000 A 
ATOM      9  C   UNL     1       5.247   6.548  16.108  0.00  0.00    +0.000 A 
ATOM     10  C   UNL     1       4.401   6.416  17.214  0.00  0.00    +0.000 A 
ATOM     11  O   UNL     1       3.754   7.538  17.728  0.00  0.00    +0.000 OA
ENDROOT
BRANCH   1  15
ATOM     12  C   UNL     1      -0.257  10.304  19.692  0.00  0.00    +0.000 A 
ATOM     13  C   UNL     1       0.269   9.423  20.621  0.00  0.00    +0.000 A 
ATOM     14  C   UNL     1       1.279   8.544  20.236  0.00  0.00    +0.000 A 
ATOM     15  C   UNL     1       1.740   8.446  18.901  0.00  0.00    +0.000 A 
ATOM     16  C   UNL     1       1.267   9.400  17.997  0.00  0.00    +0.000 A 
ATOM     17  C   UNL     1       0.269  10.313  18.394  0.00  0.00    +0.000 A 
BRANCH  12  18
ATOM     18  O   UNL     1      -1.287  11.169  19.937  0.00  0.00    +0.000 OA
BRANCH  18  19
ATOM     19  C   UNL     1      -1.779  11.914  18.826  0.00  0.00    +0.000 C 
BRANCH  19  23
ATOM     20  C   UNL     1      -5.537  11.203  18.535  0.00  0.00    +0.000 C 
ATOM     21  N   UNL     1      -4.278  11.818  18.917  0.00  0.00    +0.000 N 
ATOM     22  C   UNL     1      -4.291  12.820  19.969  0.00  0.00    +0.000 C 
ATOM     23  C   UNL     1      -3.111  11.365  18.300  0.00  0.00    +0.000 C 
ATOM     24  O   UNL     1      -3.131  10.495  17.429  0.00  0.00    +0.000 OA
ENDBRANCH  19  23
ENDBRANCH  18  19
ENDBRANCH  12  18
ENDBRANCH   1  15
BRANCH   6  25
ATOM     25  O   UNL     1       4.647   2.735  17.731  0.00  0.00    +0.000 OA
ATOM     26  H   UNL     1       3.719   2.461  17.535  0.00  0.00    +0.000 HD
ENDBRANCH   6  25
BRANCH   7  27
ATOM     27  O   UNL     1       6.156   3.030  15.515  0.00  0.00    +0.000 OA
ATOM     28  H   UNL     1       7.015   3.345  15.157  0.00  0.00    +0.000 HD
ENDBRANCH   7  27
BRANCH   8  29
ATOM     29  O   UNL     1       6.551   5.491  14.396  0.00  0.00    +0.000 OA
ATOM     30  H   UNL     1       5.940   5.204  13.685  0.00  0.00    +0.000 HD
ENDBRANCH   8  29
TORSDOF 7
ENDMDL
MODEL 6
REMARK VINA RESULT:      -7.8      1.879      2.644
REMARK  Name = 
REMARK  9 active torsions:
REMARK  status: ('A' for Active; 'I' for Inactive)
REMARK    1  A    between atoms: C_1  and  N_2
REMARK    2  A    between atoms: N_2  and  C_3
REMARK    3  A    between atoms: C_4  and  C_6
REMARK    4  A    between atoms: C_6  and  O_7
REMARK    5  A    between atoms: O_7  and  C_8
REMARK    6  A    between atoms: C_11  and  C_12
REMARK    7  A    between atoms: C_17  and  O_18
REMARK    8  A    between atoms: C_19  and  O_20
REMARK    9  A    between atoms: C_21  and  O_22
REMARK                            x       y       z     vdW  Elec       q    Type
REMARK                         _______ _______ _______ _____ _____    ______ ____
ROOT
ATOM      1  C   UNL     1       2.673   7.225  18.462  0.00  0.00    +0.000 A 
ATOM      2  C   UNL     1       2.243   5.997  18.785  0.00  0.00    +0.000 A 
ATOM      3  C   UNL     1       3.106   4.853  18.572  0.00  0.00    +0.000 A 
ATOM      4  O   UNL     1       2.909   3.778  19.118  0.00  0.00    +0.000 OA
ATOM      5  C   UNL     1       4.178   5.037  17.608  0.00  0.00    +0.000 A 
ATOM      6  C   UNL     1       4.783   3.910  17.048  0.00  0.00    +0.000 A 
ATOM      7  C   UNL     1       5.626   4.080  15.969  0.00  0.00    +0.000 A 
ATOM      8  C   UNL     1       5.902   5.360  15.493  0.00  0.00    +0.000 A 
ATOM      9  C   UNL     1       5.357   6.500  16.103  0.00  0.00    +0.000 A 
ATOM     10  C   UNL     1       4.463   6.338  17.166  0.00  0.00    +0.000 A 
ATOM     11  O   UNL     1       3.840   7.453  17.723  0.00  0.00    +0.000 OA
ENDROOT
BRANCH   1  15
ATOM     12  C   UNL     1      -0.112  10.258  19.763  0.00  0.00    +0.000 A 
ATOM     13  C   UNL     1       0.490   9.407  20.673  0.00  0.00    +0.000 A 
ATOM     14  C   UNL     1       1.467   8.514  20.235  0.00  0.00    +0.000 A 
ATOM     15  C   UNL     1       1.818   8.374  18.871  0.00  0.00    +0.000 A 
ATOM     16  C   UNL     1       1.271   9.299  17.979  0.00  0.00    +0.000 A 
ATOM     17  C   UNL     1       0.306  10.225  18.426  0.00  0.00    +0.000 A 
BRANCH  12  18
ATOM     18  O   UNL     1      -1.120  11.131  20.063  0.00  0.00    +0.000 OA
BRANCH  18  19
ATOM     19  C   UNL     1      -0.854  12.516  19.857  0.00  0.00    +0.000 C 
BRANCH  19  23
ATOM     20  C   UNL     1       2.556  13.915  20.918  0.00  0.00    +0.000 C 
ATOM     21  N   UNL     1       1.407  13.559  20.105  0.00  0.00    +0.000 N 
ATOM     22  C   UNL     1       1.510  13.707  18.663  0.00  0.00    +0.000 C 
ATOM     23  C   UNL     1       0.286  13.029  20.746  0.00  0.00    +0.000 C 
ATOM     24  O   UNL     1       0.240  12.892  21.968  0.00  0.00    +0.000 OA
ENDBRANCH  19  23
ENDBRANCH  18  19
ENDBRANCH  12  18
ENDBRANCH   1  15
BRANCH   6  25
ATOM     25  O   UNL     1       4.539   2.626  17.465  0.00  0.00    +0.000 OA
ATOM     26  H   UNL     1       3.766   2.288  16.952  0.00  0.00    +0.000 HD
ENDBRANCH   6  25
BRANCH   7  27
ATOM     27  O   UNL     1       6.149   2.988  15.330  0.00  0.00    +0.000 OA
ATOM     28  H   UNL     1       5.921   3.130  14.385  0.00  0.00    +0.000 HD
ENDBRANCH   7  27
BRANCH   8  29
ATOM     29  O   UNL     1       6.688   5.493  14.381  0.00  0.00    +0.000 OA
ATOM     30  H   UNL     1       7.547   5.093  14.635  0.00  0.00    +0.000 HD
ENDBRANCH   8  29
TORSDOF 7
ENDMDL
MODEL 7
REMARK VINA RESULT:      -7.8      0.679      1.147
REMARK  Name = 
REMARK  9 active torsions:
REMARK  status: ('A' for Active; 'I' for Inactive)
REMARK    1  A    between atoms: C_1  and  N_2
REMARK    2  A    between atoms: N_2  and  C_3
REMARK    3  A    between atoms: C_4  and  C_6
REMARK    4  A    between atoms: C_6  and  O_7
REMARK    5  A    between atoms: O_7  and  C_8
REMARK    6  A    between atoms: C_11  and  C_12
REMARK    7  A    between atoms: C_17  and  O_18
REMARK    8  A    between atoms: C_19  and  O_20
REMARK    9  A    between atoms: C_21  and  O_22
REMARK                            x       y       z     vdW  Elec       q    Type
REMARK                         _______ _______ _______ _____ _____    ______ ____
ROOT
ATOM      1  C   UNL     1       2.662   7.172  18.565  0.00  0.00    +0.000 A 
ATOM      2  C   UNL     1       2.256   5.936  18.884  0.00  0.00    +0.000 A 
ATOM      3  C   UNL     1       3.134   4.807  18.654  0.00  0.00    +0.000 A 
ATOM      4  O   UNL     1       2.961   3.726  19.195  0.00  0.00    +0.000 OA
ATOM      5  C   UNL     1       4.193   5.016  17.679  0.00  0.00    +0.000 A 
ATOM      6  C   UNL     1       4.809   3.902  17.105  0.00  0.00    +0.000 A 
ATOM      7  C   UNL     1       5.637   4.092  16.018  0.00  0.00    +0.000 A 
ATOM      8  C   UNL     1       5.887   5.380  15.548  0.00  0.00    +0.000 A 
ATOM      9  C   UNL     1       5.331   6.506  16.172  0.00  0.00    +0.000 A 
ATOM     10  C   UNL     1       4.451   6.323  17.243  0.00  0.00    +0.000 A 
ATOM     11  O   UNL     1       3.817   7.425  17.814  0.00  0.00    +0.000 OA
ENDROOT
BRANCH   1  15
ATOM     12  C   UNL     1       0.489  10.720  19.723  0.00  0.00    +0.000 A 
ATOM     13  C   UNL     1       0.858  10.510  18.406  0.00  0.00    +0.000 A 
ATOM     14  C   UNL     1       1.459   9.305  18.047  0.00  0.00    +0.000 A 
ATOM     15  C   UNL     1       1.793   8.305  18.991  0.00  0.00    +0.000 A 
ATOM     16  C   UNL     1       1.334   8.490  20.297  0.00  0.00    +0.000 A 
ATOM     17  C   UNL     1       0.696   9.695  20.656  0.00  0.00    +0.000 A 
BRANCH  12  18
ATOM     18  O   UNL     1      -0.052  11.879  20.204  0.00  0.00    +0.000 OA
BRANCH  18  19
ATOM     19  C   UNL     1      -0.895  12.611  19.318  0.00  0.00    +0.000 C 
BRANCH  19  23
ATOM     20  C   UNL     1      -4.487  11.521  18.528  0.00  0.00    +0.000 C 
ATOM     21  N   UNL     1      -3.052  11.716  18.419  0.00  0.00    +0.000 N 
ATOM     22  C   UNL     1      -2.405  11.391  17.158  0.00  0.00    +0.000 C 
ATOM     23  C   UNL     1      -2.378  12.269  19.509  0.00  0.00    +0.000 C 
ATOM     24  O   UNL     1      -2.959  12.558  20.554  0.00  0.00    +0.000 OA
ENDBRANCH  19  23
ENDBRANCH  18  19
ENDBRANCH  12  18
ENDBRANCH   1  15
BRANCH   6  25
ATOM     25  O   UNL     1       4.591   2.611  17.516  0.00  0.00    +0.000 OA
ATOM     26  H   UNL     1       4.939   2.012  16.813  0.00  0.00    +0.000 HD
ENDBRANCH   6  25
BRANCH   7  27
ATOM     27  O   UNL     1       6.170   3.014  15.367  0.00  0.00    +0.000 OA
ATOM     28  H   UNL     1       5.962   2.252  15.951  0.00  0.00    +0.000 HD
ENDBRANCH   7  27
BRANCH   8  29
ATOM     29  O   UNL     1       6.658   5.532  14.428  0.00  0.00    +0.000 OA
ATOM     30  H   UNL     1       6.017   5.710  13.707  0.00  0.00    +0.000 HD
ENDBRANCH   8  29
TORSDOF 7
ENDMDL
MODEL 8
REMARK VINA RESULT:      -7.8      1.948      2.592
REMARK  Name = 
REMARK  9 active torsions:
REMARK  status: ('A' for Active; 'I' for Inactive)
REMARK    1  A    between atoms: C_1  and  N_2
REMARK    2  A    between atoms: N_2  and  C_3
REMARK    3  A    between atoms: C_4  and  C_6
REMARK    4  A    between atoms: C_6  and  O_7
REMARK    5  A    between atoms: O_7  and  C_8
REMARK    6  A    between atoms: C_11  and  C_12
REMARK    7  A    between atoms: C_17  and  O_18
REMARK    8  A    between atoms: C_19  and  O_20
REMARK    9  A    between atoms: C_21  and  O_22
REMARK                            x       y       z     vdW  Elec       q    Type
REMARK                         _______ _______ _______ _____ _____    ______ ____
ROOT
ATOM      1  C   UNL     1       2.695   7.136  18.650  0.00  0.00    +0.000 A 
ATOM      2  C   UNL     1       2.279   5.898  18.953  0.00  0.00    +0.000 A 
ATOM      3  C   UNL     1       3.141   4.764  18.691  0.00  0.00    +0.000 A 
ATOM      4  O   UNL     1       2.962   3.675  19.215  0.00  0.00    +0.000 OA
ATOM      5  C   UNL     1       4.188   4.978  17.705  0.00  0.00    +0.000 A 
ATOM      6  C   UNL     1       4.783   3.867  17.103  0.00  0.00    +0.000 A 
ATOM      7  C   UNL     1       5.598   4.068  16.008  0.00  0.00    +0.000 A 
ATOM      8  C   UNL     1       5.857   5.360  15.557  0.00  0.00    +0.000 A 
ATOM      9  C   UNL     1       5.322   6.482  16.208  0.00  0.00    +0.000 A 
ATOM     10  C   UNL     1       4.455   6.290  17.288  0.00  0.00    +0.000 A 
ATOM     11  O   UNL     1       3.842   7.388  17.888  0.00  0.00    +0.000 OA
ENDROOT
BRANCH   1  15
ATOM     12  C   UNL     1       0.589  10.681  19.931  0.00  0.00    +0.000 A 
ATOM     13  C   UNL     1       1.006  10.536  18.619  0.00  0.00    +0.000 A 
ATOM     14  C   UNL     1       1.583   9.334  18.213  0.00  0.00    +0.000 A 
ATOM     15  C   UNL     1       1.845   8.271  19.109  0.00  0.00    +0.000 A 
ATOM     16  C   UNL     1       1.338   8.395  20.404  0.00  0.00    +0.000 A 
ATOM     17  C   UNL     1       0.724   9.598  20.808  0.00  0.00    +0.000 A 
BRANCH  12  18
ATOM     18  O   UNL     1       0.065  11.828  20.459  0.00  0.00    +0.000 OA
BRANCH  18  19
ATOM     19  C   UNL     1      -1.331  11.826  20.746  0.00  0.00    +0.000 C 
BRANCH  19  23
ATOM     20  C   UNL     1      -3.146  12.969  23.926  0.00  0.00    +0.000 C 
ATOM     21  N   UNL     1      -2.895  12.566  22.553  0.00  0.00    +0.000 N 
ATOM     22  C   UNL     1      -3.960  12.738  21.579  0.00  0.00    +0.000 C 
ATOM     23  C   UNL     1      -1.621  12.098  22.227  0.00  0.00    +0.000 C 
ATOM     24  O   UNL     1      -0.733  11.988  23.072  0.00  0.00    +0.000 OA
ENDBRANCH  19  23
ENDBRANCH  18  19
ENDBRANCH  12  18
ENDBRANCH   1  15
BRANCH   6  25
ATOM     25  O   UNL     1       4.556   2.572  17.494  0.00  0.00    +0.000 OA
ATOM     26  H   UNL     1       3.792   2.580  18.120  0.00  0.00    +0.000 HD
ENDBRANCH   6  25
BRANCH   7  27
ATOM     27  O   UNL     1       6.110   2.995  15.330  0.00  0.00    +0.000 OA
ATOM     28  H   UNL     1       6.797   3.384  14.746  0.00  0.00    +0.000 HD
ENDBRANCH   7  27
BRANCH   8  29
ATOM     29  O   UNL     1       6.613   5.524  14.429  0.00  0.00    +0.000 OA
ATOM     30  H   UNL     1       7.457   5.909  14.750  0.00  0.00    +0.000 HD
ENDBRANCH   8  29
TORSDOF 7
ENDMDL
MODEL 9
REMARK VINA RESULT:      -7.7      2.506      3.589
REMARK  Name = 
REMARK  9 active torsions:
REMARK  status: ('A' for Active; 'I' for Inactive)
REMARK    1  A    between atoms: C_1  and  N_2
REMARK    2  A    between atoms: N_2  and  C_3
REMARK    3  A    between atoms: C_4  and  C_6
REMARK    4  A    between atoms: C_6  and  O_7
REMARK    5  A    between atoms: O_7  and  C_8
REMARK    6  A    between atoms: C_11  and  C_12
REMARK    7  A    between atoms: C_17  and  O_18
REMARK    8  A    between atoms: C_19  and  O_20
REMARK    9  A    between atoms: C_21  and  O_22
REMARK                            x       y       z     vdW  Elec       q    Type
REMARK                         _______ _______ _______ _____ _____    ______ ____
ROOT
ATOM      1  C   UNL     1       2.530   7.148  18.255  0.00  0.00    +0.000 A 
ATOM      2  C   UNL     1       3.810   7.101  17.858  0.00  0.00    +0.000 A 
ATOM      3  C   UNL     1       4.327   5.900  17.236  0.00  0.00    +0.000 A 
ATOM      4  O   UNL     1       5.360   5.898  16.584  0.00  0.00    +0.000 OA
ATOM      5  C   UNL     1       3.583   4.679  17.496  0.00  0.00    +0.000 A 
ATOM      6  C   UNL     1       4.211   3.449  17.290  0.00  0.00    +0.000 A 
ATOM      7  C   UNL     1       3.597   2.307  17.759  0.00  0.00    +0.000 A 
ATOM      8  C   UNL     1       2.349   2.386  18.374  0.00  0.00    +0.000 A 
ATOM      9  C   UNL     1       1.680   3.612  18.511  0.00  0.00    +0.000 A 
ATOM     10  C   UNL     1       2.314   4.783  18.086  0.00  0.00    +0.000 A 
ATOM     11  O   UNL     1       1.704   6.017  18.300  0.00  0.00    +0.000 OA
ENDROOT
BRANCH   1  15
ATOM     12  C   UNL     1       0.626  10.769  19.637  0.00  0.00    +0.000 A 
ATOM     13  C   UNL     1       0.798   9.687  20.484  0.00  0.00    +0.000 A 
ATOM     14  C   UNL     1       1.515   8.577  20.040  0.00  0.00    +0.000 A 
ATOM     15  C   UNL     1       2.009   8.465  18.719  0.00  0.00    +0.000 A 
ATOM     16  C   UNL     1       1.909   9.596  17.908  0.00  0.00    +0.000 A 
ATOM     17  C   UNL     1       1.212  10.734  18.366  0.00  0.00    +0.000 A 
BRANCH  12  18
ATOM     18  O   UNL     1      -0.105  11.884  19.939  0.00  0.00    +0.000 OA
BRANCH  18  19
ATOM     19  C   UNL     1       0.115  12.471  21.219  0.00  0.00    +0.000 C 
BRANCH  19  23
ATOM     20  C   UNL     1      -3.065  12.280  23.355  0.00  0.00    +0.000 C 
ATOM     21  N   UNL     1      -1.755  11.977  22.807  0.00  0.00    +0.000 N 
ATOM     22  C   UNL     1      -1.129  10.717  23.171  0.00  0.00    +0.000 C 
ATOM     23  C   UNL     1      -1.194  12.882  21.904  0.00  0.00    +0.000 C 
ATOM     24  O   UNL     1      -1.761  13.930  21.596  0.00  0.00    +0.000 OA
ENDBRANCH  19  23
ENDBRANCH  18  19
ENDBRANCH  12  18
ENDBRANCH   1  15
BRANCH   6  25
ATOM     25  O   UNL     1       5.444   3.310  16.704  0.00  0.00    +0.000 OA
ATOM     26  H   UNL     1       5.505   2.389  16.353  0.00  0.00    +0.000 HD
ENDBRANCH   6  25
BRANCH   7  27
ATOM     27  O   UNL     1       4.236   1.100  17.669  0.00  0.00    +0.000 OA
ATOM     28  H   UNL     1       4.262   0.912  16.705  0.00  0.00    +0.000 HD
ENDBRANCH   7  27
BRANCH   8  29
ATOM     29  O   UNL     1       1.795   1.246  18.887  0.00  0.00    +0.000 OA
ATOM     30  H   UNL     1       2.465   0.906  19.517  0.00  0.00    +0.000 HD
ENDBRANCH   8  29
TORSDOF 7
ENDMDL
