MODEL 1
REMARK VINA RESULT:      -7.5      0.000      0.000
REMARK  Name = 
REMARK  1 active torsions:
REMARK  status: ('A' for Active; 'I' for Inactive)
REMARK    1  A    between atoms: C_8  and  N_9
REMARK                            x       y       z     vdW  Elec       q    Type
REMARK                         _______ _______ _______ _____ _____    ______ ____
ROOT
ATOM      1  O   UNL     1       8.270   4.046  17.653  0.00  0.00    +0.000 OA
ATOM      2  C   UNL     1       7.249   4.703  17.771  0.00  0.00    +0.000 C 
ATOM      3  C   UNL     1       6.777   5.829  16.839  0.00  0.00    +0.000 C 
ATOM      4  N   UNL     1       5.590   6.286  17.539  0.00  0.00    +0.000 N 
ATOM      5  C   UNL     1       4.498   6.955  16.884  0.00  0.00    +0.000 C 
ATOM      6  C   UNL     1       3.477   7.336  17.929  0.00  0.00    +0.000 A 
ATOM      7  C   UNL     1       2.608   8.426  17.736  0.00  0.00    +0.000 A 
ATOM      8  C   UNL     1       1.670   8.820  18.710  0.00  0.00    +0.000 A 
ATOM      9  C   UNL     1       1.602   8.010  19.874  0.00  0.00    +0.000 A 
ATOM     10 CL   UNL     1       0.401   8.237  21.110  0.00  0.00    +0.000 Cl
ATOM     11  C   UNL     1       2.458   6.916  20.067  0.00  0.00    +0.000 A 
ATOM     12  C   UNL     1       3.407   6.580  19.110  0.00  0.00    +0.000 A 
ATOM     13  N   UNL     1       4.301   5.520  19.375  0.00  0.00    +0.000 NA
ATOM     14  C   UNL     1       5.323   5.475  18.600  0.00  0.00    +0.000 C 
ATOM     15  N   UNL     1       6.302   4.563  18.751  0.00  0.00    +0.000 N 
ATOM     16  H   UNL     1       6.333   3.882  19.489  0.00  0.00    +0.000 HD
ENDROOT
BRANCH   8  17
ATOM     17  N   UNL     1       0.891   9.948  18.499  0.00  0.00    +0.000 N 
ATOM     18  C   UNL     1       1.186  11.263  19.091  0.00  0.00    +0.000 C 
ATOM     19  C   UNL     1       0.038  11.717  20.005  0.00  0.00    +0.000 C 
ATOM     20  O   UNL     1      -1.219  11.715  19.309  0.00  0.00    +0.000 OA
ATOM     21  C   UNL     1      -1.522  10.393  18.840  0.00  0.00    +0.000 C 
ATOM     22  C   UNL     1      -0.446   9.858  17.880  0.00  0.00    +0.000 C 
ENDBRANCH   8  17
TORSDOF 1
ENDMDL
MODEL 2
REMARK VINA RESULT:      -6.8      1.364      1.986
REMARK  Name = 
REMARK  1 active torsions:
REMARK  status: ('A' for Active; 'I' for Inactive)
REMARK    1  A    between atoms: C_8  and  N_9
REMARK                            x       y       z     vdW  Elec       q    Type
REMARK                         _______ _______ _______ _____ _____    ______ ____
ROOT
ATOM      1  O   UNL     1       6.409   4.309  17.261  0.00  0.00    +0.000 OA
ATOM      2  C   UNL     1       5.518   5.072  17.596  0.00  0.00    +0.000 C 
ATOM      3  C   UNL     1       5.068   6.333  16.843  0.00  0.00    +0.000 C 
ATOM      4  N   UNL     1       4.076   6.863  17.763  0.00  0.00    +0.000 N 
ATOM      5  C   UNL     1       2.998   7.722  17.349  0.00  0.00    +0.000 C 
ATOM      6  C   UNL     1       2.213   8.123  18.575  0.00  0.00    +0.000 A 
ATOM      7  C   UNL     1       1.483   9.324  18.612  0.00  0.00    +0.000 A 
ATOM      8  C   UNL     1       0.768   9.735  19.755  0.00  0.00    +0.000 A 
ATOM      9  C   UNL     1       0.770   8.830  20.849  0.00  0.00    +0.000 A 
ATOM     10 CL   UNL     1      -0.184   9.082  22.280  0.00  0.00    +0.000 Cl
ATOM     11  C   UNL     1       1.488   7.625  20.814  0.00  0.00    +0.000 A 
ATOM     12  C   UNL     1       2.223   7.270  19.690  0.00  0.00    +0.000 A 
ATOM     13  N   UNL     1       2.993   6.087  19.723  0.00  0.00    +0.000 NA
ATOM     14  C   UNL     1       3.868   5.991  18.788  0.00  0.00    +0.000 C 
ATOM     15  N   UNL     1       4.724   4.955  18.705  0.00  0.00    +0.000 N 
ATOM     16  H   UNL     1       4.774   4.207  19.375  0.00  0.00    +0.000 HD
ENDROOT
BRANCH   8  17
ATOM     17  N   UNL     1       0.129  10.965  19.762  0.00  0.00    +0.000 N 
ATOM     18  C   UNL     1      -1.268  11.158  19.341  0.00  0.00    +0.000 C 
ATOM     19  C   UNL     1      -1.346  12.110  18.137  0.00  0.00    +0.000 C 
ATOM     20  O   UNL     1      -0.696  13.360  18.414  0.00  0.00    +0.000 OA
ATOM     21  C   UNL     1       0.690  13.139  18.716  0.00  0.00    +0.000 C 
ATOM     22  C   UNL     1       0.879  12.224  19.937  0.00  0.00    +0.000 C 
ENDBRANCH   8  17
TORSDOF 1
ENDMDL
MODEL 3
REMARK VINA RESULT:      -6.8      2.859      7.455
REMARK  Name = 
REMARK  1 active torsions:
REMARK  status: ('A' for Active; 'I' for Inactive)
REMARK    1  A    between atoms: C_8  and  N_9
REMARK                            x       y       z     vdW  Elec       q    Type
REMARK                         _______ _______ _______ _____ _____    ______ ____
ROOT
ATOM      1  O   UNL     1      -0.445  11.530  22.839  0.00  0.00    +0.000 OA
ATOM      2  C   UNL     1       0.045  10.637  22.167  0.00  0.00    +0.000 C 
ATOM      3  C   UNL     1       0.162   9.158  22.565  0.00  0.00    +0.000 C 
ATOM      4  N   UNL     1       0.909   8.628  21.438  0.00  0.00    +0.000 N 
ATOM      5  C   UNL     1       0.859   7.247  21.040  0.00  0.00    +0.000 C 
ATOM      6  C   UNL     1       1.806   7.052  19.880  0.00  0.00    +0.000 A 
ATOM      7  C   UNL     1       2.393   5.800  19.619  0.00  0.00    +0.000 A 
ATOM      8  C   UNL     1       3.304   5.602  18.563  0.00  0.00    +0.000 A 
ATOM      9  C   UNL     1       3.543   6.725  17.728  0.00  0.00    +0.000 A 
ATOM     10 CL   UNL     1       4.504   6.636  16.282  0.00  0.00    +0.000 Cl
ATOM     11  C   UNL     1       2.953   7.973  17.976  0.00  0.00    +0.000 A 
ATOM     12  C   UNL     1       2.096   8.151  19.055  0.00  0.00    +0.000 A 
ATOM     13  N   UNL     1       1.583   9.440  19.316  0.00  0.00    +0.000 NA
ATOM     14  C   UNL     1       1.064   9.585  20.481  0.00  0.00    +0.000 C 
ATOM     15  N   UNL     1       0.580  10.764  20.914  0.00  0.00    +0.000 N 
ATOM     16  H   UNL     1       0.619  11.619  20.387  0.00  0.00    +0.000 HD
ENDROOT
BRANCH   8  17
ATOM     17  N   UNL     1       3.909   4.366  18.399  0.00  0.00    +0.000 N 
ATOM     18  C   UNL     1       3.536   3.410  17.344  0.00  0.00    +0.000 C 
ATOM     19  C   UNL     1       3.025   2.097  17.958  0.00  0.00    +0.000 C 
ATOM     20  O   UNL     1       3.981   1.537  18.870  0.00  0.00    +0.000 OA
ATOM     21  C   UNL     1       4.239   2.456  19.942  0.00  0.00    +0.000 C 
ATOM     22  C   UNL     1       4.795   3.797  19.434  0.00  0.00    +0.000 C 
ENDBRANCH   8  17
TORSDOF 1
ENDMDL
MODEL 4
REMARK VINA RESULT:      -6.8      2.479      3.332
REMARK  Name = 
REMARK  1 active torsions:
REMARK  status: ('A' for Active; 'I' for Inactive)
REMARK    1  A    between atoms: C_8  and  N_9
REMARK                            x       y       z     vdW  Elec       q    Type
REMARK                         _______ _______ _______ _____ _____    ______ ____
ROOT
ATOM      1  O   UNL     1       3.761   0.962  18.544  0.00  0.00    +0.000 OA
ATOM      2  C   UNL     1       3.460   2.121  18.775  0.00  0.00    +0.000 C 
ATOM      3  C   UNL     1       2.602   2.623  19.946  0.00  0.00    +0.000 C 
ATOM      4  N   UNL     1       2.508   4.038  19.632  0.00  0.00    +0.000 N 
ATOM      5  C   UNL     1       2.265   5.050  20.625  0.00  0.00    +0.000 C 
ATOM      6  C   UNL     1       2.169   6.386  19.928  0.00  0.00    +0.000 A 
ATOM      7  C   UNL     1       1.429   7.446  20.483  0.00  0.00    +0.000 A 
ATOM      8  C   UNL     1       1.298   8.691  19.836  0.00  0.00    +0.000 A 
ATOM      9  C   UNL     1       2.017   8.839  18.620  0.00  0.00    +0.000 A 
ATOM     10 CL   UNL     1       2.114  10.348  17.763  0.00  0.00    +0.000 Cl
ATOM     11  C   UNL     1       2.765   7.790  18.068  0.00  0.00    +0.000 A 
ATOM     12  C   UNL     1       2.836   6.557  18.704  0.00  0.00    +0.000 A 
ATOM     13  N   UNL     1       3.536   5.503  18.078  0.00  0.00    +0.000 NA
ATOM     14  C   UNL     1       3.298   4.339  18.564  0.00  0.00    +0.000 C 
ATOM     15  N   UNL     1       3.837   3.218  18.049  0.00  0.00    +0.000 N 
ATOM     16  H   UNL     1       4.427   3.196  17.235  0.00  0.00    +0.000 HD
ENDROOT
BRANCH   8  17
ATOM     17  N   UNL     1       0.495   9.674  20.391  0.00  0.00    +0.000 N 
ATOM     18  C   UNL     1      -0.848  10.008  19.889  0.00  0.00    +0.000 C 
ATOM     19  C   UNL     1      -0.902  11.467  19.411  0.00  0.00    +0.000 C 
ATOM     20  O   UNL     1      -0.479  12.373  20.442  0.00  0.00    +0.000 OA
ATOM     21  C   UNL     1       0.872  12.083  20.830  0.00  0.00    +0.000 C 
ATOM     22  C   UNL     1       1.027  10.649  21.364  0.00  0.00    +0.000 C 
ENDBRANCH   8  17
TORSDOF 1
ENDMDL
MODEL 5
REMARK VINA RESULT:      -6.7      4.105      5.293
REMARK  Name = 
REMARK  1 active torsions:
REMARK  status: ('A' for Active; 'I' for Inactive)
REMARK    1  A    between atoms: C_8  and  N_9
REMARK                            x       y       z     vdW  Elec       q    Type
REMARK                         _______ _______ _______ _____ _____    ______ ____
ROOT
ATOM      1  O   UNL     1       7.669   4.652  12.092  0.00  0.00    +0.000 OA
ATOM      2  C   UNL     1       7.021   4.713  13.123  0.00  0.00    +0.000 C 
ATOM      3  C   UNL     1       6.437   3.525  13.903  0.00  0.00    +0.000 C 
ATOM      4  N   UNL     1       5.700   4.217  14.946  0.00  0.00    +0.000 N 
ATOM      5  C   UNL     1       5.392   3.622  16.219  0.00  0.00    +0.000 C 
ATOM      6  C   UNL     1       4.568   4.604  17.016  0.00  0.00    +0.000 A 
ATOM      7  C   UNL     1       3.677   4.168  18.013  0.00  0.00    +0.000 A 
ATOM      8  C   UNL     1       2.874   5.063  18.748  0.00  0.00    +0.000 A 
ATOM      9  C   UNL     1       3.067   6.442  18.472  0.00  0.00    +0.000 A 
ATOM     10 CL   UNL     1       2.292   7.702  19.386  0.00  0.00    +0.000 Cl
ATOM     11  C   UNL     1       3.961   6.884  17.487  0.00  0.00    +0.000 A 
ATOM     12  C   UNL     1       4.704   5.975  16.744  0.00  0.00    +0.000 A 
ATOM     13  N   UNL     1       5.536   6.455  15.709  0.00  0.00    +0.000 NA
ATOM     14  C   UNL     1       5.939   5.556  14.885  0.00  0.00    +0.000 C 
ATOM     15  N   UNL     1       6.692   5.851  13.809  0.00  0.00    +0.000 N 
ATOM     16  H   UNL     1       6.963   6.782  13.545  0.00  0.00    +0.000 HD
ENDROOT
BRANCH   8  17
ATOM     17  N   UNL     1       1.959   4.571  19.666  0.00  0.00    +0.000 N 
ATOM     18  C   UNL     1       2.071   4.779  21.119  0.00  0.00    +0.000 C 
ATOM     19  C   UNL     1       2.202   3.435  21.851  0.00  0.00    +0.000 C 
ATOM     20  O   UNL     1       1.120   2.550  21.521  0.00  0.00    +0.000 OA
ATOM     21  C   UNL     1       1.109   2.287  20.110  0.00  0.00    +0.000 C 
ATOM     22  C   UNL     1       0.941   3.573  19.283  0.00  0.00    +0.000 C 
ENDBRANCH   8  17
TORSDOF 1
ENDMDL
MODEL 6
REMARK VINA RESULT:      -6.7      2.208      7.292
REMARK  Name = 
REMARK  1 active torsions:
REMARK  status: ('A' for Active; 'I' for Inactive)
REMARK    1  A    between atoms: C_8  and  N_9
REMARK                            x       y       z     vdW  Elec       q    Type
REMARK                         _______ _______ _______ _____ _____    ______ ____
ROOT
ATOM      1  O   UNL     1      -1.420  13.534  20.016  0.00  0.00    +0.000 OA
ATOM      2  C   UNL     1      -0.782  12.507  19.858  0.00  0.00    +0.000 C 
ATOM      3  C   UNL     1      -0.125  12.034  18.552  0.00  0.00    +0.000 C 
ATOM      4  N   UNL     1       0.379  10.733  18.953  0.00  0.00    +0.000 N 
ATOM      5  C   UNL     1       1.489  10.085  18.306  0.00  0.00    +0.000 C 
ATOM      6  C   UNL     1       1.686   8.731  18.944  0.00  0.00    +0.000 A 
ATOM      7  C   UNL     1       2.279   7.670  18.235  0.00  0.00    +0.000 A 
ATOM      8  C   UNL     1       2.445   6.389  18.798  0.00  0.00    +0.000 A 
ATOM      9  C   UNL     1       2.042   6.247  20.152  0.00  0.00    +0.000 A 
ATOM     10 CL   UNL     1       2.317   4.796  21.069  0.00  0.00    +0.000 Cl
ATOM     11  C   UNL     1       1.460   7.304  20.868  0.00  0.00    +0.000 A 
ATOM     12  C   UNL     1       1.265   8.543  20.270  0.00  0.00    +0.000 A 
ATOM     13  N   UNL     1       0.606   9.557  20.999  0.00  0.00    +0.000 NA
ATOM     14  C   UNL     1       0.194  10.544  20.289  0.00  0.00    +0.000 C 
ATOM     15  N   UNL     1      -0.503  11.569  20.816  0.00  0.00    +0.000 N 
ATOM     16  H   UNL     1      -0.785  11.626  21.779  0.00  0.00    +0.000 HD
ENDROOT
BRANCH   8  17
ATOM     17  N   UNL     1       2.966   5.361  18.028  0.00  0.00    +0.000 N 
ATOM     18  C   UNL     1       2.148   4.284  17.448  0.00  0.00    +0.000 C 
ATOM     19  C   UNL     1       2.585   2.916  17.994  0.00  0.00    +0.000 C 
ATOM     20  O   UNL     1       3.988   2.691  17.786  0.00  0.00    +0.000 OA
ATOM     21  C   UNL     1       4.755   3.702  18.456  0.00  0.00    +0.000 C 
ATOM     22  C   UNL     1       4.419   5.115  17.950  0.00  0.00    +0.000 C 
ENDBRANCH   8  17
TORSDOF 1
ENDMDL
MODEL 7
REMARK VINA RESULT:      -6.7      2.269      7.429
REMARK  Name = 
REMARK  1 active torsions:
REMARK  status: ('A' for Active; 'I' for Inactive)
REMARK    1  A    between atoms: C_8  and  N_9
REMARK                            x       y       z     vdW  Elec       q    Type
REMARK                         _______ _______ _______ _____ _____    ______ ____
ROOT
ATOM      1  O   UNL     1      -1.112  10.993  22.558  0.00  0.00    +0.000 OA
ATOM      2  C   UNL     1      -0.406  10.238  21.911  0.00  0.00    +0.000 C 
ATOM      3  C   UNL     1       0.240   8.939  22.416  0.00  0.00    +0.000 C 
ATOM      4  N   UNL     1       1.024   8.553  21.256  0.00  0.00    +0.000 N 
ATOM      5  C   UNL     1       1.413   7.195  20.986  0.00  0.00    +0.000 C 
ATOM      6  C   UNL     1       2.267   7.184  19.740  0.00  0.00    +0.000 A 
ATOM      7  C   UNL     1       3.220   6.173  19.518  0.00  0.00    +0.000 A 
ATOM      8  C   UNL     1       4.050   6.159  18.380  0.00  0.00    +0.000 A 
ATOM      9  C   UNL     1       3.821   7.190  17.430  0.00  0.00    +0.000 A 
ATOM     10 CL   UNL     1       4.627   7.247  15.891  0.00  0.00    +0.000 Cl
ATOM     11  C   UNL     1       2.865   8.194  17.640  0.00  0.00    +0.000 A 
ATOM     12  C   UNL     1       2.094   8.209  18.796  0.00  0.00    +0.000 A 
ATOM     13  N   UNL     1       1.197   9.278  19.006  0.00  0.00    +0.000 NA
ATOM     14  C   UNL     1       0.762   9.384  20.210  0.00  0.00    +0.000 C 
ATOM     15  N   UNL     1      -0.056  10.381  20.595  0.00  0.00    +0.000 N 
ATOM     16  H   UNL     1      -0.356  11.131  19.997  0.00  0.00    +0.000 HD
ENDROOT
BRANCH   8  17
ATOM     17  N   UNL     1       5.024   5.182  18.250  0.00  0.00    +0.000 N 
ATOM     18  C   UNL     1       6.360   5.277  18.860  0.00  0.00    +0.000 C 
ATOM     19  C   UNL     1       7.453   5.269  17.781  0.00  0.00    +0.000 C 
ATOM     20  O   UNL     1       7.338   4.120  16.927  0.00  0.00    +0.000 OA
ATOM     21  C   UNL     1       6.063   4.119  16.268  0.00  0.00    +0.000 C 
ATOM     22  C   UNL     1       4.894   4.088  17.267  0.00  0.00    +0.000 C 
ENDBRANCH   8  17
TORSDOF 1
ENDMDL
MODEL 8
REMARK VINA RESULT:      -6.5      1.258      1.549
REMARK  Name = 
REMARK  1 active torsions:
REMARK  status: ('A' for Active; 'I' for Inactive)
REMARK    1  A    between atoms: C_8  and  N_9
REMARK                            x       y       z     vdW  Elec       q    Type
REMARK                         _______ _______ _______ _____ _____    ______ ____
ROOT
ATOM      1  O   UNL     1       6.517   4.004  18.163  0.00  0.00    +0.000 OA
ATOM      2  C   UNL     1       5.621   4.821  18.291  0.00  0.00    +0.000 C 
ATOM      3  C   UNL     1       5.278   5.956  17.314  0.00  0.00    +0.000 C 
ATOM      4  N   UNL     1       4.221   6.636  18.042  0.00  0.00    +0.000 N 
ATOM      5  C   UNL     1       3.210   7.434  17.400  0.00  0.00    +0.000 C 
ATOM      6  C   UNL     1       2.326   8.031  18.469  0.00  0.00    +0.000 A 
ATOM      7  C   UNL     1       1.630   9.233  18.251  0.00  0.00    +0.000 A 
ATOM      8  C   UNL     1       0.825   9.826  19.244  0.00  0.00    +0.000 A 
ATOM      9  C   UNL     1       0.700   9.102  20.459  0.00  0.00    +0.000 A 
ATOM     10 CL   UNL     1      -0.375   9.586  21.736  0.00  0.00    +0.000 Cl
ATOM     11  C   UNL     1       1.383   7.897  20.678  0.00  0.00    +0.000 A 
ATOM     12  C   UNL     1       2.209   7.361  19.698  0.00  0.00    +0.000 A 
ATOM     13  N   UNL     1       2.939   6.188  19.985  0.00  0.00    +0.000 NA
ATOM     14  C   UNL     1       3.893   5.936  19.164  0.00  0.00    +0.000 C 
ATOM     15  N   UNL     1       4.724   4.889  19.323  0.00  0.00    +0.000 N 
ATOM     16  H   UNL     1       4.691   4.253  20.101  0.00  0.00    +0.000 HD
ENDROOT
BRANCH   8  17
ATOM     17  N   UNL     1       0.222  11.051  19.001  0.00  0.00    +0.000 N 
ATOM     18  C   UNL     1       0.731  12.327  19.527  0.00  0.00    +0.000 C 
ATOM     19  C   UNL     1      -0.307  12.989  20.446  0.00  0.00    +0.000 C 
ATOM     20  O   UNL     1      -1.568  13.153  19.779  0.00  0.00    +0.000 OA
ATOM     21  C   UNL     1      -2.084  11.876  19.375  0.00  0.00    +0.000 C 
ATOM     22  C   UNL     1      -1.130  11.143  18.416  0.00  0.00    +0.000 C 
ENDBRANCH   8  17
TORSDOF 1
ENDMDL
MODEL 9
REMARK VINA RESULT:      -6.4      2.136      7.102
REMARK  Name = 
REMARK  1 active torsions:
REMARK  status: ('A' for Active; 'I' for Inactive)
REMARK    1  A    between atoms: C_8  and  N_9
REMARK                            x       y       z     vdW  Elec       q    Type
REMARK                         _______ _______ _______ _____ _____    ______ ____
ROOT
ATOM      1  O   UNL     1      -1.117  11.364  19.861  0.00  0.00    +0.000 OA
ATOM      2  C   UNL     1      -0.275  10.511  19.636  0.00  0.00    +0.000 C 
ATOM      3  C   UNL     1       0.627  10.427  18.396  0.00  0.00    +0.000 C 
ATOM      4  N   UNL     1       1.318   9.173  18.642  0.00  0.00    +0.000 N 
ATOM      5  C   UNL     1       2.608   8.862  18.087  0.00  0.00    +0.000 C 
ATOM      6  C   UNL     1       2.980   7.459  18.504  0.00  0.00    +0.000 A 
ATOM      7  C   UNL     1       3.856   6.677  17.730  0.00  0.00    +0.000 A 
ATOM      8  C   UNL     1       4.192   5.355  18.081  0.00  0.00    +0.000 A 
ATOM      9  C   UNL     1       3.649   4.877  19.303  0.00  0.00    +0.000 A 
ATOM     10 CL   UNL     1       4.077   3.337  19.985  0.00  0.00    +0.000 Cl
ATOM     11  C   UNL     1       2.783   5.656  20.084  0.00  0.00    +0.000 A 
ATOM     12  C   UNL     1       2.431   6.940  19.687  0.00  0.00    +0.000 A 
ATOM     13  N   UNL     1       1.497   7.663  20.461  0.00  0.00    +0.000 NA
ATOM     14  C   UNL     1       0.998   8.691  19.875  0.00  0.00    +0.000 C 
ATOM     15  N   UNL     1       0.051   9.458  20.448  0.00  0.00    +0.000 N 
ATOM     16  H   UNL     1      -0.362   9.272  21.345  0.00  0.00    +0.000 HD
ENDROOT
BRANCH   8  17
ATOM     17  N   UNL     1       5.001   4.604  17.242  0.00  0.00    +0.000 N 
ATOM     18  C   UNL     1       6.435   4.377  17.482  0.00  0.00    +0.000 C 
ATOM     19  C   UNL     1       7.277   4.954  16.333  0.00  0.00    +0.000 C 
ATOM     20  O   UNL     1       6.860   4.428  15.063  0.00  0.00    +0.000 OA
ATOM     21  C   UNL     1       5.485   4.762  14.817  0.00  0.00    +0.000 C 
ATOM     22  C   UNL     1       4.549   4.194  15.898  0.00  0.00    +0.000 C 
ENDBRANCH   8  17
TORSDOF 1
ENDMDL
