MODEL 1
REMARK VINA RESULT:      -7.0      0.000      0.000
REMARK  Name = 
REMARK  2 active torsions:
REMARK  status: ('A' for Active; 'I' for Inactive)
REMARK    1  A    between atoms: SE_1  and  C_2
REMARK    2  A    between atoms: C_2  and  C_3
REMARK                            x       y       z     vdW  Elec       q    Type
REMARK                         _______ _______ _______ _____ _____    ______ ____
ROOT
ATOM      1  C   UNL     1       3.103   5.812  18.583  0.00  0.00    +0.000 A 
ATOM      2  C   UNL     1       2.500   4.634  19.126  0.00  0.00    +0.000 A 
ATOM      3  C   UNL     1       1.613   4.660  20.230  0.00  0.00    +0.000 A 
ATOM      4  C   UNL     1       1.045   3.480  20.722  0.00  0.00    +0.000 A 
ATOM      5  C   UNL     1       1.340   2.257  20.127  0.00  0.00    +0.000 A 
ATOM      6  C   UNL     1       2.204   2.204  19.036  0.00  0.00    +0.000 A 
ATOM      7  C   UNL     1       2.782   3.377  18.536  0.00  0.00    +0.000 A 
ATOM      8  N   UNL     1       3.609   3.291  17.472  0.00  0.00    +0.000 NA
ATOM      9  C   UNL     1       4.201   4.373  16.921  0.00  0.00    +0.000 A 
ATOM     10  C   UNL     1       5.042   4.183  15.818  0.00  0.00    +0.000 A 
ATOM     11  C   UNL     1       5.675   5.266  15.221  0.00  0.00    +0.000 A 
ATOM     12  C   UNL     1       5.476   6.549  15.723  0.00  0.00    +0.000 A 
ATOM     13  C   UNL     1       4.639   6.757  16.824  0.00  0.00    +0.000 A 
ATOM     14  C   UNL     1       3.974   5.672  17.452  0.00  0.00    +0.000 A 
ENDROOT
BRANCH   1  15
ATOM     15  C   UNL     1       2.783   7.169  19.207  0.00  0.00    +0.000 C 
BRANCH  15  16
ATOM     16 SE   UNL     1       1.915   8.360  17.923  0.00  0.00    +0.000 Se
ATOM     17  H   UNL     1       3.268   8.755  17.307  0.00  0.00    +0.000 HD
ENDBRANCH  15  16
ENDBRANCH   1  15
TORSDOF 2
ENDMDL
MODEL 2
REMARK VINA RESULT:      -6.9      0.092      4.543
REMARK  Name = 
REMARK  2 active torsions:
REMARK  status: ('A' for Active; 'I' for Inactive)
REMARK    1  A    between atoms: SE_1  and  C_2
REMARK    2  A    between atoms: C_2  and  C_3
REMARK                            x       y       z     vdW  Elec       q    Type
REMARK                         _______ _______ _______ _____ _____    ______ ____
ROOT
ATOM      1  C   UNL     1       3.164   5.826  18.538  0.00  0.00    +0.000 A 
ATOM      2  C   UNL     1       4.033   5.642  17.417  0.00  0.00    +0.000 A 
ATOM      3  C   UNL     1       4.733   6.708  16.800  0.00  0.00    +0.000 A 
ATOM      4  C   UNL     1       5.576   6.476  15.708  0.00  0.00    +0.000 A 
ATOM      5  C   UNL     1       5.745   5.186  15.212  0.00  0.00    +0.000 A 
ATOM      6  C   UNL     1       5.074   4.120  15.804  0.00  0.00    +0.000 A 
ATOM      7  C   UNL     1       4.225   4.338  16.896  0.00  0.00    +0.000 A 
ATOM      8  N   UNL     1       3.595   3.280  17.451  0.00  0.00    +0.000 NA
ATOM      9  C   UNL     1       2.766   3.401  18.511  0.00  0.00    +0.000 A 
ATOM     10  C   UNL     1       2.161   2.245  19.018  0.00  0.00    +0.000 A 
ATOM     11  C   UNL     1       1.298   2.322  20.105  0.00  0.00    +0.000 A 
ATOM     12  C   UNL     1       1.031   3.554  20.694  0.00  0.00    +0.000 A 
ATOM     13  C   UNL     1       1.627   4.719  20.200  0.00  0.00    +0.000 A 
ATOM     14  C   UNL     1       2.517   4.673  19.095  0.00  0.00    +0.000 A 
ENDROOT
BRANCH   1  15
ATOM     15  C   UNL     1       2.973   7.229  19.111  0.00  0.00    +0.000 C 
BRANCH  15  16
ATOM     16 SE   UNL     1       1.882   8.341  17.930  0.00  0.00    +0.000 Se
ATOM     17  H   UNL     1       0.581   7.768  18.520  0.00  0.00    +0.000 HD
ENDBRANCH  15  16
ENDBRANCH   1  15
TORSDOF 2
ENDMDL
MODEL 3
REMARK VINA RESULT:      -6.8      1.637      4.787
REMARK  Name = 
REMARK  2 active torsions:
REMARK  status: ('A' for Active; 'I' for Inactive)
REMARK    1  A    between atoms: SE_1  and  C_2
REMARK    2  A    between atoms: C_2  and  C_3
REMARK                            x       y       z     vdW  Elec       q    Type
REMARK                         _______ _______ _______ _____ _____    ______ ____
ROOT
ATOM      1  C   UNL     1       3.244   5.772  18.606  0.00  0.00    +0.000 A 
ATOM      2  C   UNL     1       4.611   5.793  18.184  0.00  0.00    +0.000 A 
ATOM      3  C   UNL     1       5.154   6.826  17.380  0.00  0.00    +0.000 A 
ATOM      4  C   UNL     1       6.499   6.805  16.997  0.00  0.00    +0.000 A 
ATOM      5  C   UNL     1       7.330   5.767  17.408  0.00  0.00    +0.000 A 
ATOM      6  C   UNL     1       6.823   4.743  18.204  0.00  0.00    +0.000 A 
ATOM      7  C   UNL     1       5.478   4.750  18.592  0.00  0.00    +0.000 A 
ATOM      8  N   UNL     1       5.021   3.746  19.371  0.00  0.00    +0.000 NA
ATOM      9  C   UNL     1       3.741   3.680  19.796  0.00  0.00    +0.000 A 
ATOM     10  C   UNL     1       3.362   2.600  20.602  0.00  0.00    +0.000 A 
ATOM     11  C   UNL     1       2.054   2.489  21.061  0.00  0.00    +0.000 A 
ATOM     12  C   UNL     1       1.113   3.456  20.716  0.00  0.00    +0.000 A 
ATOM     13  C   UNL     1       1.475   4.541  19.912  0.00  0.00    +0.000 A 
ATOM     14  C   UNL     1       2.803   4.685  19.432  0.00  0.00    +0.000 A 
ENDROOT
BRANCH   1  15
ATOM     15  C   UNL     1       2.314   6.907  18.182  0.00  0.00    +0.000 C 
BRANCH  15  16
ATOM     16 SE   UNL     1       1.915   8.101  19.678  0.00  0.00    +0.000 Se
ATOM     17  H   UNL     1       2.566   9.294  18.957  0.00  0.00    +0.000 HD
ENDBRANCH  15  16
ENDBRANCH   1  15
TORSDOF 2
ENDMDL
MODEL 4
REMARK VINA RESULT:      -6.7      1.639      1.667
REMARK  Name = 
REMARK  2 active torsions:
REMARK  status: ('A' for Active; 'I' for Inactive)
REMARK    1  A    between atoms: SE_1  and  C_2
REMARK    2  A    between atoms: C_2  and  C_3
REMARK                            x       y       z     vdW  Elec       q    Type
REMARK                         _______ _______ _______ _____ _____    ______ ____
ROOT
ATOM      1  C   UNL     1       3.252   5.778  18.603  0.00  0.00    +0.000 A 
ATOM      2  C   UNL     1       2.817   4.692  19.427  0.00  0.00    +0.000 A 
ATOM      3  C   UNL     1       1.484   4.560  19.889  0.00  0.00    +0.000 A 
ATOM      4  C   UNL     1       1.106   3.477  20.689  0.00  0.00    +0.000 A 
ATOM      5  C   UNL     1       2.037   2.503  21.039  0.00  0.00    +0.000 A 
ATOM      6  C   UNL     1       3.352   2.606  20.593  0.00  0.00    +0.000 A 
ATOM      7  C   UNL     1       3.745   3.686  19.794  0.00  0.00    +0.000 A 
ATOM      8  N   UNL     1       5.026   3.751  19.372  0.00  0.00    +0.000 NA
ATOM      9  C   UNL     1       5.486   4.754  18.593  0.00  0.00    +0.000 A 
ATOM     10  C   UNL     1       6.830   4.733  18.204  0.00  0.00    +0.000 A 
ATOM     11  C   UNL     1       7.348   5.745  17.406  0.00  0.00    +0.000 A 
ATOM     12  C   UNL     1       6.527   6.789  16.989  0.00  0.00    +0.000 A 
ATOM     13  C   UNL     1       5.181   6.826  17.368  0.00  0.00    +0.000 A 
ATOM     14  C   UNL     1       4.622   5.804  18.179  0.00  0.00    +0.000 A 
ENDROOT
BRANCH   1  15
ATOM     15  C   UNL     1       2.246   6.851  18.191  0.00  0.00    +0.000 C 
BRANCH  15  16
ATOM     16 SE   UNL     1       1.918   8.119  19.643  0.00  0.00    +0.000 Se
ATOM     17  H   UNL     1       2.185   9.317  18.715  0.00  0.00    +0.000 HD
ENDBRANCH  15  16
ENDBRANCH   1  15
TORSDOF 2
ENDMDL
MODEL 5
REMARK VINA RESULT:      -6.6      1.515      4.526
REMARK  Name = 
REMARK  2 active torsions:
REMARK  status: ('A' for Active; 'I' for Inactive)
REMARK    1  A    between atoms: SE_1  and  C_2
REMARK    2  A    between atoms: C_2  and  C_3
REMARK                            x       y       z     vdW  Elec       q    Type
REMARK                         _______ _______ _______ _____ _____    ______ ____
ROOT
ATOM      1  C   UNL     1       3.203   5.639  18.043  0.00  0.00    +0.000 A 
ATOM      2  C   UNL     1       4.596   5.768  17.746  0.00  0.00    +0.000 A 
ATOM      3  C   UNL     1       5.215   7.013  17.470  0.00  0.00    +0.000 A 
ATOM      4  C   UNL     1       6.583   7.087  17.190  0.00  0.00    +0.000 A 
ATOM      5  C   UNL     1       7.363   5.934  17.184  0.00  0.00    +0.000 A 
ATOM      6  C   UNL     1       6.782   4.699  17.458  0.00  0.00    +0.000 A 
ATOM      7  C   UNL     1       5.412   4.610  17.737  0.00  0.00    +0.000 A 
ATOM      8  N   UNL     1       4.882   3.397  18.006  0.00  0.00    +0.000 NA
ATOM      9  C   UNL     1       3.573   3.223  18.294  0.00  0.00    +0.000 A 
ATOM     10  C   UNL     1       3.117   1.927  18.561  0.00  0.00    +0.000 A 
ATOM     11  C   UNL     1       1.779   1.699  18.858  0.00  0.00    +0.000 A 
ATOM     12  C   UNL     1       0.884   2.765  18.888  0.00  0.00    +0.000 A 
ATOM     13  C   UNL     1       1.322   4.066  18.624  0.00  0.00    +0.000 A 
ATOM     14  C   UNL     1       2.684   4.332  18.323  0.00  0.00    +0.000 A 
ENDROOT
BRANCH   1  15
ATOM     15  C   UNL     1       2.328   6.891  18.071  0.00  0.00    +0.000 C 
BRANCH  15  16
ATOM     16 SE   UNL     1       2.023   7.508  19.901  0.00  0.00    +0.000 Se
ATOM     17  H   UNL     1       0.625   8.037  19.537  0.00  0.00    +0.000 HD
ENDBRANCH  15  16
ENDBRANCH   1  15
TORSDOF 2
ENDMDL
MODEL 6
REMARK VINA RESULT:      -6.5      2.207      5.222
REMARK  Name = 
REMARK  2 active torsions:
REMARK  status: ('A' for Active; 'I' for Inactive)
REMARK    1  A    between atoms: SE_1  and  C_2
REMARK    2  A    between atoms: C_2  and  C_3
REMARK                            x       y       z     vdW  Elec       q    Type
REMARK                         _______ _______ _______ _____ _____    ______ ____
ROOT
ATOM      1  C   UNL     1       3.427   4.202  18.315  0.00  0.00    +0.000 A 
ATOM      2  C   UNL     1       4.257   4.590  17.216  0.00  0.00    +0.000 A 
ATOM      3  C   UNL     1       4.935   3.656  16.394  0.00  0.00    +0.000 A 
ATOM      4  C   UNL     1       5.731   4.085  15.327  0.00  0.00    +0.000 A 
ATOM      5  C   UNL     1       5.865   5.443  15.052  0.00  0.00    +0.000 A 
ATOM      6  C   UNL     1       5.205   6.382  15.840  0.00  0.00    +0.000 A 
ATOM      7  C   UNL     1       4.407   5.966  16.913  0.00  0.00    +0.000 A 
ATOM      8  N   UNL     1       3.774   6.903  17.653  0.00  0.00    +0.000 NA
ATOM      9  C   UNL     1       2.979   6.588  18.700  0.00  0.00    +0.000 A 
ATOM     10  C   UNL     1       2.365   7.629  19.405  0.00  0.00    +0.000 A 
ATOM     11  C   UNL     1       1.542   7.353  20.490  0.00  0.00    +0.000 A 
ATOM     12  C   UNL     1       1.327   6.035  20.882  0.00  0.00    +0.000 A 
ATOM     13  C   UNL     1       1.933   4.983  20.188  0.00  0.00    +0.000 A 
ATOM     14  C   UNL     1       2.775   5.231  19.073  0.00  0.00    +0.000 A 
ENDROOT
BRANCH   1  15
ATOM     15  C   UNL     1       3.250   2.718  18.629  0.00  0.00    +0.000 C 
BRANCH  15  16
ATOM     16 SE   UNL     1       4.371   2.167  20.134  0.00  0.00    +0.000 Se
ATOM     17  H   UNL     1       4.465   3.613  20.650  0.00  0.00    +0.000 HD
ENDBRANCH  15  16
ENDBRANCH   1  15
TORSDOF 2
ENDMDL
MODEL 7
REMARK VINA RESULT:      -6.5      2.191      3.380
REMARK  Name = 
REMARK  2 active torsions:
REMARK  status: ('A' for Active; 'I' for Inactive)
REMARK    1  A    between atoms: SE_1  and  C_2
REMARK    2  A    between atoms: C_2  and  C_3
REMARK                            x       y       z     vdW  Elec       q    Type
REMARK                         _______ _______ _______ _____ _____    ______ ____
ROOT
ATOM      1  C   UNL     1       3.388   4.183  18.299  0.00  0.00    +0.000 A 
ATOM      2  C   UNL     1       2.753   5.214  19.059  0.00  0.00    +0.000 A 
ATOM      3  C   UNL     1       1.912   4.948  20.169  0.00  0.00    +0.000 A 
ATOM      4  C   UNL     1       1.317   5.992  20.884  0.00  0.00    +0.000 A 
ATOM      5  C   UNL     1       1.547   7.315  20.519  0.00  0.00    +0.000 A 
ATOM      6  C   UNL     1       2.373   7.604  19.437  0.00  0.00    +0.000 A 
ATOM      7  C   UNL     1       2.974   6.569  18.710  0.00  0.00    +0.000 A 
ATOM      8  N   UNL     1       3.776   6.885  17.670  0.00  0.00    +0.000 NA
ATOM      9  C   UNL     1       4.400   5.949  16.922  0.00  0.00    +0.000 A 
ATOM     10  C   UNL     1       5.214   6.375  15.866  0.00  0.00    +0.000 A 
ATOM     11  C   UNL     1       5.872   5.448  15.067  0.00  0.00    +0.000 A 
ATOM     12  C   UNL     1       5.723   4.087  15.316  0.00  0.00    +0.000 A 
ATOM     13  C   UNL     1       4.914   3.644  16.367  0.00  0.00    +0.000 A 
ATOM     14  C   UNL     1       4.232   4.566  17.204  0.00  0.00    +0.000 A 
ENDROOT
BRANCH   1  15
ATOM     15  C   UNL     1       3.165   2.723  18.689  0.00  0.00    +0.000 C 
BRANCH  15  16
ATOM     16 SE   UNL     1       4.395   2.165  20.102  0.00  0.00    +0.000 Se
ATOM     17  H   UNL     1       4.738   3.626  20.442  0.00  0.00    +0.000 HD
ENDBRANCH  15  16
ENDBRANCH   1  15
TORSDOF 2
ENDMDL
MODEL 8
REMARK VINA RESULT:      -6.5      1.540      1.624
REMARK  Name = 
REMARK  2 active torsions:
REMARK  status: ('A' for Active; 'I' for Inactive)
REMARK    1  A    between atoms: SE_1  and  C_2
REMARK    2  A    between atoms: C_2  and  C_3
REMARK                            x       y       z     vdW  Elec       q    Type
REMARK                         _______ _______ _______ _____ _____    ______ ____
ROOT
ATOM      1  C   UNL     1       3.247   5.654  18.054  0.00  0.00    +0.000 A 
ATOM      2  C   UNL     1       2.738   4.345  18.326  0.00  0.00    +0.000 A 
ATOM      3  C   UNL     1       1.371   4.091  18.601  0.00  0.00    +0.000 A 
ATOM      4  C   UNL     1       0.921   2.791  18.856  0.00  0.00    +0.000 A 
ATOM      5  C   UNL     1       1.812   1.722  18.838  0.00  0.00    +0.000 A 
ATOM      6  C   UNL     1       3.159   1.944  18.564  0.00  0.00    +0.000 A 
ATOM      7  C   UNL     1       3.624   3.239  18.310  0.00  0.00    +0.000 A 
ATOM      8  N   UNL     1       4.935   3.418  18.040  0.00  0.00    +0.000 NA
ATOM      9  C   UNL     1       5.466   4.632  17.776  0.00  0.00    +0.000 A 
ATOM     10  C   UNL     1       6.836   4.716  17.506  0.00  0.00    +0.000 A 
ATOM     11  C   UNL     1       7.425   5.945  17.233  0.00  0.00    +0.000 A 
ATOM     12  C   UNL     1       6.650   7.101  17.228  0.00  0.00    +0.000 A 
ATOM     13  C   UNL     1       5.279   7.035  17.495  0.00  0.00    +0.000 A 
ATOM     14  C   UNL     1       4.647   5.795  17.773  0.00  0.00    +0.000 A 
ENDROOT
BRANCH   1  15
ATOM     15  C   UNL     1       2.288   6.842  18.053  0.00  0.00    +0.000 C 
BRANCH  15  16
ATOM     16 SE   UNL     1       2.039   7.563  19.853  0.00  0.00    +0.000 Se
ATOM     17  H   UNL     1       1.065   6.430  20.219  0.00  0.00    +0.000 HD
ENDBRANCH  15  16
ENDBRANCH   1  15
TORSDOF 2
ENDMDL
MODEL 9
REMARK VINA RESULT:      -6.5      2.232      3.942
REMARK  Name = 
REMARK  2 active torsions:
REMARK  status: ('A' for Active; 'I' for Inactive)
REMARK    1  A    between atoms: SE_1  and  C_2
REMARK    2  A    between atoms: C_2  and  C_3
REMARK                            x       y       z     vdW  Elec       q    Type
REMARK                         _______ _______ _______ _____ _____    ______ ____
ROOT
ATOM      1  C   UNL     1       3.326   5.835  18.367  0.00  0.00    +0.000 A 
ATOM      2  C   UNL     1       3.154   4.786  19.324  0.00  0.00    +0.000 A 
ATOM      3  C   UNL     1       3.765   3.515  19.194  0.00  0.00    +0.000 A 
ATOM      4  C   UNL     1       3.570   2.523  20.161  0.00  0.00    +0.000 A 
ATOM      5  C   UNL     1       2.773   2.773  21.274  0.00  0.00    +0.000 A 
ATOM      6  C   UNL     1       2.165   4.017  21.429  0.00  0.00    +0.000 A 
ATOM      7  C   UNL     1       2.350   5.018  20.468  0.00  0.00    +0.000 A 
ATOM      8  N   UNL     1       1.752   6.215  20.653  0.00  0.00    +0.000 NA
ATOM      9  C   UNL     1       1.884   7.237  19.780  0.00  0.00    +0.000 A 
ATOM     10  C   UNL     1       1.228   8.441  20.060  0.00  0.00    +0.000 A 
ATOM     11  C   UNL     1       1.332   9.518  19.188  0.00  0.00    +0.000 A 
ATOM     12  C   UNL     1       2.092   9.402  18.028  0.00  0.00    +0.000 A 
ATOM     13  C   UNL     1       2.755   8.206  17.733  0.00  0.00    +0.000 A 
ATOM     14  C   UNL     1       2.672   7.090  18.605  0.00  0.00    +0.000 A 
ENDROOT
BRANCH   1  15
ATOM     15  C   UNL     1       4.209   5.591  17.144  0.00  0.00    +0.000 C 
BRANCH  15  16
ATOM     16 SE   UNL     1       6.033   6.227  17.442  0.00  0.00    +0.000 Se
ATOM     17  H   UNL     1       5.811   6.287  18.963  0.00  0.00    +0.000 HD
ENDBRANCH  15  16
ENDBRANCH   1  15
TORSDOF 2
ENDMDL
