MODEL 1
REMARK VINA RESULT:      -7.0      0.000      0.000
REMARK  Name = 
REMARK  2 active torsions:
REMARK  status: ('A' for Active; 'I' for Inactive)
REMARK    1  A    between atoms: C_1  and  C_2
REMARK    2  A    between atoms: C_7  and  C_8
REMARK                            x       y       z     vdW  Elec       q    Type
REMARK                         _______ _______ _______ _____ _____    ______ ____
ROOT
ATOM      1  C   UNL     1       7.417   4.957  13.841  0.00  0.00    +0.000 C 
ATOM      2  C   UNL     1       6.360   4.713  14.890  0.00  0.00    +0.000 C 
ATOM      3  O   UNL     1       6.010   3.572  15.162  0.00  0.00    +0.000 OA
ATOM      4  N   UNL     1       5.916   5.898  15.448  0.00  0.00    +0.000 N 
ATOM      5  C   UNL     1       4.933   5.923  16.406  0.00  0.00    +0.000 A 
ATOM      6  N   UNL     1       4.259   4.923  16.920  0.00  0.00    +0.000 NA
ATOM      7  C   UNL     1       3.393   5.464  17.840  0.00  0.00    +0.000 A 
ATOM      8  C   UNL     1       3.524   6.835  17.863  0.00  0.00    +0.000 A 
ATOM      9  N   UNL     1       4.517   7.108  16.961  0.00  0.00    +0.000 N 
ATOM     10  H   UNL     1       6.323   6.768  15.141  0.00  0.00    +0.000 HD
ATOM     11  H   UNL     1       4.879   8.022  16.741  0.00  0.00    +0.000 HD
ENDROOT
BRANCH   7  12
ATOM     12  C   UNL     1       2.486   4.666  18.643  0.00  0.00    +0.000 A 
ATOM     13  C   UNL     1       2.278   4.940  20.003  0.00  0.00    +0.000 A 
ATOM     14  C   UNL     1       1.429   4.135  20.767  0.00  0.00    +0.000 A 
ATOM     15  C   UNL     1       0.776   3.053  20.181  0.00  0.00    +0.000 A 
ATOM     16  C   UNL     1       0.969   2.773  18.830  0.00  0.00    +0.000 A 
ATOM     17  C   UNL     1       1.824   3.573  18.066  0.00  0.00    +0.000 A 
ENDBRANCH   7  12
TORSDOF 1
ENDMDL
MODEL 2
REMARK VINA RESULT:      -7.0      0.099      1.248
REMARK  Name = 
REMARK  2 active torsions:
REMARK  status: ('A' for Active; 'I' for Inactive)
REMARK    1  A    between atoms: C_1  and  C_2
REMARK    2  A    between atoms: C_7  and  C_8
REMARK                            x       y       z     vdW  Elec       q    Type
REMARK                         _______ _______ _______ _____ _____    ______ ____
ROOT
ATOM      1  C   UNL     1       7.457   5.087  13.838  0.00  0.00    +0.000 C 
ATOM      2  C   UNL     1       6.401   4.794  14.874  0.00  0.00    +0.000 C 
ATOM      3  O   UNL     1       6.064   3.639  15.105  0.00  0.00    +0.000 OA
ATOM      4  N   UNL     1       5.941   5.953  15.472  0.00  0.00    +0.000 N 
ATOM      5  C   UNL     1       4.955   5.933  16.427  0.00  0.00    +0.000 A 
ATOM      6  N   UNL     1       4.292   4.907  16.904  0.00  0.00    +0.000 NA
ATOM      7  C   UNL     1       3.417   5.406  17.840  0.00  0.00    +0.000 A 
ATOM      8  C   UNL     1       3.531   6.776  17.911  0.00  0.00    +0.000 A 
ATOM      9  N   UNL     1       4.523   7.093  17.022  0.00  0.00    +0.000 N 
ATOM     10  H   UNL     1       6.338   6.838  15.197  0.00  0.00    +0.000 HD
ATOM     11  H   UNL     1       4.875   8.018  16.835  0.00  0.00    +0.000 HD
ENDROOT
BRANCH   7  12
ATOM     12  C   UNL     1       2.519   4.569  18.612  0.00  0.00    +0.000 A 
ATOM     13  C   UNL     1       1.913   3.434  18.053  0.00  0.00    +0.000 A 
ATOM     14  C   UNL     1       1.021   2.663  18.804  0.00  0.00    +0.000 A 
ATOM     15  C   UNL     1       0.730   3.013  20.120  0.00  0.00    +0.000 A 
ATOM     16  C   UNL     1       1.330   4.134  20.690  0.00  0.00    +0.000 A 
ATOM     17  C   UNL     1       2.216   4.910  19.938  0.00  0.00    +0.000 A 
ENDBRANCH   7  12
TORSDOF 1
ENDMDL
MODEL 3
REMARK VINA RESULT:      -6.8      1.780      2.049
REMARK  Name = 
REMARK  2 active torsions:
REMARK  status: ('A' for Active; 'I' for Inactive)
REMARK    1  A    between atoms: C_1  and  C_2
REMARK    2  A    between atoms: C_7  and  C_8
REMARK                            x       y       z     vdW  Elec       q    Type
REMARK                         _______ _______ _______ _____ _____    ______ ____
ROOT
ATOM      1  C   UNL     1       8.147   5.295  12.872  0.00  0.00    +0.000 C 
ATOM      2  C   UNL     1       7.086   4.848  13.846  0.00  0.00    +0.000 C 
ATOM      3  O   UNL     1       6.114   4.213  13.455  0.00  0.00    +0.000 OA
ATOM      4  N   UNL     1       7.391   5.232  15.140  0.00  0.00    +0.000 N 
ATOM      5  C   UNL     1       6.553   4.959  16.192  0.00  0.00    +0.000 A 
ATOM      6  N   UNL     1       5.389   4.356  16.182  0.00  0.00    +0.000 NA
ATOM      7  C   UNL     1       4.952   4.324  17.486  0.00  0.00    +0.000 A 
ATOM      8  C   UNL     1       5.863   4.952  18.305  0.00  0.00    +0.000 A 
ATOM      9  N   UNL     1       6.881   5.333  17.472  0.00  0.00    +0.000 N 
ATOM     10  H   UNL     1       8.250   5.730  15.315  0.00  0.00    +0.000 HD
ATOM     11  H   UNL     1       7.725   5.807  17.751  0.00  0.00    +0.000 HD
ENDROOT
BRANCH   7  12
ATOM     12  C   UNL     1       3.701   3.710  17.889  0.00  0.00    +0.000 A 
ATOM     13  C   UNL     1       2.481   4.393  17.778  0.00  0.00    +0.000 A 
ATOM     14  C   UNL     1       1.292   3.796  18.208  0.00  0.00    +0.000 A 
ATOM     15  C   UNL     1       1.309   2.512  18.746  0.00  0.00    +0.000 A 
ATOM     16  C   UNL     1       2.513   1.819  18.856  0.00  0.00    +0.000 A 
ATOM     17  C   UNL     1       3.703   2.418  18.434  0.00  0.00    +0.000 A 
ENDBRANCH   7  12
TORSDOF 1
ENDMDL
MODEL 4
REMARK VINA RESULT:      -6.8      1.564      2.120
REMARK  Name = 
REMARK  2 active torsions:
REMARK  status: ('A' for Active; 'I' for Inactive)
REMARK    1  A    between atoms: C_1  and  C_2
REMARK    2  A    between atoms: C_7  and  C_8
REMARK                            x       y       z     vdW  Elec       q    Type
REMARK                         _______ _______ _______ _____ _____    ______ ____
ROOT
ATOM      1  C   UNL     1       7.445   4.887  13.479  0.00  0.00    +0.000 C 
ATOM      2  C   UNL     1       6.398   4.563  14.516  0.00  0.00    +0.000 C 
ATOM      3  O   UNL     1       5.257   4.281  14.175  0.00  0.00    +0.000 OA
ATOM      4  N   UNL     1       6.919   4.618  15.796  0.00  0.00    +0.000 N 
ATOM      5  C   UNL     1       6.141   4.387  16.904  0.00  0.00    +0.000 A 
ATOM      6  N   UNL     1       4.860   4.117  16.968  0.00  0.00    +0.000 NA
ATOM      7  C   UNL     1       4.556   3.967  18.300  0.00  0.00    +0.000 A 
ATOM      8  C   UNL     1       5.679   4.182  19.068  0.00  0.00    +0.000 A 
ATOM      9  N   UNL     1       6.679   4.429  18.167  0.00  0.00    +0.000 N 
ATOM     10  H   UNL     1       7.895   4.837  15.921  0.00  0.00    +0.000 HD
ATOM     11  H   UNL     1       7.644   4.612  18.391  0.00  0.00    +0.000 HD
ENDROOT
BRANCH   7  12
ATOM     12  C   UNL     1       3.227   3.636  18.780  0.00  0.00    +0.000 A 
ATOM     13  C   UNL     1       2.465   2.622  18.181  0.00  0.00    +0.000 A 
ATOM     14  C   UNL     1       1.173   2.345  18.636  0.00  0.00    +0.000 A 
ATOM     15  C   UNL     1       0.632   3.072  19.694  0.00  0.00    +0.000 A 
ATOM     16  C   UNL     1       1.381   4.078  20.301  0.00  0.00    +0.000 A 
ATOM     17  C   UNL     1       2.670   4.361  19.843  0.00  0.00    +0.000 A 
ENDBRANCH   7  12
TORSDOF 1
ENDMDL
MODEL 5
REMARK VINA RESULT:      -6.8      1.760      2.031
REMARK  Name = 
REMARK  2 active torsions:
REMARK  status: ('A' for Active; 'I' for Inactive)
REMARK    1  A    between atoms: C_1  and  C_2
REMARK    2  A    between atoms: C_7  and  C_8
REMARK                            x       y       z     vdW  Elec       q    Type
REMARK                         _______ _______ _______ _____ _____    ______ ____
ROOT
ATOM      1  C   UNL     1       7.941   5.142  12.846  0.00  0.00    +0.000 C 
ATOM      2  C   UNL     1       6.935   4.751  13.898  0.00  0.00    +0.000 C 
ATOM      3  O   UNL     1       5.882   4.213  13.579  0.00  0.00    +0.000 OA
ATOM      4  N   UNL     1       7.382   5.064  15.169  0.00  0.00    +0.000 N 
ATOM      5  C   UNL     1       6.619   4.825  16.285  0.00  0.00    +0.000 A 
ATOM      6  N   UNL     1       5.411   4.321  16.363  0.00  0.00    +0.000 NA
ATOM      7  C   UNL     1       5.087   4.281  17.698  0.00  0.00    +0.000 A 
ATOM      8  C   UNL     1       6.117   4.802  18.450  0.00  0.00    +0.000 A 
ATOM      9  N   UNL     1       7.087   5.126  17.540  0.00  0.00    +0.000 N 
ATOM     10  H   UNL     1       8.293   5.482  15.280  0.00  0.00    +0.000 HD
ATOM     11  H   UNL     1       7.990   5.518  17.755  0.00  0.00    +0.000 HD
ENDROOT
BRANCH   7  12
ATOM     12  C   UNL     1       3.828   3.759  18.195  0.00  0.00    +0.000 A 
ATOM     13  C   UNL     1       3.786   2.777  19.196  0.00  0.00    +0.000 A 
ATOM     14  C   UNL     1       2.563   2.262  19.634  0.00  0.00    +0.000 A 
ATOM     15  C   UNL     1       1.371   2.726  19.081  0.00  0.00    +0.000 A 
ATOM     16  C   UNL     1       1.398   3.705  18.091  0.00  0.00    +0.000 A 
ATOM     17  C   UNL     1       2.621   4.216  17.647  0.00  0.00    +0.000 A 
ENDBRANCH   7  12
TORSDOF 1
ENDMDL
MODEL 6
REMARK VINA RESULT:      -6.7      1.673      2.239
REMARK  Name = 
REMARK  2 active torsions:
REMARK  status: ('A' for Active; 'I' for Inactive)
REMARK    1  A    between atoms: C_1  and  C_2
REMARK    2  A    between atoms: C_7  and  C_8
REMARK                            x       y       z     vdW  Elec       q    Type
REMARK                         _______ _______ _______ _____ _____    ______ ____
ROOT
ATOM      1  C   UNL     1       7.073   3.893  11.960  0.00  0.00    +0.000 C 
ATOM      2  C   UNL     1       6.255   3.985  13.224  0.00  0.00    +0.000 C 
ATOM      3  O   UNL     1       5.040   3.841  13.187  0.00  0.00    +0.000 OA
ATOM      4  N   UNL     1       7.054   4.220  14.328  0.00  0.00    +0.000 N 
ATOM      5  C   UNL     1       6.524   4.370  15.586  0.00  0.00    +0.000 A 
ATOM      6  N   UNL     1       5.267   4.348  15.957  0.00  0.00    +0.000 NA
ATOM      7  C   UNL     1       5.256   4.541  17.318  0.00  0.00    +0.000 A 
ATOM      8  C   UNL     1       6.540   4.715  17.781  0.00  0.00    +0.000 A 
ATOM      9  N   UNL     1       7.334   4.586  16.674  0.00  0.00    +0.000 N 
ATOM     10  H   UNL     1       8.053   4.287  14.207  0.00  0.00    +0.000 HD
ATOM     11  H   UNL     1       8.340   4.641  16.658  0.00  0.00    +0.000 HD
ENDROOT
BRANCH   7  12
ATOM     12  C   UNL     1       4.039   4.557  18.108  0.00  0.00    +0.000 A 
ATOM     13  C   UNL     1       4.028   5.038  19.426  0.00  0.00    +0.000 A 
ATOM     14  C   UNL     1       2.852   5.009  20.182  0.00  0.00    +0.000 A 
ATOM     15  C   UNL     1       1.677   4.506  19.628  0.00  0.00    +0.000 A 
ATOM     16  C   UNL     1       1.673   4.031  18.318  0.00  0.00    +0.000 A 
ATOM     17  C   UNL     1       2.849   4.052  17.564  0.00  0.00    +0.000 A 
ENDBRANCH   7  12
TORSDOF 1
ENDMDL
MODEL 7
REMARK VINA RESULT:      -6.6      1.701      2.534
REMARK  Name = 
REMARK  2 active torsions:
REMARK  status: ('A' for Active; 'I' for Inactive)
REMARK    1  A    between atoms: C_1  and  C_2
REMARK    2  A    between atoms: C_7  and  C_8
REMARK                            x       y       z     vdW  Elec       q    Type
REMARK                         _______ _______ _______ _____ _____    ______ ____
ROOT
ATOM      1  C   UNL     1       7.084   3.926  11.907  0.00  0.00    +0.000 C 
ATOM      2  C   UNL     1       6.259   3.969  13.169  0.00  0.00    +0.000 C 
ATOM      3  O   UNL     1       5.052   3.767  13.127  0.00  0.00    +0.000 OA
ATOM      4  N   UNL     1       7.042   4.235  14.278  0.00  0.00    +0.000 N 
ATOM      5  C   UNL     1       6.501   4.349  15.535  0.00  0.00    +0.000 A 
ATOM      6  N   UNL     1       5.246   4.264  15.902  0.00  0.00    +0.000 NA
ATOM      7  C   UNL     1       5.221   4.447  17.264  0.00  0.00    +0.000 A 
ATOM      8  C   UNL     1       6.494   4.679  17.733  0.00  0.00    +0.000 A 
ATOM      9  N   UNL     1       7.297   4.596  16.627  0.00  0.00    +0.000 N 
ATOM     10  H   UNL     1       8.036   4.350  14.161  0.00  0.00    +0.000 HD
ATOM     11  H   UNL     1       8.299   4.699  16.616  0.00  0.00    +0.000 HD
ENDROOT
BRANCH   7  12
ATOM     12  C   UNL     1       4.002   4.398  18.050  0.00  0.00    +0.000 A 
ATOM     13  C   UNL     1       2.778   4.017  17.480  0.00  0.00    +0.000 A 
ATOM     14  C   UNL     1       1.610   4.013  18.247  0.00  0.00    +0.000 A 
ATOM     15  C   UNL     1       1.652   4.383  19.590  0.00  0.00    +0.000 A 
ATOM     16  C   UNL     1       2.863   4.757  20.170  0.00  0.00    +0.000 A 
ATOM     17  C   UNL     1       4.031   4.769  19.402  0.00  0.00    +0.000 A 
ENDBRANCH   7  12
TORSDOF 1
ENDMDL
MODEL 8
REMARK VINA RESULT:      -6.6      1.436      1.547
REMARK  Name = 
REMARK  2 active torsions:
REMARK  status: ('A' for Active; 'I' for Inactive)
REMARK    1  A    between atoms: C_1  and  C_2
REMARK    2  A    between atoms: C_7  and  C_8
REMARK                            x       y       z     vdW  Elec       q    Type
REMARK                         _______ _______ _______ _____ _____    ______ ____
ROOT
ATOM      1  C   UNL     1       7.551   4.911  13.512  0.00  0.00    +0.000 C 
ATOM      2  C   UNL     1       6.524   4.713  14.599  0.00  0.00    +0.000 C 
ATOM      3  O   UNL     1       5.390   4.348  14.320  0.00  0.00    +0.000 OA
ATOM      4  N   UNL     1       7.053   4.976  15.850  0.00  0.00    +0.000 N 
ATOM      5  C   UNL     1       6.293   4.889  16.990  0.00  0.00    +0.000 A 
ATOM      6  N   UNL     1       5.022   4.592  17.110  0.00  0.00    +0.000 NA
ATOM      7  C   UNL     1       4.734   4.634  18.454  0.00  0.00    +0.000 A 
ATOM      8  C   UNL     1       5.855   4.996  19.166  0.00  0.00    +0.000 A 
ATOM      9  N   UNL     1       6.839   5.136  18.225  0.00  0.00    +0.000 N 
ATOM     10  H   UNL     1       8.023   5.241  15.928  0.00  0.00    +0.000 HD
ATOM     11  H   UNL     1       7.800   5.380  18.407  0.00  0.00    +0.000 HD
ENDROOT
BRANCH   7  12
ATOM     12  C   UNL     1       3.421   4.336  18.995  0.00  0.00    +0.000 A 
ATOM     13  C   UNL     1       2.931   4.997  20.131  0.00  0.00    +0.000 A 
ATOM     14  C   UNL     1       1.678   4.668  20.657  0.00  0.00    +0.000 A 
ATOM     15  C   UNL     1       0.902   3.683  20.052  0.00  0.00    +0.000 A 
ATOM     16  C   UNL     1       1.374   3.023  18.920  0.00  0.00    +0.000 A 
ATOM     17  C   UNL     1       2.630   3.345  18.397  0.00  0.00    +0.000 A 
ENDBRANCH   7  12
TORSDOF 1
ENDMDL
MODEL 9
REMARK VINA RESULT:      -6.6      1.891      2.393
REMARK  Name = 
REMARK  2 active torsions:
REMARK  status: ('A' for Active; 'I' for Inactive)
REMARK    1  A    between atoms: C_1  and  C_2
REMARK    2  A    between atoms: C_7  and  C_8
REMARK                            x       y       z     vdW  Elec       q    Type
REMARK                         _______ _______ _______ _____ _____    ______ ____
ROOT
ATOM      1  C   UNL     1       7.570   4.924  12.815  0.00  0.00    +0.000 C 
ATOM      2  C   UNL     1       6.804   4.693  14.094  0.00  0.00    +0.000 C 
ATOM      3  O   UNL     1       5.750   4.071  14.080  0.00  0.00    +0.000 OA
ATOM      4  N   UNL     1       7.457   5.244  15.182  0.00  0.00    +0.000 N 
ATOM      5  C   UNL     1       6.930   5.183  16.449  0.00  0.00    +0.000 A 
ATOM      6  N   UNL     1       5.795   4.660  16.843  0.00  0.00    +0.000 NA
ATOM      7  C   UNL     1       5.727   4.849  18.203  0.00  0.00    +0.000 A 
ATOM      8  C   UNL     1       6.839   5.532  18.641  0.00  0.00    +0.000 A 
ATOM      9  N   UNL     1       7.601   5.720  17.520  0.00  0.00    +0.000 N 
ATOM     10  H   UNL     1       8.342   5.706  15.042  0.00  0.00    +0.000 HD
ATOM     11  H   UNL     1       8.499   6.176  17.485  0.00  0.00    +0.000 HD
ENDROOT
BRANCH   7  12
ATOM     12  C   UNL     1       4.619   4.382  19.016  0.00  0.00    +0.000 A 
ATOM     13  C   UNL     1       4.385   3.014  19.218  0.00  0.00    +0.000 A 
ATOM     14  C   UNL     1       3.291   2.586  19.974  0.00  0.00    +0.000 A 
ATOM     15  C   UNL     1       2.423   3.518  20.539  0.00  0.00    +0.000 A 
ATOM     16  C   UNL     1       2.647   4.880  20.351  0.00  0.00    +0.000 A 
ATOM     17  C   UNL     1       3.738   5.309  19.590  0.00  0.00    +0.000 A 
ENDBRANCH   7  12
TORSDOF 1
ENDMDL
