MODEL 1
REMARK VINA RESULT:      -7.5      0.000      0.000
REMARK  Name = 
REMARK  17 active torsions:
REMARK  status: ('A' for Active; 'I' for Inactive)
REMARK    1  A    between atoms: C_1  and  C_2
REMARK    2  A    between atoms: C_2  and  C_3
REMARK    3  A    between atoms: C_3  and  C_4
REMARK    4  A    between atoms: C_4  and  C_5
REMARK    5  A    between atoms: C_5  and  N_6
REMARK    6  A    between atoms: N_6  and  C_7
REMARK    7  A    between atoms: C_7  and  C_8
REMARK    8  A    between atoms: C_8  and  C_9
REMARK    9  A    between atoms: C_9  and  C_10
REMARK   10  A    between atoms: C_10  and  C_11
REMARK   11  A    between atoms: C_12  and  C_14
REMARK   12  A    between atoms: C_14  and  C_15
REMARK   13  A    between atoms: C_14  and  N_20
REMARK   14  A    between atoms: C_15  and  C_16
REMARK   15  A    between atoms: C_16  and  C_17
REMARK   16  A    between atoms: C_17  and  O_19
REMARK   17  A    between atoms: N_23  and  C_24
REMARK                            x       y       z     vdW  Elec       q    Type
REMARK                         _______ _______ _______ _____ _____    ______ ____
ROOT
ATOM      1  C   UNL     1       3.799   4.592  19.476  0.00  0.00    +0.000 C 
ENDROOT
BRANCH   1   2
ATOM      2  N   UNL     1       3.191   5.678  20.260  0.00  0.00    +0.000 N 
ATOM      3  C   UNL     1       2.658   6.769  19.612  0.00  0.00    +0.000 C 
ATOM      4  O   UNL     1       2.726   6.881  18.392  0.00  0.00    +0.000 OA
ATOM      5  N   UNL     1       1.984   7.628  20.443  0.00  0.00    +0.000 N 
ATOM      6  H   UNL     1       3.205   5.596  21.268  0.00  0.00    +0.000 HD
ATOM      7  H   UNL     1       2.302   7.658  21.400  0.00  0.00    +0.000 HD
BRANCH   5   8
ATOM      8  C   UNL     1       1.173   8.692  19.985  0.00  0.00    +0.000 A 
ATOM      9  C   UNL     1       1.178   9.130  18.652  0.00  0.00    +0.000 A 
ATOM     10  C   UNL     1       0.422  10.235  18.256  0.00  0.00    +0.000 A 
ATOM     11  C   UNL     1      -0.360  10.901  19.191  0.00  0.00    +0.000 A 
ATOM     12 CL   UNL     1      -1.248  12.297  18.720  0.00  0.00    +0.000 Cl
ATOM     13  C   UNL     1      -0.419  10.446  20.508  0.00  0.00    +0.000 A 
ATOM     14  C   UNL     1       0.335   9.333  20.901  0.00  0.00    +0.000 A 
ENDBRANCH   5   8
ENDBRANCH   1   2
BRANCH   1  16
ATOM     15  N   UNL     1       5.760   4.744  17.804  0.00  0.00    +0.000 N 
ATOM     16  C   UNL     1       5.270   4.900  19.114  0.00  0.00    +0.000 C 
ATOM     17  O   UNL     1       6.008   5.297  20.029  0.00  0.00    +0.000 OA
BRANCH  15  18
ATOM     18  C   UNL     1       7.201   5.031  17.627  0.00  0.00    +0.000 C 
BRANCH  18  19
ATOM     19  C   UNL     1       7.572   6.442  17.130  0.00  0.00    +0.000 C 
BRANCH  19  20
ATOM     20  C   UNL     1       8.014   7.449  18.195  0.00  0.00    +0.000 C 
BRANCH  20  22
ATOM     21  C   UNL     1       8.847   9.796  18.605  0.00  0.00    +0.000 C 
ATOM     22  C   UNL     1       8.015   8.896  17.703  0.00  0.00    +0.000 C 
ENDBRANCH  20  22
ENDBRANCH  19  20
ENDBRANCH  18  19
ENDBRANCH  15  18
BRANCH  15  23
ATOM     23  C   UNL     1       5.011   4.470  16.532  0.00  0.00    +0.000 C 
BRANCH  23  24
ATOM     24  C   UNL     1       5.705   3.618  15.473  0.00  0.00    +0.000 C 
BRANCH  24  25
ATOM     25  C   UNL     1       6.350   4.301  14.266  0.00  0.00    +0.000 C 
BRANCH  25  26
ATOM     26  C   UNL     1       5.596   3.809  13.015  0.00  0.00    +0.000 C 
ATOM     27  C   UNL     1       6.489   3.191  11.957  0.00  0.00    +0.000 C 
ENDBRANCH  25  26
ENDBRANCH  24  25
ENDBRANCH  23  24
ENDBRANCH  15  23
ENDBRANCH   1  16
BRANCH   1  28
ATOM     28  C   UNL     1       3.613   3.245  20.206  0.00  0.00    +0.000 C 
BRANCH  28  29
ATOM     29  C   UNL     1       2.547   2.387  19.512  0.00  0.00    +0.000 C 
BRANCH  29  30
ATOM     30  C   UNL     1       2.874   1.952  18.117  0.00  0.00    +0.000 C 
ATOM     31  O   UNL     1       2.199   2.168  17.124  0.00  0.00    +0.000 OA
BRANCH  30  32
ATOM     32  O   UNL     1       4.043   1.258  18.074  0.00  0.00    +0.000 OA
ATOM     33  H   UNL     1       4.835   1.832  18.074  0.00  0.00    +0.000 HD
ENDBRANCH  30  32
ENDBRANCH  29  30
ENDBRANCH  28  29
ENDBRANCH   1  28
TORSDOF 15
ENDMDL
MODEL 2
REMARK VINA RESULT:      -7.2      1.062      1.453
REMARK  Name = 
REMARK  17 active torsions:
REMARK  status: ('A' for Active; 'I' for Inactive)
REMARK    1  A    between atoms: C_1  and  C_2
REMARK    2  A    between atoms: C_2  and  C_3
REMARK    3  A    between atoms: C_3  and  C_4
REMARK    4  A    between atoms: C_4  and  C_5
REMARK    5  A    between atoms: C_5  and  N_6
REMARK    6  A    between atoms: N_6  and  C_7
REMARK    7  A    between atoms: C_7  and  C_8
REMARK    8  A    between atoms: C_8  and  C_9
REMARK    9  A    between atoms: C_9  and  C_10
REMARK   10  A    between atoms: C_10  and  C_11
REMARK   11  A    between atoms: C_12  and  C_14
REMARK   12  A    between atoms: C_14  and  C_15
REMARK   13  A    between atoms: C_14  and  N_20
REMARK   14  A    between atoms: C_15  and  C_16
REMARK   15  A    between atoms: C_16  and  C_17
REMARK   16  A    between atoms: C_17  and  O_19
REMARK   17  A    between atoms: N_23  and  C_24
REMARK                            x       y       z     vdW  Elec       q    Type
REMARK                         _______ _______ _______ _____ _____    ______ ____
ROOT
ATOM      1  C   UNL     1       3.902   4.231  19.222  0.00  0.00    +0.000 C 
ENDROOT
BRANCH   1   2
ATOM      2  N   UNL     1       3.263   5.159  20.167  0.00  0.00    +0.000 N 
ATOM      3  C   UNL     1       2.799   6.375  19.719  0.00  0.00    +0.000 C 
ATOM      4  O   UNL     1       2.956   6.726  18.554  0.00  0.00    +0.000 OA
ATOM      5  N   UNL     1       2.086   7.073  20.660  0.00  0.00    +0.000 N 
ATOM      6  H   UNL     1       3.204   4.877  21.137  0.00  0.00    +0.000 HD
ATOM      7  H   UNL     1       2.335   6.900  21.623  0.00  0.00    +0.000 HD
BRANCH   5   8
ATOM      8  C   UNL     1       1.331   8.234  20.374  0.00  0.00    +0.000 A 
ATOM      9  C   UNL     1       0.411   8.783  21.280  0.00  0.00    +0.000 A 
ATOM     10  C   UNL     1      -0.373   9.884  20.930  0.00  0.00    +0.000 A 
ATOM     11  C   UNL     1      -0.229  10.455  19.672  0.00  0.00    +0.000 A 
ATOM     12 CL   UNL     1      -1.232  11.776  19.215  0.00  0.00    +0.000 Cl
ATOM     13  C   UNL     1       0.719   9.957  18.779  0.00  0.00    +0.000 A 
ATOM     14  C   UNL     1       1.509   8.856  19.136  0.00  0.00    +0.000 A 
ENDBRANCH   5   8
ENDBRANCH   1   2
BRANCH   1  16
ATOM     15  N   UNL     1       5.984   4.472  17.714  0.00  0.00    +0.000 N 
ATOM     16  C   UNL     1       5.387   4.590  18.983  0.00  0.00    +0.000 C 
ATOM     17  O   UNL     1       6.037   4.993  19.959  0.00  0.00    +0.000 OA
BRANCH  15  18
ATOM     18  C   UNL     1       7.424   4.806  17.657  0.00  0.00    +0.000 C 
BRANCH  18  19
ATOM     19  C   UNL     1       7.835   6.201  18.167  0.00  0.00    +0.000 C 
BRANCH  19  20
ATOM     20  C   UNL     1       7.765   7.348  17.156  0.00  0.00    +0.000 C 
BRANCH  20  22
ATOM     21  C   UNL     1       8.640   9.417  18.307  0.00  0.00    +0.000 C 
ATOM     22  C   UNL     1       7.407   8.694  17.784  0.00  0.00    +0.000 C 
ENDBRANCH  20  22
ENDBRANCH  19  20
ENDBRANCH  18  19
ENDBRANCH  15  18
BRANCH  15  23
ATOM     23  C   UNL     1       5.347   4.197  16.383  0.00  0.00    +0.000 C 
BRANCH  23  24
ATOM     24  C   UNL     1       5.543   5.232  15.278  0.00  0.00    +0.000 C 
BRANCH  24  25
ATOM     25  C   UNL     1       6.506   4.927  14.129  0.00  0.00    +0.000 C 
BRANCH  25  26
ATOM     26  C   UNL     1       6.189   3.499  13.643  0.00  0.00    +0.000 C 
ATOM     27  C   UNL     1       5.672   3.428  12.221  0.00  0.00    +0.000 C 
ENDBRANCH  25  26
ENDBRANCH  24  25
ENDBRANCH  23  24
ENDBRANCH  15  23
ENDBRANCH   1  16
BRANCH   1  28
ATOM     28  C   UNL     1       3.687   2.774  19.684  0.00  0.00    +0.000 C 
BRANCH  28  29
ATOM     29  C   UNL     1       2.630   2.075  18.819  0.00  0.00    +0.000 C 
BRANCH  29  30
ATOM     30  C   UNL     1       1.205   2.339  19.198  0.00  0.00    +0.000 C 
ATOM     31  O   UNL     1       0.234   2.193  18.475  0.00  0.00    +0.000 OA
BRANCH  30  32
ATOM     32  O   UNL     1       1.107   2.782  20.481  0.00  0.00    +0.000 OA
ATOM     33  H   UNL     1       0.243   2.582  20.895  0.00  0.00    +0.000 HD
ENDBRANCH  30  32
ENDBRANCH  29  30
ENDBRANCH  28  29
ENDBRANCH   1  28
TORSDOF 15
ENDMDL
MODEL 3
REMARK VINA RESULT:      -7.1      1.551      1.767
REMARK  Name = 
REMARK  17 active torsions:
REMARK  status: ('A' for Active; 'I' for Inactive)
REMARK    1  A    between atoms: C_1  and  C_2
REMARK    2  A    between atoms: C_2  and  C_3
REMARK    3  A    between atoms: C_3  and  C_4
REMARK    4  A    between atoms: C_4  and  C_5
REMARK    5  A    between atoms: C_5  and  N_6
REMARK    6  A    between atoms: N_6  and  C_7
REMARK    7  A    between atoms: C_7  and  C_8
REMARK    8  A    between atoms: C_8  and  C_9
REMARK    9  A    between atoms: C_9  and  C_10
REMARK   10  A    between atoms: C_10  and  C_11
REMARK   11  A    between atoms: C_12  and  C_14
REMARK   12  A    between atoms: C_14  and  C_15
REMARK   13  A    between atoms: C_14  and  N_20
REMARK   14  A    between atoms: C_15  and  C_16
REMARK   15  A    between atoms: C_16  and  C_17
REMARK   16  A    between atoms: C_17  and  O_19
REMARK   17  A    between atoms: N_23  and  C_24
REMARK                            x       y       z     vdW  Elec       q    Type
REMARK                         _______ _______ _______ _____ _____    ______ ____
ROOT
ATOM      1  C   UNL     1       3.703   5.104  18.893  0.00  0.00    +0.000 C 
ENDROOT
BRANCH   1   2
ATOM      2  N   UNL     1       3.123   5.829  20.034  0.00  0.00    +0.000 N 
ATOM      3  C   UNL     1       2.519   7.048  19.830  0.00  0.00    +0.000 C 
ATOM      4  O   UNL     1       2.499   7.571  18.720  0.00  0.00    +0.000 OA
ATOM      5  N   UNL     1       1.882   7.540  20.941  0.00  0.00    +0.000 N 
ATOM      6  H   UNL     1       3.209   5.410  20.951  0.00  0.00    +0.000 HD
ATOM      7  H   UNL     1       2.263   7.258  21.831  0.00  0.00    +0.000 HD
BRANCH   5   8
ATOM      8  C   UNL     1       1.013   8.656  20.920  0.00  0.00    +0.000 A 
ATOM      9  C   UNL     1       0.791   9.423  19.767  0.00  0.00    +0.000 A 
ATOM     10  C   UNL     1      -0.012  10.564  19.807  0.00  0.00    +0.000 A 
ATOM     11  C   UNL     1      -0.613  10.938  21.002  0.00  0.00    +0.000 A 
ATOM     12 CL   UNL     1      -1.556  12.375  21.069  0.00  0.00    +0.000 Cl
ATOM     13  C   UNL     1      -0.447  10.158  22.145  0.00  0.00    +0.000 A 
ATOM     14  C   UNL     1       0.354   9.009  22.100  0.00  0.00    +0.000 A 
ENDBRANCH   5   8
ENDBRANCH   1   2
BRANCH   1  16
ATOM     15  N   UNL     1       5.925   5.395  17.612  0.00  0.00    +0.000 N 
ATOM     16  C   UNL     1       5.240   5.265  18.833  0.00  0.00    +0.000 C 
ATOM     17  O   UNL     1       5.851   5.278  19.913  0.00  0.00    +0.000 OA
BRANCH  15  18
ATOM     18  C   UNL     1       7.397   5.491  17.717  0.00  0.00    +0.000 C 
BRANCH  18  19
ATOM     19  C   UNL     1       7.961   6.689  18.505  0.00  0.00    +0.000 C 
BRANCH  19  20
ATOM     20  C   UNL     1       7.922   8.050  17.805  0.00  0.00    +0.000 C 
BRANCH  20  22
ATOM     21  C   UNL     1       8.475  10.510  17.918  0.00  0.00    +0.000 C 
ATOM     22  C   UNL     1       8.689   9.142  18.550  0.00  0.00    +0.000 C 
ENDBRANCH  20  22
ENDBRANCH  19  20
ENDBRANCH  18  19
ENDBRANCH  15  18
BRANCH  15  23
ATOM     23  C   UNL     1       5.377   5.597  16.228  0.00  0.00    +0.000 C 
BRANCH  23  24
ATOM     24  C   UNL     1       5.068   4.352  15.402  0.00  0.00    +0.000 C 
BRANCH  24  25
ATOM     25  C   UNL     1       5.789   4.139  14.070  0.00  0.00    +0.000 C 
BRANCH  25  26
ATOM     26  C   UNL     1       7.097   4.952  14.132  0.00  0.00    +0.000 C 
ATOM     27  C   UNL     1       7.771   5.146  12.789  0.00  0.00    +0.000 C 
ENDBRANCH  25  26
ENDBRANCH  24  25
ENDBRANCH  23  24
ENDBRANCH  15  23
ENDBRANCH   1  16
BRANCH   1  28
ATOM     28  C   UNL     1       3.238   3.632  18.910  0.00  0.00    +0.000 C 
BRANCH  28  29
ATOM     29  C   UNL     1       3.083   3.122  20.349  0.00  0.00    +0.000 C 
BRANCH  29  30
ATOM     30  C   UNL     1       1.703   3.212  20.923  0.00  0.00    +0.000 C 
ATOM     31  O   UNL     1       0.769   3.831  20.444  0.00  0.00    +0.000 OA
BRANCH  30  32
ATOM     32  O   UNL     1       1.601   2.507  22.083  0.00  0.00    +0.000 OA
ATOM     33  H   UNL     1       2.265   2.767  22.753  0.00  0.00    +0.000 HD
ENDBRANCH  30  32
ENDBRANCH  29  30
ENDBRANCH  28  29
ENDBRANCH   1  28
TORSDOF 15
ENDMDL
MODEL 4
REMARK VINA RESULT:      -7.1      1.241      1.626
REMARK  Name = 
REMARK  17 active torsions:
REMARK  status: ('A' for Active; 'I' for Inactive)
REMARK    1  A    between atoms: C_1  and  C_2
REMARK    2  A    between atoms: C_2  and  C_3
REMARK    3  A    between atoms: C_3  and  C_4
REMARK    4  A    between atoms: C_4  and  C_5
REMARK    5  A    between atoms: C_5  and  N_6
REMARK    6  A    between atoms: N_6  and  C_7
REMARK    7  A    between atoms: C_7  and  C_8
REMARK    8  A    between atoms: C_8  and  C_9
REMARK    9  A    between atoms: C_9  and  C_10
REMARK   10  A    between atoms: C_10  and  C_11
REMARK   11  A    between atoms: C_12  and  C_14
REMARK   12  A    between atoms: C_14  and  C_15
REMARK   13  A    between atoms: C_14  and  N_20
REMARK   14  A    between atoms: C_15  and  C_16
REMARK   15  A    between atoms: C_16  and  C_17
REMARK   16  A    between atoms: C_17  and  O_19
REMARK   17  A    between atoms: N_23  and  C_24
REMARK                            x       y       z     vdW  Elec       q    Type
REMARK                         _______ _______ _______ _____ _____    ______ ____
ROOT
ATOM      1  C   UNL     1       3.277   5.685  18.694  0.00  0.00    +0.000 C 
ENDROOT
BRANCH   1   2
ATOM      2  N   UNL     1       2.792   6.254  19.961  0.00  0.00    +0.000 N 
ATOM      3  C   UNL     1       2.153   7.472  19.959  0.00  0.00    +0.000 C 
ATOM      4  O   UNL     1       2.025   8.124  18.927  0.00  0.00    +0.000 OA
ATOM      5  N   UNL     1       1.612   7.812  21.173  0.00  0.00    +0.000 N 
ATOM      6  H   UNL     1       2.967   5.731  20.809  0.00  0.00    +0.000 HD
ATOM      7  H   UNL     1       2.077   7.436  21.986  0.00  0.00    +0.000 HD
BRANCH   5   8
ATOM      8  C   UNL     1       0.729   8.900  21.365  0.00  0.00    +0.000 A 
ATOM      9  C   UNL     1       0.239   9.675  20.303  0.00  0.00    +0.000 A 
ATOM     10  C   UNL     1      -0.568  10.789  20.540  0.00  0.00    +0.000 A 
ATOM     11  C   UNL     1      -0.905  11.126  21.845  0.00  0.00    +0.000 A 
ATOM     12 CL   UNL     1      -1.852  12.531  22.145  0.00  0.00    +0.000 Cl
ATOM     13  C   UNL     1      -0.473  10.335  22.908  0.00  0.00    +0.000 A 
ATOM     14  C   UNL     1       0.331   9.214  22.667  0.00  0.00    +0.000 A 
ENDBRANCH   5   8
ENDBRANCH   1   2
BRANCH   1  16
ATOM     15  N   UNL     1       5.523   5.008  17.615  0.00  0.00    +0.000 N 
ATOM     16  C   UNL     1       4.778   5.320  18.767  0.00  0.00    +0.000 C 
ATOM     17  O   UNL     1       5.306   5.315  19.890  0.00  0.00    +0.000 OA
BRANCH  15  18
ATOM     18  C   UNL     1       6.933   4.630  17.854  0.00  0.00    +0.000 C 
BRANCH  18  19
ATOM     19  C   UNL     1       7.873   5.742  18.359  0.00  0.00    +0.000 C 
BRANCH  19  20
ATOM     20  C   UNL     1       7.583   7.161  17.866  0.00  0.00    +0.000 C 
BRANCH  20  22
ATOM     21  C   UNL     1       8.299   9.582  17.875  0.00  0.00    +0.000 C 
ATOM     22  C   UNL     1       8.407   8.235  18.576  0.00  0.00    +0.000 C 
ENDBRANCH  20  22
ENDBRANCH  19  20
ENDBRANCH  18  19
ENDBRANCH  15  18
BRANCH  15  23
ATOM     23  C   UNL     1       5.142   5.139  16.169  0.00  0.00    +0.000 C 
BRANCH  23  24
ATOM     24  C   UNL     1       6.231   5.564  15.187  0.00  0.00    +0.000 C 
BRANCH  24  25
ATOM     25  C   UNL     1       6.631   4.615  14.056  0.00  0.00    +0.000 C 
BRANCH  25  26
ATOM     26  C   UNL     1       5.353   3.866  13.625  0.00  0.00    +0.000 C 
ATOM     27  C   UNL     1       5.415   3.293  12.224  0.00  0.00    +0.000 C 
ENDBRANCH  25  26
ENDBRANCH  24  25
ENDBRANCH  23  24
ENDBRANCH  15  23
ENDBRANCH   1  16
BRANCH   1  28
ATOM     28  C   UNL     1       2.376   4.508  18.263  0.00  0.00    +0.000 C 
BRANCH  28  29
ATOM     29  C   UNL     1       2.578   3.298  19.184  0.00  0.00    +0.000 C 
BRANCH  29  30
ATOM     30  C   UNL     1       2.844   1.996  18.494  0.00  0.00    +0.000 C 
ATOM     31  O   UNL     1       3.685   1.175  18.817  0.00  0.00    +0.000 OA
BRANCH  30  32
ATOM     32  O   UNL     1       2.020   1.823  17.426  0.00  0.00    +0.000 OA
ATOM     33  H   UNL     1       2.470   1.942  16.566  0.00  0.00    +0.000 HD
ENDBRANCH  30  32
ENDBRANCH  29  30
ENDBRANCH  28  29
ENDBRANCH   1  28
TORSDOF 15
ENDMDL
MODEL 5
REMARK VINA RESULT:      -7.0      1.645      4.105
REMARK  Name = 
REMARK  17 active torsions:
REMARK  status: ('A' for Active; 'I' for Inactive)
REMARK    1  A    between atoms: C_1  and  C_2
REMARK    2  A    between atoms: C_2  and  C_3
REMARK    3  A    between atoms: C_3  and  C_4
REMARK    4  A    between atoms: C_4  and  C_5
REMARK    5  A    between atoms: C_5  and  N_6
REMARK    6  A    between atoms: N_6  and  C_7
REMARK    7  A    between atoms: C_7  and  C_8
REMARK    8  A    between atoms: C_8  and  C_9
REMARK    9  A    between atoms: C_9  and  C_10
REMARK   10  A    between atoms: C_10  and  C_11
REMARK   11  A    between atoms: C_12  and  C_14
REMARK   12  A    between atoms: C_14  and  C_15
REMARK   13  A    between atoms: C_14  and  N_20
REMARK   14  A    between atoms: C_15  and  C_16
REMARK   15  A    between atoms: C_16  and  C_17
REMARK   16  A    between atoms: C_17  and  O_19
REMARK   17  A    between atoms: N_23  and  C_24
REMARK                            x       y       z     vdW  Elec       q    Type
REMARK                         _______ _______ _______ _____ _____    ______ ____
ROOT
ATOM      1  C   UNL     1       3.120   4.641  18.881  0.00  0.00    +0.000 C 
ENDROOT
BRANCH   1   2
ATOM      2  N   UNL     1       2.959   6.104  18.889  0.00  0.00    +0.000 N 
ATOM      3  C   UNL     1       1.953   6.673  19.635  0.00  0.00    +0.000 C 
ATOM      4  O   UNL     1       1.151   5.982  20.256  0.00  0.00    +0.000 OA
ATOM      5  N   UNL     1       2.012   8.043  19.684  0.00  0.00    +0.000 N 
ATOM      6  H   UNL     1       3.591   6.650  18.318  0.00  0.00    +0.000 HD
ATOM      7  H   UNL     1       2.427   8.497  18.884  0.00  0.00    +0.000 HD
BRANCH   5   8
ATOM      8  C   UNL     1       1.228   8.834  20.556  0.00  0.00    +0.000 A 
ATOM      9  C   UNL     1       1.290   8.711  21.952  0.00  0.00    +0.000 A 
ATOM     10  C   UNL     1       0.443   9.455  22.776  0.00  0.00    +0.000 A 
ATOM     11  C   UNL     1      -0.463  10.341  22.208  0.00  0.00    +0.000 A 
ATOM     12 CL   UNL     1      -1.548  11.216  23.216  0.00  0.00    +0.000 Cl
ATOM     13  C   UNL     1      -0.500  10.516  20.825  0.00  0.00    +0.000 A 
ATOM     14  C   UNL     1       0.356   9.773  20.001  0.00  0.00    +0.000 A 
ENDBRANCH   5   8
ENDBRANCH   1   2
BRANCH   1  16
ATOM     15  N   UNL     1       5.184   4.277  17.373  0.00  0.00    +0.000 N 
ATOM     16  C   UNL     1       3.799   4.147  17.582  0.00  0.00    +0.000 C 
ATOM     17  O   UNL     1       3.070   3.625  16.725  0.00  0.00    +0.000 OA
BRANCH  15  18
ATOM     18  C   UNL     1       5.675   3.802  16.061  0.00  0.00    +0.000 C 
BRANCH  18  19
ATOM     19  C   UNL     1       5.547   4.779  14.876  0.00  0.00    +0.000 C 
BRANCH  19  20
ATOM     20  C   UNL     1       6.539   4.595  13.725  0.00  0.00    +0.000 C 
BRANCH  20  22
ATOM     21  C   UNL     1       4.904   3.523  12.129  0.00  0.00    +0.000 C 
ATOM     22  C   UNL     1       6.238   3.381  12.848  0.00  0.00    +0.000 C 
ENDBRANCH  20  22
ENDBRANCH  19  20
ENDBRANCH  18  19
ENDBRANCH  15  18
BRANCH  15  23
ATOM     23  C   UNL     1       6.259   4.691  18.336  0.00  0.00    +0.000 C 
BRANCH  23  24
ATOM     24  C   UNL     1       7.475   5.418  17.769  0.00  0.00    +0.000 C 
BRANCH  24  25
ATOM     25  C   UNL     1       7.978   6.687  18.459  0.00  0.00    +0.000 C 
BRANCH  25  26
ATOM     26  C   UNL     1       7.592   7.874  17.553  0.00  0.00    +0.000 C 
ATOM     27  C   UNL     1       8.221   9.192  17.958  0.00  0.00    +0.000 C 
ENDBRANCH  25  26
ENDBRANCH  24  25
ENDBRANCH  23  24
ENDBRANCH  15  23
ENDBRANCH   1  16
BRANCH   1  28
ATOM     28  C   UNL     1       3.841   4.181  20.166  0.00  0.00    +0.000 C 
BRANCH  28  29
ATOM     29  C   UNL     1       3.483   2.729  20.505  0.00  0.00    +0.000 C 
BRANCH  29  30
ATOM     30  C   UNL     1       4.605   1.743  20.399  0.00  0.00    +0.000 C 
ATOM     31  O   UNL     1       5.420   1.491  21.271  0.00  0.00    +0.000 OA
BRANCH  30  32
ATOM     32  O   UNL     1       4.625   1.142  19.179  0.00  0.00    +0.000 OA
ATOM     33  H   UNL     1       5.490   1.211  18.727  0.00  0.00    +0.000 HD
ENDBRANCH  30  32
ENDBRANCH  29  30
ENDBRANCH  28  29
ENDBRANCH   1  28
TORSDOF 15
ENDMDL
MODEL 6
REMARK VINA RESULT:      -7.0      1.729      4.524
REMARK  Name = 
REMARK  17 active torsions:
REMARK  status: ('A' for Active; 'I' for Inactive)
REMARK    1  A    between atoms: C_1  and  C_2
REMARK    2  A    between atoms: C_2  and  C_3
REMARK    3  A    between atoms: C_3  and  C_4
REMARK    4  A    between atoms: C_4  and  C_5
REMARK    5  A    between atoms: C_5  and  N_6
REMARK    6  A    between atoms: N_6  and  C_7
REMARK    7  A    between atoms: C_7  and  C_8
REMARK    8  A    between atoms: C_8  and  C_9
REMARK    9  A    between atoms: C_9  and  C_10
REMARK   10  A    between atoms: C_10  and  C_11
REMARK   11  A    between atoms: C_12  and  C_14
REMARK   12  A    between atoms: C_14  and  C_15
REMARK   13  A    between atoms: C_14  and  N_20
REMARK   14  A    between atoms: C_15  and  C_16
REMARK   15  A    between atoms: C_16  and  C_17
REMARK   16  A    between atoms: C_17  and  O_19
REMARK   17  A    between atoms: N_23  and  C_24
REMARK                            x       y       z     vdW  Elec       q    Type
REMARK                         _______ _______ _______ _____ _____    ______ ____
ROOT
ATOM      1  C   UNL     1       5.623   5.109  18.988  0.00  0.00    +0.000 C 
ENDROOT
BRANCH   1   2
ATOM      2  N   UNL     1       4.860   6.144  18.272  0.00  0.00    +0.000 N 
ATOM      3  C   UNL     1       3.671   6.596  18.795  0.00  0.00    +0.000 C 
ATOM      4  O   UNL     1       3.202   6.116  19.822  0.00  0.00    +0.000 OA
ATOM      5  N   UNL     1       3.144   7.668  18.118  0.00  0.00    +0.000 N 
ATOM      6  H   UNL     1       5.233   6.479  17.393  0.00  0.00    +0.000 HD
ATOM      7  H   UNL     1       3.372   7.727  17.137  0.00  0.00    +0.000 HD
BRANCH   5   8
ATOM      8  C   UNL     1       2.056   8.438  18.589  0.00  0.00    +0.000 A 
ATOM      9  C   UNL     1       1.272   9.239  17.745  0.00  0.00    +0.000 A 
ATOM     10  C   UNL     1       0.256  10.046  18.259  0.00  0.00    +0.000 A 
ATOM     11  C   UNL     1       0.006  10.045  19.626  0.00  0.00    +0.000 A 
ATOM     12 CL   UNL     1      -1.207  11.080  20.271  0.00  0.00    +0.000 Cl
ATOM     13  C   UNL     1       0.738   9.215  20.473  0.00  0.00    +0.000 A 
ATOM     14  C   UNL     1       1.753   8.400  19.952  0.00  0.00    +0.000 A 
ENDBRANCH   5   8
ENDBRANCH   1   2
BRANCH   1  16
ATOM     15  N   UNL     1       4.263   3.292  17.757  0.00  0.00    +0.000 N 
ATOM     16  C   UNL     1       4.923   3.732  18.919  0.00  0.00    +0.000 C 
ATOM     17  O   UNL     1       4.969   3.021  19.935  0.00  0.00    +0.000 OA
BRANCH  15  18
ATOM     18  C   UNL     1       3.600   1.974  17.864  0.00  0.00    +0.000 C 
BRANCH  18  19
ATOM     19  C   UNL     1       2.067   1.978  18.015  0.00  0.00    +0.000 C 
BRANCH  19  20
ATOM     20  C   UNL     1       1.483   2.936  19.056  0.00  0.00    +0.000 C 
BRANCH  20  22
ATOM     21  C   UNL     1       1.845   3.458  21.499  0.00  0.00    +0.000 C 
ATOM     22  C   UNL     1       1.508   2.379  20.479  0.00  0.00    +0.000 C 
ENDBRANCH  20  22
ENDBRANCH  19  20
ENDBRANCH  18  19
ENDBRANCH  15  18
BRANCH  15  23
ATOM     23  C   UNL     1       4.252   3.894  16.382  0.00  0.00    +0.000 C 
BRANCH  23  24
ATOM     24  C   UNL     1       5.528   3.783  15.551  0.00  0.00    +0.000 C 
BRANCH  24  25
ATOM     25  C   UNL     1       5.461   4.022  14.042  0.00  0.00    +0.000 C 
BRANCH  25  26
ATOM     26  C   UNL     1       6.887   4.386  13.581  0.00  0.00    +0.000 C 
ATOM     27  C   UNL     1       7.128   4.191  12.098  0.00  0.00    +0.000 C 
ENDBRANCH  25  26
ENDBRANCH  24  25
ENDBRANCH  23  24
ENDBRANCH  15  23
ENDBRANCH   1  16
BRANCH   1  28
ATOM     28  C   UNL     1       7.082   5.085  18.487  0.00  0.00    +0.000 C 
BRANCH  28  29
ATOM     29  C   UNL     1       7.737   6.464  18.639  0.00  0.00    +0.000 C 
BRANCH  29  30
ATOM     30  C   UNL     1       7.696   7.339  17.424  0.00  0.00    +0.000 C 
ATOM     31  O   UNL     1       7.863   8.546  17.407  0.00  0.00    +0.000 OA
BRANCH  30  32
ATOM     32  O   UNL     1       7.435   6.617  16.301  0.00  0.00    +0.000 OA
ATOM     33  H   UNL     1       6.504   6.324  16.236  0.00  0.00    +0.000 HD
ENDBRANCH  30  32
ENDBRANCH  29  30
ENDBRANCH  28  29
ENDBRANCH   1  28
TORSDOF 15
ENDMDL
MODEL 7
REMARK VINA RESULT:      -6.9      1.472      1.758
REMARK  Name = 
REMARK  17 active torsions:
REMARK  status: ('A' for Active; 'I' for Inactive)
REMARK    1  A    between atoms: C_1  and  C_2
REMARK    2  A    between atoms: C_2  and  C_3
REMARK    3  A    between atoms: C_3  and  C_4
REMARK    4  A    between atoms: C_4  and  C_5
REMARK    5  A    between atoms: C_5  and  N_6
REMARK    6  A    between atoms: N_6  and  C_7
REMARK    7  A    between atoms: C_7  and  C_8
REMARK    8  A    between atoms: C_8  and  C_9
REMARK    9  A    between atoms: C_9  and  C_10
REMARK   10  A    between atoms: C_10  and  C_11
REMARK   11  A    between atoms: C_12  and  C_14
REMARK   12  A    between atoms: C_14  and  C_15
REMARK   13  A    between atoms: C_14  and  N_20
REMARK   14  A    between atoms: C_15  and  C_16
REMARK   15  A    between atoms: C_16  and  C_17
REMARK   16  A    between atoms: C_17  and  O_19
REMARK   17  A    between atoms: N_23  and  C_24
REMARK                            x       y       z     vdW  Elec       q    Type
REMARK                         _______ _______ _______ _____ _____    ______ ____
ROOT
ATOM      1  C   UNL     1       3.301   5.059  18.900  0.00  0.00    +0.000 C 
ENDROOT
BRANCH   1   2
ATOM      2  N   UNL     1       2.795   5.757  20.092  0.00  0.00    +0.000 N 
ATOM      3  C   UNL     1       2.279   7.026  19.969  0.00  0.00    +0.000 C 
ATOM      4  O   UNL     1       2.280   7.613  18.891  0.00  0.00    +0.000 OA
ATOM      5  N   UNL     1       1.699   7.498  21.119  0.00  0.00    +0.000 N 
ATOM      6  H   UNL     1       2.865   5.280  20.981  0.00  0.00    +0.000 HD
ATOM      7  H   UNL     1       2.073   7.139  21.984  0.00  0.00    +0.000 HD
BRANCH   5   8
ATOM      8  C   UNL     1       0.915   8.674  21.180  0.00  0.00    +0.000 A 
ATOM      9  C   UNL     1       0.698   9.499  20.066  0.00  0.00    +0.000 A 
ATOM     10  C   UNL     1      -0.016  10.693  20.185  0.00  0.00    +0.000 A 
ATOM     11  C   UNL     1      -0.533  11.062  21.420  0.00  0.00    +0.000 A 
ATOM     12 CL   UNL     1      -1.364  12.560  21.584  0.00  0.00    +0.000 Cl
ATOM     13  C   UNL     1      -0.374  10.228  22.526  0.00  0.00    +0.000 A 
ATOM     14  C   UNL     1       0.337   9.027  22.402  0.00  0.00    +0.000 A 
ENDBRANCH   5   8
ENDBRANCH   1   2
BRANCH   1  16
ATOM     15  N   UNL     1       5.522   4.975  17.587  0.00  0.00    +0.000 N 
ATOM     16  C   UNL     1       4.843   5.122  18.810  0.00  0.00    +0.000 C 
ATOM     17  O   UNL     1       5.465   5.313  19.867  0.00  0.00    +0.000 OA
BRANCH  15  18
ATOM     18  C   UNL     1       6.999   5.011  17.672  0.00  0.00    +0.000 C 
BRANCH  18  19
ATOM     19  C   UNL     1       7.624   6.211  18.409  0.00  0.00    +0.000 C 
BRANCH  19  20
ATOM     20  C   UNL     1       7.646   7.542  17.655  0.00  0.00    +0.000 C 
BRANCH  20  22
ATOM     21  C   UNL     1       8.169  10.004  17.850  0.00  0.00    +0.000 C 
ATOM     22  C   UNL     1       8.534   8.600  18.310  0.00  0.00    +0.000 C 
ENDBRANCH  20  22
ENDBRANCH  19  20
ENDBRANCH  18  19
ENDBRANCH  15  18
BRANCH  15  23
ATOM     23  C   UNL     1       4.972   4.933  16.190  0.00  0.00    +0.000 C 
BRANCH  23  24
ATOM     24  C   UNL     1       5.745   5.674  15.103  0.00  0.00    +0.000 C 
BRANCH  24  25
ATOM     25  C   UNL     1       6.774   4.914  14.265  0.00  0.00    +0.000 C 
BRANCH  25  26
ATOM     26  C   UNL     1       6.122   3.579  13.854  0.00  0.00    +0.000 C 
ATOM     27  C   UNL     1       5.871   3.443  12.366  0.00  0.00    +0.000 C 
ENDBRANCH  25  26
ENDBRANCH  24  25
ENDBRANCH  23  24
ENDBRANCH  15  23
ENDBRANCH   1  16
BRANCH   1  28
ATOM     28  C   UNL     1       2.740   3.622  18.850  0.00  0.00    +0.000 C 
BRANCH  28  29
ATOM     29  C   UNL     1       3.830   2.596  19.183  0.00  0.00    +0.000 C 
BRANCH  29  30
ATOM     30  C   UNL     1       4.009   2.288  20.637  0.00  0.00    +0.000 C 
ATOM     31  O   UNL     1       4.953   1.696  21.132  0.00  0.00    +0.000 OA
BRANCH  30  32
ATOM     32  O   UNL     1       2.963   2.750  21.375  0.00  0.00    +0.000 OA
ATOM     33  H   UNL     1       2.121   2.290  21.184  0.00  0.00    +0.000 HD
ENDBRANCH  30  32
ENDBRANCH  29  30
ENDBRANCH  28  29
ENDBRANCH   1  28
TORSDOF 15
ENDMDL
MODEL 8
REMARK VINA RESULT:      -6.9      1.504      1.833
REMARK  Name = 
REMARK  17 active torsions:
REMARK  status: ('A' for Active; 'I' for Inactive)
REMARK    1  A    between atoms: C_1  and  C_2
REMARK    2  A    between atoms: C_2  and  C_3
REMARK    3  A    between atoms: C_3  and  C_4
REMARK    4  A    between atoms: C_4  and  C_5
REMARK    5  A    between atoms: C_5  and  N_6
REMARK    6  A    between atoms: N_6  and  C_7
REMARK    7  A    between atoms: C_7  and  C_8
REMARK    8  A    between atoms: C_8  and  C_9
REMARK    9  A    between atoms: C_9  and  C_10
REMARK   10  A    between atoms: C_10  and  C_11
REMARK   11  A    between atoms: C_12  and  C_14
REMARK   12  A    between atoms: C_14  and  C_15
REMARK   13  A    between atoms: C_14  and  N_20
REMARK   14  A    between atoms: C_15  and  C_16
REMARK   15  A    between atoms: C_16  and  C_17
REMARK   16  A    between atoms: C_17  and  O_19
REMARK   17  A    between atoms: N_23  and  C_24
REMARK                            x       y       z     vdW  Elec       q    Type
REMARK                         _______ _______ _______ _____ _____    ______ ____
ROOT
ATOM      1  C   UNL     1       2.952   5.736  18.457  0.00  0.00    +0.000 C 
ENDROOT
BRANCH   1   2
ATOM      2  N   UNL     1       2.357   6.550  19.528  0.00  0.00    +0.000 N 
ATOM      3  C   UNL     1       2.046   7.869  19.288  0.00  0.00    +0.000 C 
ATOM      4  O   UNL     1       2.303   8.398  18.210  0.00  0.00    +0.000 OA
ATOM      5  N   UNL     1       1.354   8.467  20.310  0.00  0.00    +0.000 N 
ATOM      6  H   UNL     1       2.215   6.112  20.429  0.00  0.00    +0.000 HD
ATOM      7  H   UNL     1       1.530   8.103  21.235  0.00  0.00    +0.000 HD
BRANCH   5   8
ATOM      8  C   UNL     1       0.738   9.736  20.208  0.00  0.00    +0.000 A 
ATOM      9  C   UNL     1       0.964  10.765  21.134  0.00  0.00    +0.000 A 
ATOM     10  C   UNL     1       0.277  11.977  21.043  0.00  0.00    +0.000 A 
ATOM     11  C   UNL     1      -0.632  12.173  20.011  0.00  0.00    +0.000 A 
ATOM     12 CL   UNL     1      -1.524  13.642  19.928  0.00  0.00    +0.000 Cl
ATOM     13  C   UNL     1      -0.829  11.182  19.050  0.00  0.00    +0.000 A 
ATOM     14  C   UNL     1      -0.132   9.970  19.141  0.00  0.00    +0.000 A 
ENDBRANCH   5   8
ENDBRANCH   1   2
BRANCH   1  16
ATOM     15  N   UNL     1       5.285   4.922  17.708  0.00  0.00    +0.000 N 
ATOM     16  C   UNL     1       4.458   5.482  18.699  0.00  0.00    +0.000 C 
ATOM     17  O   UNL     1       4.914   5.797  19.809  0.00  0.00    +0.000 OA
BRANCH  15  18
ATOM     18  C   UNL     1       6.691   4.696  18.109  0.00  0.00    +0.000 C 
BRANCH  18  19
ATOM     19  C   UNL     1       7.576   5.946  18.275  0.00  0.00    +0.000 C 
BRANCH  19  20
ATOM     20  C   UNL     1       7.528   6.975  17.143  0.00  0.00    +0.000 C 
BRANCH  20  22
ATOM     21  C   UNL     1       8.718   8.638  18.623  0.00  0.00    +0.000 C 
ATOM     22  C   UNL     1       7.584   8.422  17.631  0.00  0.00    +0.000 C 
ENDBRANCH  20  22
ENDBRANCH  19  20
ENDBRANCH  18  19
ENDBRANCH  15  18
BRANCH  15  23
ATOM     23  C   UNL     1       4.991   4.654  16.261  0.00  0.00    +0.000 C 
BRANCH  23  24
ATOM     24  C   UNL     1       6.038   3.889  15.456  0.00  0.00    +0.000 C 
BRANCH  24  25
ATOM     25  C   UNL     1       6.611   4.518  14.185  0.00  0.00    +0.000 C 
BRANCH  25  26
ATOM     26  C   UNL     1       6.139   3.651  13.001  0.00  0.00    +0.000 C 
ATOM     27  C   UNL     1       6.998   3.776  11.760  0.00  0.00    +0.000 C 
ENDBRANCH  25  26
ENDBRANCH  24  25
ENDBRANCH  23  24
ENDBRANCH  15  23
ENDBRANCH   1  16
BRANCH   1  28
ATOM     28  C   UNL     1       2.133   4.442  18.259  0.00  0.00    +0.000 C 
BRANCH  28  29
ATOM     29  C   UNL     1       1.263   4.151  19.489  0.00  0.00    +0.000 C 
BRANCH  29  30
ATOM     30  C   UNL     1       1.399   2.777  20.068  0.00  0.00    +0.000 C 
ATOM     31  O   UNL     1       1.868   1.805  19.500  0.00  0.00    +0.000 OA
BRANCH  30  32
ATOM     32  O   UNL     1       0.921   2.725  21.341  0.00  0.00    +0.000 OA
ATOM     33  H   UNL     1      -0.042   2.559  21.386  0.00  0.00    +0.000 HD
ENDBRANCH  30  32
ENDBRANCH  29  30
ENDBRANCH  28  29
ENDBRANCH   1  28
TORSDOF 15
ENDMDL
MODEL 9
REMARK VINA RESULT:      -6.9      3.611      7.660
REMARK  Name = 
REMARK  17 active torsions:
REMARK  status: ('A' for Active; 'I' for Inactive)
REMARK    1  A    between atoms: C_1  and  C_2
REMARK    2  A    between atoms: C_2  and  C_3
REMARK    3  A    between atoms: C_3  and  C_4
REMARK    4  A    between atoms: C_4  and  C_5
REMARK    5  A    between atoms: C_5  and  N_6
REMARK    6  A    between atoms: N_6  and  C_7
REMARK    7  A    between atoms: C_7  and  C_8
REMARK    8  A    between atoms: C_8  and  C_9
REMARK    9  A    between atoms: C_9  and  C_10
REMARK   10  A    between atoms: C_10  and  C_11
REMARK   11  A    between atoms: C_12  and  C_14
REMARK   12  A    between atoms: C_14  and  C_15
REMARK   13  A    between atoms: C_14  and  N_20
REMARK   14  A    between atoms: C_15  and  C_16
REMARK   15  A    between atoms: C_16  and  C_17
REMARK   16  A    between atoms: C_17  and  O_19
REMARK   17  A    between atoms: N_23  and  C_24
REMARK                            x       y       z     vdW  Elec       q    Type
REMARK                         _______ _______ _______ _____ _____    ______ ____
ROOT
ATOM      1  C   UNL     1       6.508   5.934  17.065  0.00  0.00    +0.000 C 
ENDROOT
BRANCH   1   2
ATOM      2  N   UNL     1       6.650   7.398  17.085  0.00  0.00    +0.000 N 
ATOM      3  C   UNL     1       7.617   7.977  17.874  0.00  0.00    +0.000 C 
ATOM      4  O   UNL     1       8.332   7.299  18.606  0.00  0.00    +0.000 OA
ATOM      5  N   UNL     1       7.749   9.328  17.681  0.00  0.00    +0.000 N 
ATOM      6  H   UNL     1       6.006   7.941  16.525  0.00  0.00    +0.000 HD
ATOM      7  H   UNL     1       6.917   9.816  17.383  0.00  0.00    +0.000 HD
BRANCH   5   8
ATOM      8  C   UNL     1       8.811  10.099  18.209  0.00  0.00    +0.000 A 
ATOM      9  C   UNL     1       9.741  10.766  17.397  0.00  0.00    +0.000 A 
ATOM     10  C   UNL     1      10.821  11.451  17.956  0.00  0.00    +0.000 A 
ATOM     11  C   UNL     1      10.969  11.489  19.336  0.00  0.00    +0.000 A 
ATOM     12 CL   UNL     1      12.329  12.284  20.027  0.00  0.00    +0.000 Cl
ATOM     13  C   UNL     1      10.024  10.879  20.160  0.00  0.00    +0.000 A 
ATOM     14  C   UNL     1       8.937  10.197  19.597  0.00  0.00    +0.000 A 
ENDBRANCH   5   8
ENDBRANCH   1   2
BRANCH   1  16
ATOM     15  N   UNL     1       4.316   6.045  18.424  0.00  0.00    +0.000 N 
ATOM     16  C   UNL     1       5.559   5.435  18.179  0.00  0.00    +0.000 C 
ATOM     17  O   UNL     1       5.938   4.464  18.853  0.00  0.00    +0.000 OA
BRANCH  15  18
ATOM     18  C   UNL     1       3.545   5.485  19.556  0.00  0.00    +0.000 C 
BRANCH  18  19
ATOM     19  C   UNL     1       2.995   4.056  19.382  0.00  0.00    +0.000 C 
BRANCH  19  20
ATOM     20  C   UNL     1       1.474   3.913  19.300  0.00  0.00    +0.000 C 
BRANCH  20  22
ATOM     21  C   UNL     1       1.925   2.790  21.516  0.00  0.00    +0.000 C 
ATOM     22  C   UNL     1       0.860   3.220  20.517  0.00  0.00    +0.000 C 
ENDBRANCH  20  22
ENDBRANCH  19  20
ENDBRANCH  18  19
ENDBRANCH  15  18
BRANCH  15  23
ATOM     23  C   UNL     1       3.589   7.085  17.620  0.00  0.00    +0.000 C 
BRANCH  23  24
ATOM     24  C   UNL     1       2.184   7.473  18.070  0.00  0.00    +0.000 C 
BRANCH  24  25
ATOM     25  C   UNL     1       1.946   8.860  18.671  0.00  0.00    +0.000 C 
BRANCH  25  26
ATOM     26  C   UNL     1       0.769   9.488  17.899  0.00  0.00    +0.000 C 
ATOM     27  C   UNL     1      -0.282  10.126  18.784  0.00  0.00    +0.000 C 
ENDBRANCH  25  26
ENDBRANCH  24  25
ENDBRANCH  23  24
ENDBRANCH  15  23
ENDBRANCH   1  16
BRANCH   1  28
ATOM     28  C   UNL     1       6.102   5.461  15.652  0.00  0.00    +0.000 C 
BRANCH  28  29
ATOM     29  C   UNL     1       7.235   4.663  14.995  0.00  0.00    +0.000 C 
BRANCH  29  30
ATOM     30  C   UNL     1       7.280   4.713  13.499  0.00  0.00    +0.000 C 
ATOM     31  O   UNL     1       6.602   4.040  12.741  0.00  0.00    +0.000 OA
BRANCH  30  32
ATOM     32  O   UNL     1       8.195   5.619  13.059  0.00  0.00    +0.000 OA
ATOM     33  H   UNL     1       9.036   5.593  13.558  0.00  0.00    +0.000 HD
ENDBRANCH  30  32
ENDBRANCH  29  30
ENDBRANCH  28  29
ENDBRANCH   1  28
TORSDOF 15
ENDMDL
