MODEL 1
REMARK VINA RESULT:      -7.2      0.000      0.000
REMARK  Name = 
REMARK  7 active torsions:
REMARK  status: ('A' for Active; 'I' for Inactive)
REMARK    1  A    between atoms: C_1  and  O_2
REMARK    2  A    between atoms: O_2  and  C_3
REMARK    3  A    between atoms: C_3  and  C_4
REMARK    4  A    between atoms: C_3  and  C_5
REMARK    5  A    between atoms: C_3  and  C_6
REMARK    6  A    between atoms: C_6  and  C_7
REMARK    7  A    between atoms: C_6  and  N_8
REMARK                            x       y       z     vdW  Elec       q    Type
REMARK                         _______ _______ _______ _____ _____    ______ ____
ROOT
ATOM      1  N   UNL     1       4.832   4.681  17.857  0.00  0.00    +0.000 N 
ATOM      2  C   UNL     1       3.841   5.171  18.662  0.00  0.00    +0.000 C 
ATOM      3  O   UNL     1       3.946   5.962  19.588  0.00  0.00    +0.000 OA
ATOM      4  C   UNL     1       2.521   4.617  18.155  0.00  0.00    +0.000 C 
ATOM      5  C   UNL     1       1.519   4.107  19.162  0.00  0.00    +0.000 C 
ATOM      6  C   UNL     1       1.420   2.609  18.904  0.00  0.00    +0.000 C 
ATOM      7  F   UNL     1       0.137   2.273  18.628  0.00  0.00    +0.000 F 
ATOM      8  F   UNL     1       1.778   1.931  20.019  0.00  0.00    +0.000 F 
ATOM      9  C   UNL     1       2.335   2.263  17.736  0.00  0.00    +0.000 C 
ATOM     10  N   UNL     1       2.989   3.506  17.380  0.00  0.00    +0.000 N 
ATOM     11  C   UNL     1       4.372   3.566  17.206  0.00  0.00    +0.000 C 
ATOM     12  O   UNL     1       5.041   2.684  16.689  0.00  0.00    +0.000 OA
ENDROOT
BRANCH   1  13
ATOM     13  C   UNL     1       6.236   5.126  17.818  0.00  0.00    +0.000 C 
ATOM     14  C   UNL     1       6.775   5.428  19.220  0.00  0.00    +0.000 C 
BRANCH  13  15
ATOM     15  C   UNL     1       6.454   6.271  16.750  0.00  0.00    +0.000 C 
ATOM     16  C   UNL     1       7.022   7.525  17.441  0.00  0.00    +0.000 C 
ATOM     17  C   UNL     1       5.160   6.644  16.010  0.00  0.00    +0.000 C 
BRANCH  15  19
ATOM     18  C   UNL     1       6.961   4.861  14.804  0.00  0.00    +0.000 C 
ATOM     19  O   UNL     1       7.427   5.739  15.818  0.00  0.00    +0.000 OA
ENDBRANCH  15  19
ENDBRANCH  13  15
ENDBRANCH   1  13
TORSDOF 3
ENDMDL
MODEL 2
REMARK VINA RESULT:      -7.1      1.471      2.937
REMARK  Name = 
REMARK  7 active torsions:
REMARK  status: ('A' for Active; 'I' for Inactive)
REMARK    1  A    between atoms: C_1  and  O_2
REMARK    2  A    between atoms: O_2  and  C_3
REMARK    3  A    between atoms: C_3  and  C_4
REMARK    4  A    between atoms: C_3  and  C_5
REMARK    5  A    between atoms: C_3  and  C_6
REMARK    6  A    between atoms: C_6  and  C_7
REMARK    7  A    between atoms: C_6  and  N_8
REMARK                            x       y       z     vdW  Elec       q    Type
REMARK                         _______ _______ _______ _____ _____    ______ ____
ROOT
ATOM      1  N   UNL     1       4.504   5.075  18.298  0.00  0.00    +0.000 N 
ATOM      2  C   UNL     1       4.309   3.727  18.407  0.00  0.00    +0.000 C 
ATOM      3  O   UNL     1       4.605   2.856  17.602  0.00  0.00    +0.000 OA
ATOM      4  C   UNL     1       3.712   3.458  19.777  0.00  0.00    +0.000 C 
ATOM      5  C   UNL     1       2.566   2.481  19.886  0.00  0.00    +0.000 C 
ATOM      6  C   UNL     1       1.370   3.315  20.324  0.00  0.00    +0.000 C 
ATOM      7  F   UNL     1       0.867   2.826  21.483  0.00  0.00    +0.000 F 
ATOM      8  F   UNL     1       0.389   3.227  19.396  0.00  0.00    +0.000 F 
ATOM      9  C   UNL     1       1.830   4.757  20.498  0.00  0.00    +0.000 C 
ATOM     10  N   UNL     1       3.225   4.764  20.106  0.00  0.00    +0.000 N 
ATOM     11  C   UNL     1       3.716   5.719  19.216  0.00  0.00    +0.000 C 
ATOM     12  O   UNL     1       3.364   6.888  19.195  0.00  0.00    +0.000 OA
ENDROOT
BRANCH   1  13
ATOM     13  C   UNL     1       5.272   5.773  17.251  0.00  0.00    +0.000 C 
ATOM     14  C   UNL     1       4.873   5.304  15.848  0.00  0.00    +0.000 C 
BRANCH  13  15
ATOM     15  C   UNL     1       6.823   5.750  17.554  0.00  0.00    +0.000 C 
ATOM     16  C   UNL     1       7.450   4.476  16.956  0.00  0.00    +0.000 C 
ATOM     17  C   UNL     1       7.134   5.807  19.058  0.00  0.00    +0.000 C 
BRANCH  15  19
ATOM     18  C   UNL     1       7.736   8.025  17.695  0.00  0.00    +0.000 C 
ATOM     19  O   UNL     1       7.356   6.920  16.888  0.00  0.00    +0.000 OA
ENDBRANCH  15  19
ENDBRANCH  13  15
ENDBRANCH   1  13
TORSDOF 3
ENDMDL
MODEL 3
REMARK VINA RESULT:      -7.1      1.182      2.776
REMARK  Name = 
REMARK  7 active torsions:
REMARK  status: ('A' for Active; 'I' for Inactive)
REMARK    1  A    between atoms: C_1  and  O_2
REMARK    2  A    between atoms: O_2  and  C_3
REMARK    3  A    between atoms: C_3  and  C_4
REMARK    4  A    between atoms: C_3  and  C_5
REMARK    5  A    between atoms: C_3  and  C_6
REMARK    6  A    between atoms: C_6  and  C_7
REMARK    7  A    between atoms: C_6  and  N_8
REMARK                            x       y       z     vdW  Elec       q    Type
REMARK                         _______ _______ _______ _____ _____    ______ ____
ROOT
ATOM      1  N   UNL     1       4.809   4.994  17.889  0.00  0.00    +0.000 N 
ATOM      2  C   UNL     1       4.459   3.886  17.167  0.00  0.00    +0.000 C 
ATOM      3  O   UNL     1       4.575   3.704  15.964  0.00  0.00    +0.000 OA
ATOM      4  C   UNL     1       3.952   2.842  18.146  0.00  0.00    +0.000 C 
ATOM      5  C   UNL     1       2.708   2.064  17.791  0.00  0.00    +0.000 C 
ATOM      6  C   UNL     1       1.666   2.487  18.817  0.00  0.00    +0.000 C 
ATOM      7  F   UNL     1       1.207   1.401  19.483  0.00  0.00    +0.000 F 
ATOM      8  F   UNL     1       0.606   3.045  18.187  0.00  0.00    +0.000 F 
ATOM      9  C   UNL     1       2.313   3.478  19.777  0.00  0.00    +0.000 C 
ATOM     10  N   UNL     1       3.660   3.670  19.278  0.00  0.00    +0.000 N 
ATOM     11  C   UNL     1       4.188   4.950  19.109  0.00  0.00    +0.000 C 
ATOM     12  O   UNL     1       3.982   5.887  19.866  0.00  0.00    +0.000 OA
ENDROOT
BRANCH   1  13
ATOM     13  C   UNL     1       5.565   6.161  17.400  0.00  0.00    +0.000 C 
ATOM     14  C   UNL     1       5.098   6.597  16.007  0.00  0.00    +0.000 C 
BRANCH  13  15
ATOM     15  C   UNL     1       7.125   5.950  17.553  0.00  0.00    +0.000 C 
ATOM     16  C   UNL     1       7.543   4.644  16.852  0.00  0.00    +0.000 C 
ATOM     17  C   UNL     1       7.574   5.901  19.022  0.00  0.00    +0.000 C 
BRANCH  15  19
ATOM     18  C   UNL     1       7.911   8.275  17.634  0.00  0.00    +0.000 C 
ATOM     19  O   UNL     1       7.727   7.084  16.883  0.00  0.00    +0.000 OA
ENDBRANCH  15  19
ENDBRANCH  13  15
ENDBRANCH   1  13
TORSDOF 3
ENDMDL
MODEL 4
REMARK VINA RESULT:      -7.1      1.723      3.021
REMARK  Name = 
REMARK  7 active torsions:
REMARK  status: ('A' for Active; 'I' for Inactive)
REMARK    1  A    between atoms: C_1  and  O_2
REMARK    2  A    between atoms: O_2  and  C_3
REMARK    3  A    between atoms: C_3  and  C_4
REMARK    4  A    between atoms: C_3  and  C_5
REMARK    5  A    between atoms: C_3  and  C_6
REMARK    6  A    between atoms: C_6  and  C_7
REMARK    7  A    between atoms: C_6  and  N_8
REMARK                            x       y       z     vdW  Elec       q    Type
REMARK                         _______ _______ _______ _____ _____    ______ ____
ROOT
ATOM      1  N   UNL     1       4.371   5.071  18.552  0.00  0.00    +0.000 N 
ATOM      2  C   UNL     1       4.222   3.716  18.649  0.00  0.00    +0.000 C 
ATOM      3  O   UNL     1       4.582   2.861  17.853  0.00  0.00    +0.000 OA
ATOM      4  C   UNL     1       3.583   3.418  19.993  0.00  0.00    +0.000 C 
ATOM      5  C   UNL     1       2.471   2.399  20.053  0.00  0.00    +0.000 C 
ATOM      6  C   UNL     1       1.228   3.185  20.447  0.00  0.00    +0.000 C 
ATOM      7  F   UNL     1       0.699   2.672  21.584  0.00  0.00    +0.000 F 
ATOM      8  F   UNL     1       0.289   3.065  19.481  0.00  0.00    +0.000 F 
ATOM      9  C   UNL     1       1.626   4.643  20.644  0.00  0.00    +0.000 C 
ATOM     10  N   UNL     1       3.034   4.704  20.307  0.00  0.00    +0.000 N 
ATOM     11  C   UNL     1       3.524   5.681  19.440  0.00  0.00    +0.000 C 
ATOM     12  O   UNL     1       3.129   6.836  19.409  0.00  0.00    +0.000 OA
ENDROOT
BRANCH   1  13
ATOM     13  C   UNL     1       5.152   5.802  17.538  0.00  0.00    +0.000 C 
ATOM     14  C   UNL     1       4.768   5.383  16.115  0.00  0.00    +0.000 C 
BRANCH  13  15
ATOM     15  C   UNL     1       6.700   5.765  17.858  0.00  0.00    +0.000 C 
ATOM     16  C   UNL     1       7.343   7.110  17.473  0.00  0.00    +0.000 C 
ATOM     17  C   UNL     1       7.429   4.628  17.124  0.00  0.00    +0.000 C 
BRANCH  15  19
ATOM     18  C   UNL     1       8.072   5.605  19.889  0.00  0.00    +0.000 C 
ATOM     19  O   UNL     1       6.785   5.570  19.290  0.00  0.00    +0.000 OA
ENDBRANCH  15  19
ENDBRANCH  13  15
ENDBRANCH   1  13
TORSDOF 3
ENDMDL
MODEL 5
REMARK VINA RESULT:      -7.0      1.945      2.660
REMARK  Name = 
REMARK  7 active torsions:
REMARK  status: ('A' for Active; 'I' for Inactive)
REMARK    1  A    between atoms: C_1  and  O_2
REMARK    2  A    between atoms: O_2  and  C_3
REMARK    3  A    between atoms: C_3  and  C_4
REMARK    4  A    between atoms: C_3  and  C_5
REMARK    5  A    between atoms: C_3  and  C_6
REMARK    6  A    between atoms: C_6  and  C_7
REMARK    7  A    between atoms: C_6  and  N_8
REMARK                            x       y       z     vdW  Elec       q    Type
REMARK                         _______ _______ _______ _____ _____    ______ ____
ROOT
ATOM      1  N   UNL     1       3.816   3.688  17.651  0.00  0.00    +0.000 N 
ATOM      2  C   UNL     1       2.463   3.506  17.713  0.00  0.00    +0.000 C 
ATOM      3  O   UNL     1       1.605   3.990  16.988  0.00  0.00    +0.000 OA
ATOM      4  C   UNL     1       2.183   2.505  18.819  0.00  0.00    +0.000 C 
ATOM      5  C   UNL     1       1.042   2.780  19.769  0.00  0.00    +0.000 C 
ATOM      6  C   UNL     1       1.696   3.007  21.125  0.00  0.00    +0.000 C 
ATOM      7  F   UNL     1       1.202   2.126  22.028  0.00  0.00    +0.000 F 
ATOM      8  F   UNL     1       1.395   4.248  21.573  0.00  0.00    +0.000 F 
ATOM      9  C   UNL     1       3.201   2.833  20.966  0.00  0.00    +0.000 C 
ATOM     10  N   UNL     1       3.411   2.584  19.554  0.00  0.00    +0.000 N 
ATOM     11  C   UNL     1       4.378   3.287  18.836  0.00  0.00    +0.000 C 
ATOM     12  O   UNL     1       5.471   3.604  19.278  0.00  0.00    +0.000 OA
ENDROOT
BRANCH   1  13
ATOM     13  C   UNL     1       4.565   4.380  16.587  0.00  0.00    +0.000 C 
ATOM     14  C   UNL     1       5.774   3.562  16.120  0.00  0.00    +0.000 C 
BRANCH  13  15
ATOM     15  C   UNL     1       4.876   5.881  16.977  0.00  0.00    +0.000 C 
ATOM     16  C   UNL     1       3.789   6.404  17.934  0.00  0.00    +0.000 C 
ATOM     17  C   UNL     1       4.958   6.805  15.752  0.00  0.00    +0.000 C 
BRANCH  15  19
ATOM     18  C   UNL     1       7.069   6.896  17.416  0.00  0.00    +0.000 C 
ATOM     19  O   UNL     1       6.153   5.838  17.658  0.00  0.00    +0.000 OA
ENDBRANCH  15  19
ENDBRANCH  13  15
ENDBRANCH   1  13
TORSDOF 3
ENDMDL
MODEL 6
REMARK VINA RESULT:      -7.0      1.986      2.945
REMARK  Name = 
REMARK  7 active torsions:
REMARK  status: ('A' for Active; 'I' for Inactive)
REMARK    1  A    between atoms: C_1  and  O_2
REMARK    2  A    between atoms: O_2  and  C_3
REMARK    3  A    between atoms: C_3  and  C_4
REMARK    4  A    between atoms: C_3  and  C_5
REMARK    5  A    between atoms: C_3  and  C_6
REMARK    6  A    between atoms: C_6  and  C_7
REMARK    7  A    between atoms: C_6  and  N_8
REMARK                            x       y       z     vdW  Elec       q    Type
REMARK                         _______ _______ _______ _____ _____    ______ ____
ROOT
ATOM      1  N   UNL     1       3.828   3.746  17.710  0.00  0.00    +0.000 N 
ATOM      2  C   UNL     1       2.470   3.605  17.788  0.00  0.00    +0.000 C 
ATOM      3  O   UNL     1       1.616   4.150  17.104  0.00  0.00    +0.000 OA
ATOM      4  C   UNL     1       2.176   2.561  18.851  0.00  0.00    +0.000 C 
ATOM      5  C   UNL     1       1.061   2.826  19.833  0.00  0.00    +0.000 C 
ATOM      6  C   UNL     1       1.745   2.967  21.186  0.00  0.00    +0.000 C 
ATOM      7  F   UNL     1       1.239   2.060  22.056  0.00  0.00    +0.000 F 
ATOM      8  F   UNL     1       1.493   4.194  21.698  0.00  0.00    +0.000 F 
ATOM      9  C   UNL     1       3.242   2.753  20.991  0.00  0.00    +0.000 C 
ATOM     10  N   UNL     1       3.418   2.565  19.565  0.00  0.00    +0.000 N 
ATOM     11  C   UNL     1       4.396   3.271  18.863  0.00  0.00    +0.000 C 
ATOM     12  O   UNL     1       5.506   3.531  19.300  0.00  0.00    +0.000 OA
ENDROOT
BRANCH   1  13
ATOM     13  C   UNL     1       4.581   4.464  16.666  0.00  0.00    +0.000 C 
ATOM     14  C   UNL     1       5.750   3.629  16.134  0.00  0.00    +0.000 C 
BRANCH  13  15
ATOM     15  C   UNL     1       4.953   5.931  17.123  0.00  0.00    +0.000 C 
ATOM     16  C   UNL     1       4.826   6.895  15.929  0.00  0.00    +0.000 C 
ATOM     17  C   UNL     1       6.373   6.028  17.702  0.00  0.00    +0.000 C 
BRANCH  15  19
ATOM     18  C   UNL     1       3.136   7.390  17.898  0.00  0.00    +0.000 C 
ATOM     19  O   UNL     1       3.976   6.270  18.137  0.00  0.00    +0.000 OA
ENDBRANCH  15  19
ENDBRANCH  13  15
ENDBRANCH   1  13
TORSDOF 3
ENDMDL
MODEL 7
REMARK VINA RESULT:      -6.9      1.533      2.336
REMARK  Name = 
REMARK  7 active torsions:
REMARK  status: ('A' for Active; 'I' for Inactive)
REMARK    1  A    between atoms: C_1  and  O_2
REMARK    2  A    between atoms: O_2  and  C_3
REMARK    3  A    between atoms: C_3  and  C_4
REMARK    4  A    between atoms: C_3  and  C_5
REMARK    5  A    between atoms: C_3  and  C_6
REMARK    6  A    between atoms: C_6  and  C_7
REMARK    7  A    between atoms: C_6  and  N_8
REMARK                            x       y       z     vdW  Elec       q    Type
REMARK                         _______ _______ _______ _____ _____    ______ ____
ROOT
ATOM      1  N   UNL     1       3.749   4.801  17.739  0.00  0.00    +0.000 N 
ATOM      2  C   UNL     1       2.899   5.527  18.526  0.00  0.00    +0.000 C 
ATOM      3  O   UNL     1       2.948   6.721  18.785  0.00  0.00    +0.000 OA
ATOM      4  C   UNL     1       1.790   4.597  18.986  0.00  0.00    +0.000 C 
ATOM      5  C   UNL     1       1.350   4.657  20.428  0.00  0.00    +0.000 C 
ATOM      6  C   UNL     1       1.742   3.311  21.023  0.00  0.00    +0.000 C 
ATOM      7  F   UNL     1       0.648   2.695  21.532  0.00  0.00    +0.000 F 
ATOM      8  F   UNL     1       2.606   3.500  22.047  0.00  0.00    +0.000 F 
ATOM      9  C   UNL     1       2.376   2.468  19.922  0.00  0.00    +0.000 C 
ATOM     10  N   UNL     1       2.409   3.325  18.755  0.00  0.00    +0.000 N 
ATOM     11  C   UNL     1       3.575   3.467  18.001  0.00  0.00    +0.000 C 
ATOM     12  O   UNL     1       4.358   2.560  17.764  0.00  0.00    +0.000 OA
ENDROOT
BRANCH   1  13
ATOM     13  C   UNL     1       4.828   5.330  16.886  0.00  0.00    +0.000 C 
ATOM     14  C   UNL     1       4.976   4.522  15.592  0.00  0.00    +0.000 C 
BRANCH  13  15
ATOM     15  C   UNL     1       6.164   5.544  17.704  0.00  0.00    +0.000 C 
ATOM     16  C   UNL     1       7.265   4.619  17.151  0.00  0.00    +0.000 C 
ATOM     17  C   UNL     1       5.988   5.278  19.207  0.00  0.00    +0.000 C 
BRANCH  15  19
ATOM     18  C   UNL     1       7.791   7.367  17.954  0.00  0.00    +0.000 C 
ATOM     19  O   UNL     1       6.526   6.928  17.480  0.00  0.00    +0.000 OA
ENDBRANCH  15  19
ENDBRANCH  13  15
ENDBRANCH   1  13
TORSDOF 3
ENDMDL
MODEL 8
REMARK VINA RESULT:      -6.9      1.067      2.210
REMARK  Name = 
REMARK  7 active torsions:
REMARK  status: ('A' for Active; 'I' for Inactive)
REMARK    1  A    between atoms: C_1  and  O_2
REMARK    2  A    between atoms: O_2  and  C_3
REMARK    3  A    between atoms: C_3  and  C_4
REMARK    4  A    between atoms: C_3  and  C_5
REMARK    5  A    between atoms: C_3  and  C_6
REMARK    6  A    between atoms: C_6  and  C_7
REMARK    7  A    between atoms: C_6  and  N_8
REMARK                            x       y       z     vdW  Elec       q    Type
REMARK                         _______ _______ _______ _____ _____    ______ ____
ROOT
ATOM      1  N   UNL     1       5.626   4.363  18.000  0.00  0.00    +0.000 N 
ATOM      2  C   UNL     1       4.943   3.447  17.250  0.00  0.00    +0.000 C 
ATOM      3  O   UNL     1       5.190   3.072  16.112  0.00  0.00    +0.000 OA
ATOM      4  C   UNL     1       3.829   2.884  18.113  0.00  0.00    +0.000 C 
ATOM      5  C   UNL     1       2.460   2.710  17.501  0.00  0.00    +0.000 C 
ATOM      6  C   UNL     1       1.562   3.690  18.244  0.00  0.00    +0.000 C 
ATOM      7  F   UNL     1       0.529   3.027  18.817  0.00  0.00    +0.000 F 
ATOM      8  F   UNL     1       1.031   4.575  17.369  0.00  0.00    +0.000 F 
ATOM      9  C   UNL     1       2.400   4.402  19.300  0.00  0.00    +0.000 C 
ATOM     10  N   UNL     1       3.747   3.898  19.122  0.00  0.00    +0.000 N 
ATOM     11  C   UNL     1       4.835   4.768  19.044  0.00  0.00    +0.000 C 
ATOM     12  O   UNL     1       4.951   5.789  19.705  0.00  0.00    +0.000 OA
ENDROOT
BRANCH   1  13
ATOM     13  C   UNL     1       6.919   4.988  17.667  0.00  0.00    +0.000 C 
ATOM     14  C   UNL     1       7.766   5.239  18.919  0.00  0.00    +0.000 C 
BRANCH  13  15
ATOM     15  C   UNL     1       6.734   6.236  16.716  0.00  0.00    +0.000 C 
ATOM     16  C   UNL     1       7.231   7.509  17.426  0.00  0.00    +0.000 C 
ATOM     17  C   UNL     1       5.274   6.438  16.281  0.00  0.00    +0.000 C 
BRANCH  15  19
ATOM     18  C   UNL     1       7.068   5.052  14.591  0.00  0.00    +0.000 C 
ATOM     19  O   UNL     1       7.565   5.959  15.563  0.00  0.00    +0.000 OA
ENDBRANCH  15  19
ENDBRANCH  13  15
ENDBRANCH   1  13
TORSDOF 3
ENDMDL
MODEL 9
REMARK VINA RESULT:      -6.9      1.053      2.508
REMARK  Name = 
REMARK  7 active torsions:
REMARK  status: ('A' for Active; 'I' for Inactive)
REMARK    1  A    between atoms: C_1  and  O_2
REMARK    2  A    between atoms: O_2  and  C_3
REMARK    3  A    between atoms: C_3  and  C_4
REMARK    4  A    between atoms: C_3  and  C_5
REMARK    5  A    between atoms: C_3  and  C_6
REMARK    6  A    between atoms: C_6  and  C_7
REMARK    7  A    between atoms: C_6  and  N_8
REMARK                            x       y       z     vdW  Elec       q    Type
REMARK                         _______ _______ _______ _____ _____    ______ ____
ROOT
ATOM      1  N   UNL     1       4.753   5.177  17.854  0.00  0.00    +0.000 N 
ATOM      2  C   UNL     1       4.442   4.072  17.111  0.00  0.00    +0.000 C 
ATOM      3  O   UNL     1       4.543   3.927  15.902  0.00  0.00    +0.000 OA
ATOM      4  C   UNL     1       4.008   2.979  18.071  0.00  0.00    +0.000 C 
ATOM      5  C   UNL     1       2.797   2.150  17.720  0.00  0.00    +0.000 C 
ATOM      6  C   UNL     1       1.756   2.494  18.777  0.00  0.00    +0.000 C 
ATOM      7  F   UNL     1       1.366   1.370  19.424  0.00  0.00    +0.000 F 
ATOM      8  F   UNL     1       0.658   3.014  18.182  0.00  0.00    +0.000 F 
ATOM      9  C   UNL     1       2.374   3.492  19.750  0.00  0.00    +0.000 C 
ATOM     10  N   UNL     1       3.699   3.763  19.230  0.00  0.00    +0.000 N 
ATOM     11  C   UNL     1       4.159   5.072  19.085  0.00  0.00    +0.000 C 
ATOM     12  O   UNL     1       3.923   5.977  19.870  0.00  0.00    +0.000 OA
ENDROOT
BRANCH   1  13
ATOM     13  C   UNL     1       5.440   6.393  17.382  0.00  0.00    +0.000 C 
ATOM     14  C   UNL     1       4.750   6.992  16.151  0.00  0.00    +0.000 C 
BRANCH  13  15
ATOM     15  C   UNL     1       6.997   6.162  17.237  0.00  0.00    +0.000 C 
ATOM     16  C   UNL     1       7.383   4.813  17.872  0.00  0.00    +0.000 C 
ATOM     17  C   UNL     1       7.825   7.282  17.887  0.00  0.00    +0.000 C 
BRANCH  15  19
ATOM     18  C   UNL     1       7.473   4.855  15.213  0.00  0.00    +0.000 C 
ATOM     19  O   UNL     1       7.242   6.122  15.810  0.00  0.00    +0.000 OA
ENDBRANCH  15  19
ENDBRANCH  13  15
ENDBRANCH   1  13
TORSDOF 3
ENDMDL
