MODEL 1
REMARK VINA RESULT:      -8.3      0.000      0.000
REMARK  Name = 
REMARK  6 active torsions:
REMARK  status: ('A' for Active; 'I' for Inactive)
REMARK    1  A    between atoms: C_1  and  C_2
REMARK    2  A    between atoms: C_4  and  C_5
REMARK    3  A    between atoms: N_7  and  C_8
REMARK    4  A    between atoms: C_13  and  C_14
REMARK    5  A    between atoms: C_14  and  C_15
REMARK    6  A    between atoms: C_19  and  C_20
REMARK                            x       y       z     vdW  Elec       q    Type
REMARK                         _______ _______ _______ _____ _____    ______ ____
ROOT
ATOM      1  C   UNL     1       1.995   7.715  19.706  0.00  0.00    +0.000 A 
ATOM      2  C   UNL     1       1.342   6.963  20.689  0.00  0.00    +0.000 A 
ATOM      3  C   UNL     1       1.567   5.603  20.812  0.00  0.00    +0.000 A 
ATOM      4  C   UNL     1       2.427   4.975  19.928  0.00  0.00    +0.000 A 
ATOM      5  F   UNL     1       2.637   3.667  20.097  0.00  0.00    +0.000 F 
ATOM      6  C   UNL     1       3.054   5.659  18.874  0.00  0.00    +0.000 A 
ATOM      7  C   UNL     1       2.819   7.051  18.775  0.00  0.00    +0.000 A 
ENDROOT
BRANCH   6   8
ATOM      8  C   UNL     1       3.972   4.836  17.942  0.00  0.00    +0.000 C 
ATOM      9  C   UNL     1       3.281   3.551  17.414  0.00  0.00    +0.000 C 
ATOM     10  N   UNL     1       4.168   5.633  16.711  0.00  0.00    +0.000 NA
ATOM     11  C   UNL     1       5.312   6.042  16.295  0.00  0.00    +0.000 C 
ATOM     12  N   UNL     1       5.326   6.777  15.136  0.00  0.00    +0.000 N 
ATOM     13  C   UNL     1       6.661   5.760  16.958  0.00  0.00    +0.000 C 
ATOM     14  C   UNL     1       7.310   7.070  17.408  0.00  0.00    +0.000 C 
ATOM     15  F   UNL     1       7.518   5.276  15.985  0.00  0.00    +0.000 F 
ATOM     16  C   UNL     1       6.626   4.693  18.032  0.00  0.00    +0.000 C 
ATOM     17  C   UNL     1       5.291   4.409  18.690  0.00  0.00    +0.000 C 
ATOM     18  F   UNL     1       5.263   3.056  18.927  0.00  0.00    +0.000 F 
ATOM     19  F   UNL     1       5.347   4.940  19.948  0.00  0.00    +0.000 F 
ATOM     20  H   UNL     1       4.468   6.712  14.599  0.00  0.00    +0.000 HD
ATOM     21  H   UNL     1       6.175   6.733  14.581  0.00  0.00    +0.000 HD
ENDBRANCH   6   8
BRANCH   1  24
ATOM     22  C   UNL     1       1.195   9.805  18.625  0.00  0.00    +0.000 C 
ATOM     23  O   UNL     1       0.611   9.290  17.679  0.00  0.00    +0.000 OA
ATOM     24  N   UNL     1       1.856   9.125  19.637  0.00  0.00    +0.000 N 
ATOM     25  H   UNL     1       2.153   9.687  20.429  0.00  0.00    +0.000 HD
BRANCH  22  29
ATOM     26  C   UNL     1       2.257  14.671  18.487  0.00  0.00    +0.000 C 
ATOM     27  C   UNL     1       1.694  13.320  18.678  0.00  0.00    +0.000 A 
ATOM     28  N   UNL     1       2.202  12.133  18.387  0.00  0.00    +0.000 NA
ATOM     29  C   UNL     1       1.191  11.259  18.758  0.00  0.00    +0.000 A 
ATOM     30  C   UNL     1       0.135  11.973  19.274  0.00  0.00    +0.000 A 
ATOM     31  O   UNL     1       0.442  13.290  19.229  0.00  0.00    +0.000 OA
ENDBRANCH  22  29
ENDBRANCH   1  24
TORSDOF 3
ENDMDL
MODEL 2
REMARK VINA RESULT:      -7.9      3.004      4.708
REMARK  Name = 
REMARK  6 active torsions:
REMARK  status: ('A' for Active; 'I' for Inactive)
REMARK    1  A    between atoms: C_1  and  C_2
REMARK    2  A    between atoms: C_4  and  C_5
REMARK    3  A    between atoms: N_7  and  C_8
REMARK    4  A    between atoms: C_13  and  C_14
REMARK    5  A    between atoms: C_14  and  C_15
REMARK    6  A    between atoms: C_19  and  C_20
REMARK                            x       y       z     vdW  Elec       q    Type
REMARK                         _______ _______ _______ _____ _____    ______ ____
ROOT
ATOM      1  C   UNL     1       1.495   8.712  19.548  0.00  0.00    +0.000 A 
ATOM      2  C   UNL     1       1.941   9.400  18.414  0.00  0.00    +0.000 A 
ATOM      3  C   UNL     1       2.781   8.793  17.496  0.00  0.00    +0.000 A 
ATOM      4  C   UNL     1       3.208   7.496  17.722  0.00  0.00    +0.000 A 
ATOM      5  F   UNL     1       3.995   6.938  16.800  0.00  0.00    +0.000 F 
ATOM      6  C   UNL     1       2.857   6.779  18.877  0.00  0.00    +0.000 A 
ATOM      7  C   UNL     1       1.989   7.415  19.796  0.00  0.00    +0.000 A 
ENDROOT
BRANCH   6   8
ATOM      8  C   UNL     1       3.421   5.347  19.021  0.00  0.00    +0.000 C 
ATOM      9  C   UNL     1       4.969   5.309  18.935  0.00  0.00    +0.000 C 
ATOM     10  N   UNL     1       3.159   4.915  20.412  0.00  0.00    +0.000 NA
ATOM     11  C   UNL     1       2.444   3.895  20.724  0.00  0.00    +0.000 C 
ATOM     12  N   UNL     1       2.292   3.629  22.061  0.00  0.00    +0.000 N 
ATOM     13  C   UNL     1       1.772   2.936  19.741  0.00  0.00    +0.000 C 
ATOM     14  C   UNL     1       0.253   2.985  19.914  0.00  0.00    +0.000 C 
ATOM     15  F   UNL     1       2.112   1.646  20.109  0.00  0.00    +0.000 F 
ATOM     16  C   UNL     1       2.230   3.080  18.305  0.00  0.00    +0.000 C 
ATOM     17  C   UNL     1       2.846   4.403  17.899  0.00  0.00    +0.000 C 
ATOM     18  F   UNL     1       3.843   4.101  17.003  0.00  0.00    +0.000 F 
ATOM     19  F   UNL     1       1.925   5.051  17.124  0.00  0.00    +0.000 F 
ATOM     20  H   UNL     1       2.956   4.114  22.655  0.00  0.00    +0.000 HD
ATOM     21  H   UNL     1       2.129   2.659  22.315  0.00  0.00    +0.000 HD
ENDBRANCH   6   8
BRANCH   1  24
ATOM     22  C   UNL     1       0.554  10.610  20.846  0.00  0.00    +0.000 C 
ATOM     23  O   UNL     1       1.336  11.474  20.469  0.00  0.00    +0.000 OA
ATOM     24  N   UNL     1       0.552   9.285  20.438  0.00  0.00    +0.000 N 
ATOM     25  H   UNL     1      -0.254   8.735  20.721  0.00  0.00    +0.000 HD
BRANCH  22  29
ATOM     26  C   UNL     1      -3.367  12.646  23.149  0.00  0.00    +0.000 C 
ATOM     27  C   UNL     1      -2.183  11.877  22.720  0.00  0.00    +0.000 A 
ATOM     28  N   UNL     1      -1.431  11.998  21.638  0.00  0.00    +0.000 NA
ATOM     29  C   UNL     1      -0.509  10.971  21.780  0.00  0.00    +0.000 A 
ATOM     30  C   UNL     1      -0.749  10.300  22.957  0.00  0.00    +0.000 A 
ATOM     31  O   UNL     1      -1.815  10.867  23.567  0.00  0.00    +0.000 OA
ENDBRANCH  22  29
ENDBRANCH   1  24
TORSDOF 3
ENDMDL
MODEL 3
REMARK VINA RESULT:      -7.9      1.157      1.167
REMARK  Name = 
REMARK  6 active torsions:
REMARK  status: ('A' for Active; 'I' for Inactive)
REMARK    1  A    between atoms: C_1  and  C_2
REMARK    2  A    between atoms: C_4  and  C_5
REMARK    3  A    between atoms: N_7  and  C_8
REMARK    4  A    between atoms: C_13  and  C_14
REMARK    5  A    between atoms: C_14  and  C_15
REMARK    6  A    between atoms: C_19  and  C_20
REMARK                            x       y       z     vdW  Elec       q    Type
REMARK                         _______ _______ _______ _____ _____    ______ ____
ROOT
ATOM      1  C   UNL     1       1.964   7.563  19.852  0.00  0.00    +0.000 A 
ATOM      2  C   UNL     1       1.334   6.754  20.804  0.00  0.00    +0.000 A 
ATOM      3  C   UNL     1       1.576   5.391  20.854  0.00  0.00    +0.000 A 
ATOM      4  C   UNL     1       2.431   4.820  19.929  0.00  0.00    +0.000 A 
ATOM      5  F   UNL     1       2.659   3.509  20.028  0.00  0.00    +0.000 F 
ATOM      6  C   UNL     1       3.036   5.565  18.903  0.00  0.00    +0.000 A 
ATOM      7  C   UNL     1       2.784   6.957  18.878  0.00  0.00    +0.000 A 
ENDROOT
BRANCH   6   8
ATOM      8  C   UNL     1       3.951   4.802  17.919  0.00  0.00    +0.000 C 
ATOM      9  C   UNL     1       3.267   3.541  17.330  0.00  0.00    +0.000 C 
ATOM     10  N   UNL     1       4.126   5.666  16.730  0.00  0.00    +0.000 NA
ATOM     11  C   UNL     1       5.261   6.108  16.324  0.00  0.00    +0.000 C 
ATOM     12  N   UNL     1       5.255   6.903  15.206  0.00  0.00    +0.000 N 
ATOM     13  C   UNL     1       6.620   5.804  16.956  0.00  0.00    +0.000 C 
ATOM     14  C   UNL     1       7.262   7.094  17.469  0.00  0.00    +0.000 C 
ATOM     15  F   UNL     1       7.471   5.381  15.950  0.00  0.00    +0.000 F 
ATOM     16  C   UNL     1       6.607   4.681  17.972  0.00  0.00    +0.000 C 
ATOM     17  C   UNL     1       5.283   4.349  18.628  0.00  0.00    +0.000 C 
ATOM     18  F   UNL     1       5.270   2.985  18.793  0.00  0.00    +0.000 F 
ATOM     19  F   UNL     1       5.347   4.812  19.912  0.00  0.00    +0.000 F 
ATOM     20  H   UNL     1       4.392   6.859  14.676  0.00  0.00    +0.000 HD
ATOM     21  H   UNL     1       6.098   6.897  14.640  0.00  0.00    +0.000 HD
ENDBRANCH   6   8
BRANCH   1  24
ATOM     22  C   UNL     1       0.696   9.642  20.348  0.00  0.00    +0.000 C 
ATOM     23  O   UNL     1      -0.279   9.121  20.876  0.00  0.00    +0.000 OA
ATOM     24  N   UNL     1       1.808   8.972  19.858  0.00  0.00    +0.000 N 
ATOM     25  H   UNL     1       2.596   9.556  19.594  0.00  0.00    +0.000 HD
BRANCH  22  29
ATOM     26  C   UNL     1       1.383  14.521  21.089  0.00  0.00    +0.000 C 
ATOM     27  C   UNL     1       1.060  13.164  20.605  0.00  0.00    +0.000 A 
ATOM     28  N   UNL     1       1.159  11.993  21.212  0.00  0.00    +0.000 NA
ATOM     29  C   UNL     1       0.752  11.096  20.236  0.00  0.00    +0.000 A 
ATOM     30  C   UNL     1       0.410  11.786  19.096  0.00  0.00    +0.000 A 
ATOM     31  O   UNL     1       0.602  13.107  19.317  0.00  0.00    +0.000 OA
ENDBRANCH  22  29
ENDBRANCH   1  24
TORSDOF 3
ENDMDL
MODEL 4
REMARK VINA RESULT:      -7.5      4.308      6.336
REMARK  Name = 
REMARK  6 active torsions:
REMARK  status: ('A' for Active; 'I' for Inactive)
REMARK    1  A    between atoms: C_1  and  C_2
REMARK    2  A    between atoms: C_4  and  C_5
REMARK    3  A    between atoms: N_7  and  C_8
REMARK    4  A    between atoms: C_13  and  C_14
REMARK    5  A    between atoms: C_14  and  C_15
REMARK    6  A    between atoms: C_19  and  C_20
REMARK                            x       y       z     vdW  Elec       q    Type
REMARK                         _______ _______ _______ _____ _____    ______ ____
ROOT
ATOM      1  C   UNL     1       7.977   8.052  18.086  0.00  0.00    +0.000 A 
ATOM      2  C   UNL     1       8.484   7.165  19.042  0.00  0.00    +0.000 A 
ATOM      3  C   UNL     1       7.876   5.942  19.271  0.00  0.00    +0.000 A 
ATOM      4  C   UNL     1       6.735   5.608  18.563  0.00  0.00    +0.000 A 
ATOM      5  F   UNL     1       6.196   4.409  18.794  0.00  0.00    +0.000 F 
ATOM      6  C   UNL     1       6.136   6.486  17.645  0.00  0.00    +0.000 A 
ATOM      7  C   UNL     1       6.780   7.726  17.419  0.00  0.00    +0.000 A 
ENDROOT
BRANCH   6   8
ATOM      8  C   UNL     1       4.849   6.002  16.938  0.00  0.00    +0.000 C 
ATOM      9  C   UNL     1       4.746   6.516  15.478  0.00  0.00    +0.000 C 
ATOM     10  N   UNL     1       4.974   4.538  16.763  0.00  0.00    +0.000 NA
ATOM     11  C   UNL     1       4.162   3.682  17.270  0.00  0.00    +0.000 C 
ATOM     12  N   UNL     1       4.418   2.358  17.019  0.00  0.00    +0.000 N 
ATOM     13  C   UNL     1       2.920   4.007  18.102  0.00  0.00    +0.000 C 
ATOM     14  C   UNL     1       3.065   3.430  19.510  0.00  0.00    +0.000 C 
ATOM     15  F   UNL     1       1.854   3.311  17.560  0.00  0.00    +0.000 F 
ATOM     16  C   UNL     1       2.507   5.464  18.076  0.00  0.00    +0.000 C 
ATOM     17  C   UNL     1       3.568   6.484  17.717  0.00  0.00    +0.000 C 
ATOM     18  F   UNL     1       2.929   7.457  16.986  0.00  0.00    +0.000 F 
ATOM     19  F   UNL     1       3.900   7.136  18.871  0.00  0.00    +0.000 F 
ATOM     20  H   UNL     1       5.075   2.203  16.262  0.00  0.00    +0.000 HD
ATOM     21  H   UNL     1       3.618   1.733  17.018  0.00  0.00    +0.000 HD
ENDBRANCH   6   8
BRANCH   1  24
ATOM     22  C   UNL     1       9.108  10.179  18.699  0.00  0.00    +0.000 C 
ATOM     23  O   UNL     1       9.034  10.062  19.917  0.00  0.00    +0.000 OA
ATOM     24  N   UNL     1       8.650   9.260  17.767  0.00  0.00    +0.000 N 
ATOM     25  H   UNL     1       8.926   9.430  16.804  0.00  0.00    +0.000 HD
BRANCH  22  29
ATOM     26  C   UNL     1      12.321  13.467  16.779  0.00  0.00    +0.000 C 
ATOM     27  C   UNL     1      11.170  12.722  17.327  0.00  0.00    +0.000 A 
ATOM     28  N   UNL     1      11.107  11.505  17.842  0.00  0.00    +0.000 NA
ATOM     29  C   UNL     1       9.760  11.357  18.136  0.00  0.00    +0.000 A 
ATOM     30  C   UNL     1       9.089  12.510  17.798  0.00  0.00    +0.000 A 
ATOM     31  O   UNL     1       9.977  13.390  17.280  0.00  0.00    +0.000 OA
ENDBRANCH  22  29
ENDBRANCH   1  24
TORSDOF 3
ENDMDL
MODEL 5
REMARK VINA RESULT:      -7.4      2.612      4.392
REMARK  Name = 
REMARK  6 active torsions:
REMARK  status: ('A' for Active; 'I' for Inactive)
REMARK    1  A    between atoms: C_1  and  C_2
REMARK    2  A    between atoms: C_4  and  C_5
REMARK    3  A    between atoms: N_7  and  C_8
REMARK    4  A    between atoms: C_13  and  C_14
REMARK    5  A    between atoms: C_14  and  C_15
REMARK    6  A    between atoms: C_19  and  C_20
REMARK                            x       y       z     vdW  Elec       q    Type
REMARK                         _______ _______ _______ _____ _____    ______ ____
ROOT
ATOM      1  C   UNL     1       2.369   8.091  18.860  0.00  0.00    +0.000 A 
ATOM      2  C   UNL     1       3.007   8.566  17.709  0.00  0.00    +0.000 A 
ATOM      3  C   UNL     1       3.816   7.737  16.949  0.00  0.00    +0.000 A 
ATOM      4  C   UNL     1       4.017   6.430  17.354  0.00  0.00    +0.000 A 
ATOM      5  F   UNL     1       4.782   5.656  16.580  0.00  0.00    +0.000 F 
ATOM      6  C   UNL     1       3.466   5.915  18.539  0.00  0.00    +0.000 A 
ATOM      7  C   UNL     1       2.634   6.776  19.293  0.00  0.00    +0.000 A 
ENDROOT
BRANCH   6   8
ATOM      8  C   UNL     1       3.788   4.445  18.890  0.00  0.00    +0.000 C 
ATOM      9  C   UNL     1       5.313   4.169  18.941  0.00  0.00    +0.000 C 
ATOM     10  N   UNL     1       3.369   4.232  20.293  0.00  0.00    +0.000 NA
ATOM     11  C   UNL     1       2.483   3.376  20.656  0.00  0.00    +0.000 C 
ATOM     12  N   UNL     1       2.201   3.303  21.997  0.00  0.00    +0.000 N 
ATOM     13  C   UNL     1       1.737   2.411  19.733  0.00  0.00    +0.000 C 
ATOM     14  C   UNL     1       0.236   2.705  19.769  0.00  0.00    +0.000 C 
ATOM     15  F   UNL     1       1.845   1.141  20.271  0.00  0.00    +0.000 F 
ATOM     16  C   UNL     1       2.307   2.308  18.334  0.00  0.00    +0.000 C 
ATOM     17  C   UNL     1       3.148   3.464  17.836  0.00  0.00    +0.000 C 
ATOM     18  F   UNL     1       4.144   2.909  17.068  0.00  0.00    +0.000 F 
ATOM     19  F   UNL     1       2.394   4.139  16.918  0.00  0.00    +0.000 F 
ATOM     20  H   UNL     1       2.892   3.754  22.586  0.00  0.00    +0.000 HD
ATOM     21  H   UNL     1       1.872   2.407  22.343  0.00  0.00    +0.000 HD
ENDBRANCH   6   8
BRANCH   1  24
ATOM     22  C   UNL     1       0.472   9.690  19.012  0.00  0.00    +0.000 C 
ATOM     23  O   UNL     1       0.230   9.775  17.815  0.00  0.00    +0.000 OA
ATOM     24  N   UNL     1       1.456   8.897  19.586  0.00  0.00    +0.000 N 
ATOM     25  H   UNL     1       1.427   8.817  20.598  0.00  0.00    +0.000 HD
BRANCH  22  29
ATOM     26  C   UNL     1      -1.577  11.726  23.071  0.00  0.00    +0.000 C 
ATOM     27  C   UNL     1      -1.185  11.279  21.721  0.00  0.00    +0.000 A 
ATOM     28  N   UNL     1      -0.276  10.394  21.344  0.00  0.00    +0.000 NA
ATOM     29  C   UNL     1      -0.343  10.444  19.959  0.00  0.00    +0.000 A 
ATOM     30  C   UNL     1      -1.309  11.348  19.581  0.00  0.00    +0.000 A 
ATOM     31  O   UNL     1      -1.854  11.889  20.695  0.00  0.00    +0.000 OA
ENDBRANCH  22  29
ENDBRANCH   1  24
TORSDOF 3
ENDMDL
MODEL 6
REMARK VINA RESULT:      -7.4      4.305      5.953
REMARK  Name = 
REMARK  6 active torsions:
REMARK  status: ('A' for Active; 'I' for Inactive)
REMARK    1  A    between atoms: C_1  and  C_2
REMARK    2  A    between atoms: C_4  and  C_5
REMARK    3  A    between atoms: N_7  and  C_8
REMARK    4  A    between atoms: C_13  and  C_14
REMARK    5  A    between atoms: C_14  and  C_15
REMARK    6  A    between atoms: C_19  and  C_20
REMARK                            x       y       z     vdW  Elec       q    Type
REMARK                         _______ _______ _______ _____ _____    ______ ____
ROOT
ATOM      1  C   UNL     1       6.264   6.873  17.036  0.00  0.00    +0.000 A 
ATOM      2  C   UNL     1       6.688   5.981  16.045  0.00  0.00    +0.000 A 
ATOM      3  C   UNL     1       5.940   4.860  15.727  0.00  0.00    +0.000 A 
ATOM      4  C   UNL     1       4.771   4.606  16.423  0.00  0.00    +0.000 A 
ATOM      5  F   UNL     1       4.065   3.530  16.068  0.00  0.00    +0.000 F 
ATOM      6  C   UNL     1       4.330   5.422  17.478  0.00  0.00    +0.000 A 
ATOM      7  C   UNL     1       5.105   6.567  17.778  0.00  0.00    +0.000 A 
ENDROOT
BRANCH   6   8
ATOM      8  C   UNL     1       3.021   5.013  18.190  0.00  0.00    +0.000 C 
ATOM      9  C   UNL     1       1.775   5.716  17.588  0.00  0.00    +0.000 C 
ATOM     10  N   UNL     1       2.780   3.589  17.870  0.00  0.00    +0.000 NA
ATOM     11  C   UNL     1       2.708   2.657  18.751  0.00  0.00    +0.000 C 
ATOM     12  N   UNL     1       2.484   1.383  18.294  0.00  0.00    +0.000 N 
ATOM     13  C   UNL     1       2.821   2.844  20.265  0.00  0.00    +0.000 C 
ATOM     14  C   UNL     1       4.037   2.086  20.799  0.00  0.00    +0.000 C 
ATOM     15  F   UNL     1       1.742   2.208  20.853  0.00  0.00    +0.000 F 
ATOM     16  C   UNL     1       2.744   4.283  20.731  0.00  0.00    +0.000 C 
ATOM     17  C   UNL     1       3.085   5.362  19.724  0.00  0.00    +0.000 C 
ATOM     18  F   UNL     1       2.239   6.412  19.988  0.00  0.00    +0.000 F 
ATOM     19  F   UNL     1       4.309   5.859  20.073  0.00  0.00    +0.000 F 
ATOM     20  H   UNL     1       2.154   1.344  17.336  0.00  0.00    +0.000 HD
ATOM     21  H   UNL     1       2.009   0.749  18.929  0.00  0.00    +0.000 HD
ENDBRANCH   6   8
BRANCH   1  24
ATOM     22  C   UNL     1       7.997   8.210  18.214  0.00  0.00    +0.000 C 
ATOM     23  O   UNL     1       8.473   7.306  18.891  0.00  0.00    +0.000 OA
ATOM     24  N   UNL     1       6.964   8.078  17.297  0.00  0.00    +0.000 N 
ATOM     25  H   UNL     1       6.792   8.886  16.705  0.00  0.00    +0.000 HD
BRANCH  22  29
ATOM     26  C   UNL     1       9.155  13.022  17.648  0.00  0.00    +0.000 C 
ATOM     27  C   UNL     1       9.022  11.604  18.035  0.00  0.00    +0.000 A 
ATOM     28  N   UNL     1       8.306  10.633  17.492  0.00  0.00    +0.000 NA
ATOM     29  C   UNL     1       8.560   9.552  18.322  0.00  0.00    +0.000 A 
ATOM     30  C   UNL     1       9.437   9.932  19.312  0.00  0.00    +0.000 A 
ATOM     31  O   UNL     1       9.740  11.240  19.141  0.00  0.00    +0.000 OA
ENDBRANCH  22  29
ENDBRANCH   1  24
TORSDOF 3
ENDMDL
MODEL 7
REMARK VINA RESULT:      -7.2      2.510      4.422
REMARK  Name = 
REMARK  6 active torsions:
REMARK  status: ('A' for Active; 'I' for Inactive)
REMARK    1  A    between atoms: C_1  and  C_2
REMARK    2  A    between atoms: C_4  and  C_5
REMARK    3  A    between atoms: N_7  and  C_8
REMARK    4  A    between atoms: C_13  and  C_14
REMARK    5  A    between atoms: C_14  and  C_15
REMARK    6  A    between atoms: C_19  and  C_20
REMARK                            x       y       z     vdW  Elec       q    Type
REMARK                         _______ _______ _______ _____ _____    ______ ____
ROOT
ATOM      1  C   UNL     1       2.433   7.818  17.889  0.00  0.00    +0.000 A 
ATOM      2  C   UNL     1       3.514   8.381  17.201  0.00  0.00    +0.000 A 
ATOM      3  C   UNL     1       4.671   7.655  16.976  0.00  0.00    +0.000 A 
ATOM      4  C   UNL     1       4.768   6.364  17.466  0.00  0.00    +0.000 A 
ATOM      5  F   UNL     1       5.890   5.689  17.205  0.00  0.00    +0.000 F 
ATOM      6  C   UNL     1       3.749   5.770  18.228  0.00  0.00    +0.000 A 
ATOM      7  C   UNL     1       2.571   6.526  18.436  0.00  0.00    +0.000 A 
ENDROOT
BRANCH   6   8
ATOM      8  C   UNL     1       3.992   4.332  18.738  0.00  0.00    +0.000 C 
ATOM      9  C   UNL     1       5.462   4.099  19.174  0.00  0.00    +0.000 C 
ATOM     10  N   UNL     1       3.247   4.189  20.008  0.00  0.00    +0.000 NA
ATOM     11  C   UNL     1       2.309   3.333  20.198  0.00  0.00    +0.000 C 
ATOM     12  N   UNL     1       1.710   3.329  21.433  0.00  0.00    +0.000 N 
ATOM     13  C   UNL     1       1.821   2.297  19.184  0.00  0.00    +0.000 C 
ATOM     14  C   UNL     1       0.353   2.553  18.837  0.00  0.00    +0.000 C 
ATOM     15  F   UNL     1       1.809   1.063  19.810  0.00  0.00    +0.000 F 
ATOM     16  C   UNL     1       2.715   2.128  17.974  0.00  0.00    +0.000 C 
ATOM     17  C   UNL     1       3.640   3.276  17.624  0.00  0.00    +0.000 C 
ATOM     18  F   UNL     1       4.799   2.703  17.156  0.00  0.00    +0.000 F 
ATOM     19  F   UNL     1       3.124   3.877  16.510  0.00  0.00    +0.000 F 
ATOM     20  H   UNL     1       2.232   3.832  22.143  0.00  0.00    +0.000 HD
ATOM     21  H   UNL     1       1.317   2.447  21.744  0.00  0.00    +0.000 HD
ENDBRANCH   6   8
BRANCH   1  24
ATOM     22  C   UNL     1       1.090   9.877  18.257  0.00  0.00    +0.000 C 
ATOM     23  O   UNL     1       2.019  10.673  18.322  0.00  0.00    +0.000 OA
ATOM     24  N   UNL     1       1.205   8.512  18.033  0.00  0.00    +0.000 N 
ATOM     25  H   UNL     1       0.336   8.018  17.851  0.00  0.00    +0.000 HD
BRANCH  22  29
ATOM     26  C   UNL     1      -3.792  10.752  17.787  0.00  0.00    +0.000 C 
ATOM     27  C   UNL     1      -2.360  10.708  18.140  0.00  0.00    +0.000 A 
ATOM     28  N   UNL     1      -1.365  10.031  17.591  0.00  0.00    +0.000 NA
ATOM     29  C   UNL     1      -0.279  10.368  18.386  0.00  0.00    +0.000 A 
ATOM     30  C   UNL     1      -0.682  11.250  19.361  0.00  0.00    +0.000 A 
ATOM     31  O   UNL     1      -2.009  11.476  19.217  0.00  0.00    +0.000 OA
ENDBRANCH  22  29
ENDBRANCH   1  24
TORSDOF 3
ENDMDL
MODEL 8
REMARK VINA RESULT:      -7.1      2.567      4.413
REMARK  Name = 
REMARK  6 active torsions:
REMARK  status: ('A' for Active; 'I' for Inactive)
REMARK    1  A    between atoms: C_1  and  C_2
REMARK    2  A    between atoms: C_4  and  C_5
REMARK    3  A    between atoms: N_7  and  C_8
REMARK    4  A    between atoms: C_13  and  C_14
REMARK    5  A    between atoms: C_14  and  C_15
REMARK    6  A    between atoms: C_19  and  C_20
REMARK                            x       y       z     vdW  Elec       q    Type
REMARK                         _______ _______ _______ _____ _____    ______ ____
ROOT
ATOM      1  C   UNL     1       2.846   7.828  18.039  0.00  0.00    +0.000 A 
ATOM      2  C   UNL     1       3.800   8.161  17.071  0.00  0.00    +0.000 A 
ATOM      3  C   UNL     1       4.739   7.236  16.648  0.00  0.00    +0.000 A 
ATOM      4  C   UNL     1       4.750   5.974  17.215  0.00  0.00    +0.000 A 
ATOM      5  F   UNL     1       5.654   5.103  16.761  0.00  0.00    +0.000 F 
ATOM      6  C   UNL     1       3.868   5.602  18.243  0.00  0.00    +0.000 A 
ATOM      7  C   UNL     1       2.909   6.560  18.651  0.00  0.00    +0.000 A 
ENDROOT
BRANCH   6   8
ATOM      8  C   UNL     1       4.001   4.170  18.808  0.00  0.00    +0.000 C 
ATOM      9  C   UNL     1       5.479   3.752  19.021  0.00  0.00    +0.000 C 
ATOM     10  N   UNL     1       3.465   4.195  20.186  0.00  0.00    +0.000 NA
ATOM     11  C   UNL     1       2.467   3.490  20.583  0.00  0.00    +0.000 C 
ATOM     12  N   UNL     1       2.087   3.631  21.893  0.00  0.00    +0.000 N 
ATOM     13  C   UNL     1       1.685   2.487  19.733  0.00  0.00    +0.000 C 
ATOM     14  C   UNL     1       0.227   2.931  19.606  0.00  0.00    +0.000 C 
ATOM     15  F   UNL     1       1.615   1.299  20.439  0.00  0.00    +0.000 F 
ATOM     16  C   UNL     1       2.335   2.135  18.412  0.00  0.00    +0.000 C 
ATOM     17  C   UNL     1       3.332   3.122  17.840  0.00  0.00    +0.000 C 
ATOM     18  F   UNL     1       4.311   2.370  17.237  0.00  0.00    +0.000 F 
ATOM     19  F   UNL     1       2.722   3.737  16.783  0.00  0.00    +0.000 F 
ATOM     20  H   UNL     1       2.781   4.088  22.475  0.00  0.00    +0.000 HD
ATOM     21  H   UNL     1       1.638   2.828  22.324  0.00  0.00    +0.000 HD
ENDBRANCH   6   8
BRANCH   1  24
ATOM     22  C   UNL     1       1.305   8.873  19.686  0.00  0.00    +0.000 C 
ATOM     23  O   UNL     1       1.697   8.278  20.682  0.00  0.00    +0.000 OA
ATOM     24  N   UNL     1       1.813   8.730  18.403  0.00  0.00    +0.000 N 
ATOM     25  H   UNL     1       1.488   9.407  17.719  0.00  0.00    +0.000 HD
BRANCH  22  29
ATOM     26  C   UNL     1      -2.623  11.860  19.002  0.00  0.00    +0.000 C 
ATOM     27  C   UNL     1      -1.442  11.113  19.475  0.00  0.00    +0.000 A 
ATOM     28  N   UNL     1      -0.674  10.239  18.844  0.00  0.00    +0.000 NA
ATOM     29  C   UNL     1       0.234   9.856  19.820  0.00  0.00    +0.000 A 
ATOM     30  C   UNL     1      -0.029  10.541  20.984  0.00  0.00    +0.000 A 
ATOM     31  O   UNL     1      -1.096  11.347  20.778  0.00  0.00    +0.000 OA
ENDBRANCH  22  29
ENDBRANCH   1  24
TORSDOF 3
ENDMDL
MODEL 9
REMARK VINA RESULT:      -6.8      2.714      3.408
REMARK  Name = 
REMARK  6 active torsions:
REMARK  status: ('A' for Active; 'I' for Inactive)
REMARK    1  A    between atoms: C_1  and  C_2
REMARK    2  A    between atoms: C_4  and  C_5
REMARK    3  A    between atoms: N_7  and  C_8
REMARK    4  A    between atoms: C_13  and  C_14
REMARK    5  A    between atoms: C_14  and  C_15
REMARK    6  A    between atoms: C_19  and  C_20
REMARK                            x       y       z     vdW  Elec       q    Type
REMARK                         _______ _______ _______ _____ _____    ______ ____
ROOT
ATOM      1  C   UNL     1       2.193   6.011  20.058  0.00  0.00    +0.000 A 
ATOM      2  C   UNL     1       1.574   4.776  19.834  0.00  0.00    +0.000 A 
ATOM      3  C   UNL     1       2.220   3.773  19.131  0.00  0.00    +0.000 A 
ATOM      4  C   UNL     1       3.484   4.009  18.619  0.00  0.00    +0.000 A 
ATOM      5  F   UNL     1       4.083   3.008  17.971  0.00  0.00    +0.000 F 
ATOM      6  C   UNL     1       4.127   5.251  18.746  0.00  0.00    +0.000 A 
ATOM      7  C   UNL     1       3.453   6.258  19.477  0.00  0.00    +0.000 A 
ENDROOT
BRANCH   6   8
ATOM      8  C   UNL     1       5.527   5.393  18.106  0.00  0.00    +0.000 C 
ATOM      9  C   UNL     1       6.659   5.445  19.165  0.00  0.00    +0.000 C 
ATOM     10  N   UNL     1       5.806   4.128  17.390  0.00  0.00    +0.000 NA
ATOM     11  C   UNL     1       6.024   4.052  16.127  0.00  0.00    +0.000 C 
ATOM     12  N   UNL     1       6.263   2.803  15.611  0.00  0.00    +0.000 N 
ATOM     13  C   UNL     1       6.069   5.230  15.151  0.00  0.00    +0.000 C 
ATOM     14  C   UNL     1       4.962   5.089  14.106  0.00  0.00    +0.000 C 
ATOM     15  F   UNL     1       7.239   5.128  14.419  0.00  0.00    +0.000 F 
ATOM     16  C   UNL     1       6.121   6.592  15.809  0.00  0.00    +0.000 C 
ATOM     17  C   UNL     1       5.614   6.700  17.232  0.00  0.00    +0.000 C 
ATOM     18  F   UNL     1       6.428   7.613  17.859  0.00  0.00    +0.000 F 
ATOM     19  F   UNL     1       4.412   7.347  17.179  0.00  0.00    +0.000 F 
ATOM     20  H   UNL     1       6.486   2.106  16.312  0.00  0.00    +0.000 HD
ATOM     21  H   UNL     1       6.838   2.760  14.775  0.00  0.00    +0.000 HD
ENDBRANCH   6   8
BRANCH   1  24
ATOM     22  C   UNL     1       1.312   8.302  20.450  0.00  0.00    +0.000 C 
ATOM     23  O   UNL     1       1.514   8.752  19.328  0.00  0.00    +0.000 OA
ATOM     24  N   UNL     1       1.587   7.007  20.865  0.00  0.00    +0.000 N 
ATOM     25  H   UNL     1       1.218   6.746  21.775  0.00  0.00    +0.000 HD
BRANCH  22  29
ATOM     26  C   UNL     1      -1.553  11.503  22.973  0.00  0.00    +0.000 C 
ATOM     27  C   UNL     1      -0.551  10.534  22.487  0.00  0.00    +0.000 A 
ATOM     28  N   UNL     1      -0.352  10.047  21.274  0.00  0.00    +0.000 NA
ATOM     29  C   UNL     1       0.696   9.157  21.460  0.00  0.00    +0.000 A 
ATOM     30  C   UNL     1       1.083   9.177  22.780  0.00  0.00    +0.000 A 
ATOM     31  O   UNL     1       0.296  10.051  23.447  0.00  0.00    +0.000 OA
ENDBRANCH  22  29
ENDBRANCH   1  24
TORSDOF 3
ENDMDL
