MODEL 1
REMARK VINA RESULT:      -7.3      0.000      0.000
REMARK  Name = 
REMARK  5 active torsions:
REMARK  status: ('A' for Active; 'I' for Inactive)
REMARK    1  A    between atoms: P_2  and  C_3
REMARK    2  A    between atoms: P_2  and  C_9
REMARK    3  A    between atoms: P_2  and  N_15
REMARK    4  A    between atoms: N_15  and  C_16
REMARK    5  A    between atoms: N_15  and  C_22
REMARK                            x       y       z     vdW  Elec       q    Type
REMARK                         _______ _______ _______ _____ _____    ______ ____
ROOT
ATOM      1  O   UNL     1       2.018   3.668  16.924  0.00  0.00    +0.000 OA
ATOM      2  P   UNL     1       2.718   4.904  17.544  0.00  0.00    +0.000 P 
ENDROOT
BRANCH   2   3
ATOM      3  C   UNL     1       2.721   3.991  19.300  0.00  0.00    +0.000 A 
ATOM      4  C   UNL     1       1.683   4.167  20.231  0.00  0.00    +0.000 A 
ATOM      5  C   UNL     1       1.631   3.358  21.369  0.00  0.00    +0.000 A 
ATOM      6  C   UNL     1       2.631   2.413  21.609  0.00  0.00    +0.000 A 
ATOM      7  C   UNL     1       3.712   2.301  20.735  0.00  0.00    +0.000 A 
ATOM      8  C   UNL     1       3.770   3.099  19.595  0.00  0.00    +0.000 A 
ENDBRANCH   2   3
BRANCH   2   9
ATOM      9  C   UNL     1       4.285   4.527  16.364  0.00  0.00    +0.000 A 
ATOM     10  C   UNL     1       5.178   3.483  16.682  0.00  0.00    +0.000 A 
ATOM     11  C   UNL     1       6.265   3.206  15.855  0.00  0.00    +0.000 A 
ATOM     12  C   UNL     1       6.539   4.031  14.768  0.00  0.00    +0.000 A 
ATOM     13  C   UNL     1       5.731   5.137  14.510  0.00  0.00    +0.000 A 
ATOM     14  C   UNL     1       4.601   5.381  15.295  0.00  0.00    +0.000 A 
ENDBRANCH   2   9
BRANCH   2  15
ATOM     15  N   UNL     1       3.521   6.323  18.256  0.00  0.00    +0.000 N 
BRANCH  15  16
ATOM     16  C   UNL     1       2.637   7.372  18.688  0.00  0.00    +0.000 A 
ATOM     17  C   UNL     1       2.211   8.374  17.793  0.00  0.00    +0.000 A 
ATOM     18  C   UNL     1       1.367   9.408  18.197  0.00  0.00    +0.000 A 
ATOM     19  C   UNL     1       0.934   9.477  19.517  0.00  0.00    +0.000 A 
ATOM     20  C   UNL     1       1.353   8.509  20.427  0.00  0.00    +0.000 A 
ATOM     21  C   UNL     1       2.195   7.465  20.017  0.00  0.00    +0.000 A 
ENDBRANCH  15  16
BRANCH  15  22
ATOM     22  C   UNL     1       4.977   6.394  18.414  0.00  0.00    +0.000 A 
ATOM     23  C   UNL     1       5.763   7.188  17.560  0.00  0.00    +0.000 A 
ATOM     24  C   UNL     1       7.172   7.182  17.617  0.00  0.00    +0.000 A 
ATOM     25  C   UNL     1       7.846   6.379  18.536  0.00  0.00    +0.000 A 
ATOM     26  C   UNL     1       7.103   5.593  19.394  0.00  0.00    +0.000 A 
ATOM     27  C   UNL     1       5.703   5.597  19.318  0.00  0.00    +0.000 A 
ENDBRANCH  15  22
ENDBRANCH   2  15
TORSDOF 5
ENDMDL
MODEL 2
REMARK VINA RESULT:      -7.3      0.235      1.623
REMARK  Name = 
REMARK  5 active torsions:
REMARK  status: ('A' for Active; 'I' for Inactive)
REMARK    1  A    between atoms: P_2  and  C_3
REMARK    2  A    between atoms: P_2  and  C_9
REMARK    3  A    between atoms: P_2  and  N_15
REMARK    4  A    between atoms: N_15  and  C_16
REMARK    5  A    between atoms: N_15  and  C_22
REMARK                            x       y       z     vdW  Elec       q    Type
REMARK                         _______ _______ _______ _____ _____    ______ ____
ROOT
ATOM      1  O   UNL     1       2.095   3.758  16.666  0.00  0.00    +0.000 OA
ATOM      2  P   UNL     1       2.783   4.923  17.420  0.00  0.00    +0.000 P 
ENDROOT
BRANCH   2   3
ATOM      3  C   UNL     1       2.661   3.878  19.096  0.00  0.00    +0.000 A 
ATOM      4  C   UNL     1       3.702   3.036  19.523  0.00  0.00    +0.000 A 
ATOM      5  C   UNL     1       3.653   2.472  20.801  0.00  0.00    +0.000 A 
ATOM      6  C   UNL     1       2.554   2.700  21.632  0.00  0.00    +0.000 A 
ATOM      7  C   UNL     1       1.478   3.459  21.175  0.00  0.00    +0.000 A 
ATOM      8  C   UNL     1       1.519   4.031  19.905  0.00  0.00    +0.000 A 
ENDBRANCH   2   3
BRANCH   2   9
ATOM      9  C   UNL     1       4.409   4.597  16.307  0.00  0.00    +0.000 A 
ATOM     10  C   UNL     1       4.719   5.459  15.235  0.00  0.00    +0.000 A 
ATOM     11  C   UNL     1       5.861   5.245  14.464  0.00  0.00    +0.000 A 
ATOM     12  C   UNL     1       6.643   4.113  14.678  0.00  0.00    +0.000 A 
ATOM     13  C   UNL     1       6.281   3.191  15.659  0.00  0.00    +0.000 A 
ATOM     14  C   UNL     1       5.176   3.434  16.480  0.00  0.00    +0.000 A 
ENDBRANCH   2   9
BRANCH   2  15
ATOM     15  N   UNL     1       3.573   6.262  18.287  0.00  0.00    +0.000 N 
BRANCH  15  16
ATOM     16  C   UNL     1       2.680   7.264  18.806  0.00  0.00    +0.000 A 
ATOM     17  C   UNL     1       2.265   7.235  20.152  0.00  0.00    +0.000 A 
ATOM     18  C   UNL     1       1.387   8.188  20.669  0.00  0.00    +0.000 A 
ATOM     19  C   UNL     1       0.888   9.193  19.846  0.00  0.00    +0.000 A 
ATOM     20  C   UNL     1       1.268   9.234  18.507  0.00  0.00    +0.000 A 
ATOM     21  C   UNL     1       2.158   8.280  17.991  0.00  0.00    +0.000 A 
ENDBRANCH  15  16
BRANCH  15  22
ATOM     22  C   UNL     1       5.025   6.315  18.477  0.00  0.00    +0.000 A 
ATOM     23  C   UNL     1       5.835   7.130  17.668  0.00  0.00    +0.000 A 
ATOM     24  C   UNL     1       7.243   7.110  17.753  0.00  0.00    +0.000 A 
ATOM     25  C   UNL     1       7.891   6.270  18.658  0.00  0.00    +0.000 A 
ATOM     26  C   UNL     1       7.123   5.461  19.473  0.00  0.00    +0.000 A 
ATOM     27  C   UNL     1       5.726   5.481  19.368  0.00  0.00    +0.000 A 
ENDBRANCH  15  22
ENDBRANCH   2  15
TORSDOF 5
ENDMDL
MODEL 3
REMARK VINA RESULT:      -7.1      0.291      1.334
REMARK  Name = 
REMARK  5 active torsions:
REMARK  status: ('A' for Active; 'I' for Inactive)
REMARK    1  A    between atoms: P_2  and  C_3
REMARK    2  A    between atoms: P_2  and  C_9
REMARK    3  A    between atoms: P_2  and  N_15
REMARK    4  A    between atoms: N_15  and  C_16
REMARK    5  A    between atoms: N_15  and  C_22
REMARK                            x       y       z     vdW  Elec       q    Type
REMARK                         _______ _______ _______ _____ _____    ______ ____
ROOT
ATOM      1  O   UNL     1       2.007   3.651  16.660  0.00  0.00    +0.000 OA
ATOM      2  P   UNL     1       2.740   4.808  17.385  0.00  0.00    +0.000 P 
ENDROOT
BRANCH   2   3
ATOM      3  C   UNL     1       2.668   3.766  19.066  0.00  0.00    +0.000 A 
ATOM      4  C   UNL     1       3.763   3.012  19.520  0.00  0.00    +0.000 A 
ATOM      5  C   UNL     1       3.733   2.453  20.801  0.00  0.00    +0.000 A 
ATOM      6  C   UNL     1       2.603   2.598  21.608  0.00  0.00    +0.000 A 
ATOM      7  C   UNL     1       1.479   3.266  21.125  0.00  0.00    +0.000 A 
ATOM      8  C   UNL     1       1.500   3.832  19.851  0.00  0.00    +0.000 A 
ENDBRANCH   2   3
BRANCH   2   9
ATOM      9  C   UNL     1       4.318   4.458  16.211  0.00  0.00    +0.000 A 
ATOM     10  C   UNL     1       5.221   3.423  16.526  0.00  0.00    +0.000 A 
ATOM     11  C   UNL     1       6.315   3.164  15.703  0.00  0.00    +0.000 A 
ATOM     12  C   UNL     1       6.586   4.001  14.623  0.00  0.00    +0.000 A 
ATOM     13  C   UNL     1       5.766   5.100  14.370  0.00  0.00    +0.000 A 
ATOM     14  C   UNL     1       4.629   5.325  15.150  0.00  0.00    +0.000 A 
ENDBRANCH   2   9
BRANCH   2  15
ATOM     15  N   UNL     1       3.581   6.136  18.219  0.00  0.00    +0.000 N 
BRANCH  15  16
ATOM     16  C   UNL     1       2.721   7.128  18.808  0.00  0.00    +0.000 A 
ATOM     17  C   UNL     1       2.283   8.240  18.063  0.00  0.00    +0.000 A 
ATOM     18  C   UNL     1       1.463   9.220  18.621  0.00  0.00    +0.000 A 
ATOM     19  C   UNL     1       1.068   9.121  19.952  0.00  0.00    +0.000 A 
ATOM     20  C   UNL     1       1.501   8.041  20.716  0.00  0.00    +0.000 A 
ATOM     21  C   UNL     1       2.319   7.052  20.151  0.00  0.00    +0.000 A 
ENDBRANCH  15  16
BRANCH  15  22
ATOM     22  C   UNL     1       5.042   6.190  18.318  0.00  0.00    +0.000 A 
ATOM     23  C   UNL     1       5.730   5.471  19.312  0.00  0.00    +0.000 A 
ATOM     24  C   UNL     1       7.122   5.597  19.502  0.00  0.00    +0.000 A 
ATOM     25  C   UNL     1       7.877   6.449  18.698  0.00  0.00    +0.000 A 
ATOM     26  C   UNL     1       7.233   7.164  17.708  0.00  0.00    +0.000 A 
ATOM     27  C   UNL     1       5.847   7.041  17.539  0.00  0.00    +0.000 A 
ENDBRANCH  15  22
ENDBRANCH   2  15
TORSDOF 5
ENDMDL
MODEL 4
REMARK VINA RESULT:      -7.1      0.278      3.918
REMARK  Name = 
REMARK  5 active torsions:
REMARK  status: ('A' for Active; 'I' for Inactive)
REMARK    1  A    between atoms: P_2  and  C_3
REMARK    2  A    between atoms: P_2  and  C_9
REMARK    3  A    between atoms: P_2  and  N_15
REMARK    4  A    between atoms: N_15  and  C_16
REMARK    5  A    between atoms: N_15  and  C_22
REMARK                            x       y       z     vdW  Elec       q    Type
REMARK                         _______ _______ _______ _____ _____    ______ ____
ROOT
ATOM      1  O   UNL     1       2.180   3.492  16.646  0.00  0.00    +0.000 OA
ATOM      2  P   UNL     1       2.747   4.725  17.392  0.00  0.00    +0.000 P 
ENDROOT
BRANCH   2   3
ATOM      3  C   UNL     1       2.676   3.703  19.085  0.00  0.00    +0.000 A 
ATOM      4  C   UNL     1       3.768   2.945  19.543  0.00  0.00    +0.000 A 
ATOM      5  C   UNL     1       3.740   2.402  20.830  0.00  0.00    +0.000 A 
ATOM      6  C   UNL     1       2.615   2.565  21.641  0.00  0.00    +0.000 A 
ATOM      7  C   UNL     1       1.494   3.236  21.155  0.00  0.00    +0.000 A 
ATOM      8  C   UNL     1       1.513   3.787  19.875  0.00  0.00    +0.000 A 
ENDBRANCH   2   3
BRANCH   2   9
ATOM      9  C   UNL     1       4.422   4.520  16.322  0.00  0.00    +0.000 A 
ATOM     10  C   UNL     1       4.636   5.318  15.180  0.00  0.00    +0.000 A 
ATOM     11  C   UNL     1       5.809   5.190  14.438  0.00  0.00    +0.000 A 
ATOM     12  C   UNL     1       6.728   4.194  14.757  0.00  0.00    +0.000 A 
ATOM     13  C   UNL     1       6.472   3.321  15.814  0.00  0.00    +0.000 A 
ATOM     14  C   UNL     1       5.331   3.487  16.603  0.00  0.00    +0.000 A 
ENDBRANCH   2   9
BRANCH   2  15
ATOM     15  N   UNL     1       3.399   6.142  18.250  0.00  0.00    +0.000 N 
BRANCH  15  16
ATOM     16  C   UNL     1       4.835   6.205  18.320  0.00  0.00    +0.000 A 
ATOM     17  C   UNL     1       5.547   5.457  19.278  0.00  0.00    +0.000 A 
ATOM     18  C   UNL     1       6.937   5.518  19.371  0.00  0.00    +0.000 A 
ATOM     19  C   UNL     1       7.656   6.345  18.513  0.00  0.00    +0.000 A 
ATOM     20  C   UNL     1       6.976   7.109  17.568  0.00  0.00    +0.000 A 
ATOM     21  C   UNL     1       5.578   7.039  17.469  0.00  0.00    +0.000 A 
ENDBRANCH  15  16
BRANCH  15  22
ATOM     22  C   UNL     1       2.529   7.178  18.813  0.00  0.00    +0.000 A 
ATOM     23  C   UNL     1       2.140   8.294  18.052  0.00  0.00    +0.000 A 
ATOM     24  C   UNL     1       1.401   9.360  18.606  0.00  0.00    +0.000 A 
ATOM     25  C   UNL     1       1.022   9.344  19.947  0.00  0.00    +0.000 A 
ATOM     26  C   UNL     1       1.381   8.258  20.721  0.00  0.00    +0.000 A 
ATOM     27  C   UNL     1       2.128   7.212  20.162  0.00  0.00    +0.000 A 
ENDBRANCH  15  22
ENDBRANCH   2  15
TORSDOF 5
ENDMDL
MODEL 5
REMARK VINA RESULT:      -7.0      0.177      3.853
REMARK  Name = 
REMARK  5 active torsions:
REMARK  status: ('A' for Active; 'I' for Inactive)
REMARK    1  A    between atoms: P_2  and  C_3
REMARK    2  A    between atoms: P_2  and  C_9
REMARK    3  A    between atoms: P_2  and  N_15
REMARK    4  A    between atoms: N_15  and  C_16
REMARK    5  A    between atoms: N_15  and  C_22
REMARK                            x       y       z     vdW  Elec       q    Type
REMARK                         _______ _______ _______ _____ _____    ______ ____
ROOT
ATOM      1  O   UNL     1       2.250   3.601  16.888  0.00  0.00    +0.000 OA
ATOM      2  P   UNL     1       2.852   4.884  17.511  0.00  0.00    +0.000 P 
ENDROOT
BRANCH   2   3
ATOM      3  C   UNL     1       2.895   3.981  19.271  0.00  0.00    +0.000 A 
ATOM      4  C   UNL     1       1.955   4.266  20.276  0.00  0.00    +0.000 A 
ATOM      5  C   UNL     1       1.907   3.470  21.423  0.00  0.00    +0.000 A 
ATOM      6  C   UNL     1       2.820   2.427  21.597  0.00  0.00    +0.000 A 
ATOM      7  C   UNL     1       3.813   2.201  20.645  0.00  0.00    +0.000 A 
ATOM      8  C   UNL     1       3.866   2.986  19.495  0.00  0.00    +0.000 A 
ENDBRANCH   2   3
BRANCH   2   9
ATOM      9  C   UNL     1       4.459   4.614  16.354  0.00  0.00    +0.000 A 
ATOM     10  C   UNL     1       4.676   5.443  15.236  0.00  0.00    +0.000 A 
ATOM     11  C   UNL     1       5.802   5.269  14.434  0.00  0.00    +0.000 A 
ATOM     12  C   UNL     1       6.664   4.200  14.668  0.00  0.00    +0.000 A 
ATOM     13  C   UNL     1       6.396   3.302  15.701  0.00  0.00    +0.000 A 
ATOM     14  C   UNL     1       5.307   3.511  16.550  0.00  0.00    +0.000 A 
ENDBRANCH   2   9
BRANCH   2  15
ATOM     15  N   UNL     1       3.545   6.360  18.227  0.00  0.00    +0.000 N 
BRANCH  15  16
ATOM     16  C   UNL     1       4.977   6.357  18.365  0.00  0.00    +0.000 A 
ATOM     17  C   UNL     1       5.786   7.146  17.525  0.00  0.00    +0.000 A 
ATOM     18  C   UNL     1       7.177   7.144  17.633  0.00  0.00    +0.000 A 
ATOM     19  C   UNL     1       7.799   6.337  18.581  0.00  0.00    +0.000 A 
ATOM     20  C   UNL     1       7.024   5.534  19.412  0.00  0.00    +0.000 A 
ATOM     21  C   UNL     1       5.625   5.544  19.308  0.00  0.00    +0.000 A 
ENDBRANCH  15  16
BRANCH  15  22
ATOM     22  C   UNL     1       2.710   7.500  18.616  0.00  0.00    +0.000 A 
ATOM     23  C   UNL     1       2.163   7.593  19.908  0.00  0.00    +0.000 A 
ATOM     24  C   UNL     1       1.264   8.618  20.270  0.00  0.00    +0.000 A 
ATOM     25  C   UNL     1       0.880   9.590  19.347  0.00  0.00    +0.000 A 
ATOM     26  C   UNL     1       1.405   9.531  18.071  0.00  0.00    +0.000 A 
ATOM     27  C   UNL     1       2.287   8.499  17.720  0.00  0.00    +0.000 A 
ENDBRANCH  15  22
ENDBRANCH   2  15
TORSDOF 5
ENDMDL
MODEL 6
REMARK VINA RESULT:      -6.9      0.200      3.838
REMARK  Name = 
REMARK  5 active torsions:
REMARK  status: ('A' for Active; 'I' for Inactive)
REMARK    1  A    between atoms: P_2  and  C_3
REMARK    2  A    between atoms: P_2  and  C_9
REMARK    3  A    between atoms: P_2  and  N_15
REMARK    4  A    between atoms: N_15  and  C_16
REMARK    5  A    between atoms: N_15  and  C_22
REMARK                            x       y       z     vdW  Elec       q    Type
REMARK                         _______ _______ _______ _____ _____    ______ ____
ROOT
ATOM      1  O   UNL     1       2.182   3.576  16.902  0.00  0.00    +0.000 OA
ATOM      2  P   UNL     1       2.805   4.859  17.506  0.00  0.00    +0.000 P 
ENDROOT
BRANCH   2   3
ATOM      3  C   UNL     1       2.888   3.961  19.267  0.00  0.00    +0.000 A 
ATOM      4  C   UNL     1       2.028   4.311  20.321  0.00  0.00    +0.000 A 
ATOM      5  C   UNL     1       1.993   3.522  21.475  0.00  0.00    +0.000 A 
ATOM      6  C   UNL     1       2.843   2.422  21.604  0.00  0.00    +0.000 A 
ATOM      7  C   UNL     1       3.764   2.128  20.599  0.00  0.00    +0.000 A 
ATOM      8  C   UNL     1       3.803   2.904  19.442  0.00  0.00    +0.000 A 
ENDBRANCH   2   3
BRANCH   2   9
ATOM      9  C   UNL     1       4.381   4.579  16.310  0.00  0.00    +0.000 A 
ATOM     10  C   UNL     1       5.317   3.565  16.596  0.00  0.00    +0.000 A 
ATOM     11  C   UNL     1       6.410   3.355  15.757  0.00  0.00    +0.000 A 
ATOM     12  C   UNL     1       6.645   4.220  14.692  0.00  0.00    +0.000 A 
ATOM     13  C   UNL     1       5.790   5.299  14.468  0.00  0.00    +0.000 A 
ATOM     14  C   UNL     1       4.655   5.475  15.263  0.00  0.00    +0.000 A 
ENDBRANCH   2   9
BRANCH   2  15
ATOM     15  N   UNL     1       3.521   6.334  18.201  0.00  0.00    +0.000 N 
BRANCH  15  16
ATOM     16  C   UNL     1       4.954   6.318  18.320  0.00  0.00    +0.000 A 
ATOM     17  C   UNL     1       5.591   5.508  19.281  0.00  0.00    +0.000 A 
ATOM     18  C   UNL     1       6.979   5.492  19.422  0.00  0.00    +0.000 A 
ATOM     19  C   UNL     1       7.770   6.300  18.612  0.00  0.00    +0.000 A 
ATOM     20  C   UNL     1       7.165   7.123  17.666  0.00  0.00    +0.000 A 
ATOM     21  C   UNL     1       5.770   7.132  17.518  0.00  0.00    +0.000 A 
ENDBRANCH  15  16
BRANCH  15  22
ATOM     22  C   UNL     1       2.702   7.486  18.591  0.00  0.00    +0.000 A 
ATOM     23  C   UNL     1       2.161   7.588  19.884  0.00  0.00    +0.000 A 
ATOM     24  C   UNL     1       1.277   8.625  20.248  0.00  0.00    +0.000 A 
ATOM     25  C   UNL     1       0.903   9.600  19.325  0.00  0.00    +0.000 A 
ATOM     26  C   UNL     1       1.422   9.532  18.047  0.00  0.00    +0.000 A 
ATOM     27  C   UNL     1       2.290   8.489  17.694  0.00  0.00    +0.000 A 
ENDBRANCH  15  22
ENDBRANCH   2  15
TORSDOF 5
ENDMDL
MODEL 7
REMARK VINA RESULT:      -6.9      0.306      3.597
REMARK  Name = 
REMARK  5 active torsions:
REMARK  status: ('A' for Active; 'I' for Inactive)
REMARK    1  A    between atoms: P_2  and  C_3
REMARK    2  A    between atoms: P_2  and  C_9
REMARK    3  A    between atoms: P_2  and  N_15
REMARK    4  A    between atoms: N_15  and  C_16
REMARK    5  A    between atoms: N_15  and  C_22
REMARK                            x       y       z     vdW  Elec       q    Type
REMARK                         _______ _______ _______ _____ _____    ______ ____
ROOT
ATOM      1  O   UNL     1       2.337   3.386  16.849  0.00  0.00    +0.000 OA
ATOM      2  P   UNL     1       2.884   4.699  17.463  0.00  0.00    +0.000 P 
ENDROOT
BRANCH   2   3
ATOM      3  C   UNL     1       3.024   3.792  19.216  0.00  0.00    +0.000 A 
ATOM      4  C   UNL     1       2.139   4.073  20.271  0.00  0.00    +0.000 A 
ATOM      5  C   UNL     1       2.156   3.274  21.417  0.00  0.00    +0.000 A 
ATOM      6  C   UNL     1       3.078   2.233  21.539  0.00  0.00    +0.000 A 
ATOM      7  C   UNL     1       4.019   2.011  20.535  0.00  0.00    +0.000 A 
ATOM      8  C   UNL     1       4.008   2.798  19.385  0.00  0.00    +0.000 A 
ENDBRANCH   2   3
BRANCH   2   9
ATOM      9  C   UNL     1       4.471   4.522  16.262  0.00  0.00    +0.000 A 
ATOM     10  C   UNL     1       5.488   3.593  16.562  0.00  0.00    +0.000 A 
ATOM     11  C   UNL     1       6.590   3.454  15.720  0.00  0.00    +0.000 A 
ATOM     12  C   UNL     1       6.749   4.313  14.636  0.00  0.00    +0.000 A 
ATOM     13  C   UNL     1       5.809   5.314  14.396  0.00  0.00    +0.000 A 
ATOM     14  C   UNL     1       4.667   5.414  15.196  0.00  0.00    +0.000 A 
ENDBRANCH   2   9
BRANCH   2  15
ATOM     15  N   UNL     1       3.514   6.207  18.169  0.00  0.00    +0.000 N 
BRANCH  15  16
ATOM     16  C   UNL     1       4.944   6.266  18.306  0.00  0.00    +0.000 A 
ATOM     17  C   UNL     1       5.718   7.091  17.467  0.00  0.00    +0.000 A 
ATOM     18  C   UNL     1       7.108   7.149  17.574  0.00  0.00    +0.000 A 
ATOM     19  C   UNL     1       7.765   6.368  18.519  0.00  0.00    +0.000 A 
ATOM     20  C   UNL     1       7.026   5.530  19.350  0.00  0.00    +0.000 A 
ATOM     21  C   UNL     1       5.628   5.480  19.247  0.00  0.00    +0.000 A 
ENDBRANCH  15  16
BRANCH  15  22
ATOM     22  C   UNL     1       2.631   7.314  18.550  0.00  0.00    +0.000 A 
ATOM     23  C   UNL     1       2.329   8.347  17.646  0.00  0.00    +0.000 A 
ATOM     24  C   UNL     1       1.579   9.480  18.025  0.00  0.00    +0.000 A 
ATOM     25  C   UNL     1       1.102   9.617  19.328  0.00  0.00    +0.000 A 
ATOM     26  C   UNL     1       1.376   8.616  20.238  0.00  0.00    +0.000 A 
ATOM     27  C   UNL     1       2.134   7.501  19.853  0.00  0.00    +0.000 A 
ENDBRANCH  15  22
ENDBRANCH   2  15
TORSDOF 5
ENDMDL
MODEL 8
REMARK VINA RESULT:      -6.8      0.283      1.623
REMARK  Name = 
REMARK  5 active torsions:
REMARK  status: ('A' for Active; 'I' for Inactive)
REMARK    1  A    between atoms: P_2  and  C_3
REMARK    2  A    between atoms: P_2  and  C_9
REMARK    3  A    between atoms: P_2  and  N_15
REMARK    4  A    between atoms: N_15  and  C_16
REMARK    5  A    between atoms: N_15  and  C_22
REMARK                            x       y       z     vdW  Elec       q    Type
REMARK                         _______ _______ _______ _____ _____    ______ ____
ROOT
ATOM      1  O   UNL     1       2.215   3.616  16.849  0.00  0.00    +0.000 OA
ATOM      2  P   UNL     1       2.926   4.850  17.457  0.00  0.00    +0.000 P 
ENDROOT
BRANCH   2   3
ATOM      3  C   UNL     1       2.983   3.926  19.206  0.00  0.00    +0.000 A 
ATOM      4  C   UNL     1       1.969   4.088  20.165  0.00  0.00    +0.000 A 
ATOM      5  C   UNL     1       1.954   3.271  21.299  0.00  0.00    +0.000 A 
ATOM      6  C   UNL     1       2.967   2.332  21.505  0.00  0.00    +0.000 A 
ATOM      7  C   UNL     1       4.025   2.234  20.602  0.00  0.00    +0.000 A 
ATOM      8  C   UNL     1       4.047   3.040  19.466  0.00  0.00    +0.000 A 
ENDBRANCH   2   3
BRANCH   2   9
ATOM      9  C   UNL     1       4.462   4.489  16.231  0.00  0.00    +0.000 A 
ATOM     10  C   UNL     1       4.683   5.313  15.109  0.00  0.00    +0.000 A 
ATOM     11  C   UNL     1       5.761   5.074  14.258  0.00  0.00    +0.000 A 
ATOM     12  C   UNL     1       6.562   3.952  14.449  0.00  0.00    +0.000 A 
ATOM     13  C   UNL     1       6.283   3.064  15.487  0.00  0.00    +0.000 A 
ATOM     14  C   UNL     1       5.245   3.333  16.384  0.00  0.00    +0.000 A 
ENDBRANCH   2   9
BRANCH   2  15
ATOM     15  N   UNL     1       3.743   6.269  18.156  0.00  0.00    +0.000 N 
BRANCH  15  16
ATOM     16  C   UNL     1       2.866   7.309  18.624  0.00  0.00    +0.000 A 
ATOM     17  C   UNL     1       2.366   7.295  19.941  0.00  0.00    +0.000 A 
ATOM     18  C   UNL     1       1.501   8.285  20.408  0.00  0.00    +0.000 A 
ATOM     19  C   UNL     1       1.101   9.314  19.562  0.00  0.00    +0.000 A 
ATOM     20  C   UNL     1       1.566   9.343  18.250  0.00  0.00    +0.000 A 
ATOM     21  C   UNL     1       2.443   8.351  17.784  0.00  0.00    +0.000 A 
ENDBRANCH  15  16
BRANCH  15  22
ATOM     22  C   UNL     1       5.202   6.348  18.268  0.00  0.00    +0.000 A 
ATOM     23  C   UNL     1       5.895   5.626  19.256  0.00  0.00    +0.000 A 
ATOM     24  C   UNL     1       7.283   5.775  19.459  0.00  0.00    +0.000 A 
ATOM     25  C   UNL     1       8.028   6.656  18.676  0.00  0.00    +0.000 A 
ATOM     26  C   UNL     1       7.379   7.375  17.692  0.00  0.00    +0.000 A 
ATOM     27  C   UNL     1       5.997   7.228  17.510  0.00  0.00    +0.000 A 
ENDBRANCH  15  22
ENDBRANCH   2  15
TORSDOF 5
ENDMDL
MODEL 9
REMARK VINA RESULT:      -6.7      0.239      3.856
REMARK  Name = 
REMARK  5 active torsions:
REMARK  status: ('A' for Active; 'I' for Inactive)
REMARK    1  A    between atoms: P_2  and  C_3
REMARK    2  A    between atoms: P_2  and  C_9
REMARK    3  A    between atoms: P_2  and  N_15
REMARK    4  A    between atoms: N_15  and  C_16
REMARK    5  A    between atoms: N_15  and  C_22
REMARK                            x       y       z     vdW  Elec       q    Type
REMARK                         _______ _______ _______ _____ _____    ______ ____
ROOT
ATOM      1  O   UNL     1       2.151   3.630  16.658  0.00  0.00    +0.000 OA
ATOM      2  P   UNL     1       2.762   4.856  17.381  0.00  0.00    +0.000 P 
ENDROOT
BRANCH   2   3
ATOM      3  C   UNL     1       2.722   3.842  19.080  0.00  0.00    +0.000 A 
ATOM      4  C   UNL     1       3.656   2.832  19.366  0.00  0.00    +0.000 A 
ATOM      5  C   UNL     1       3.707   2.281  20.649  0.00  0.00    +0.000 A 
ATOM      6  C   UNL     1       2.803   2.693  21.630  0.00  0.00    +0.000 A 
ATOM      7  C   UNL     1       1.815   3.627  21.323  0.00  0.00    +0.000 A 
ATOM      8  C   UNL     1       1.758   4.186  20.048  0.00  0.00    +0.000 A 
ENDBRANCH   2   3
BRANCH   2   9
ATOM      9  C   UNL     1       4.401   4.616  16.264  0.00  0.00    +0.000 A 
ATOM     10  C   UNL     1       5.312   3.580  16.553  0.00  0.00    +0.000 A 
ATOM     11  C   UNL     1       6.449   3.399  15.768  0.00  0.00    +0.000 A 
ATOM     12  C   UNL     1       6.751   4.310  14.760  0.00  0.00    +0.000 A 
ATOM     13  C   UNL     1       5.919   5.408  14.540  0.00  0.00    +0.000 A 
ATOM     14  C   UNL     1       4.742   5.557  15.278  0.00  0.00    +0.000 A 
ENDBRANCH   2   9
BRANCH   2  15
ATOM     15  N   UNL     1       3.465   6.264  18.213  0.00  0.00    +0.000 N 
BRANCH  15  16
ATOM     16  C   UNL     1       4.892   6.219  18.389  0.00  0.00    +0.000 A 
ATOM     17  C   UNL     1       5.744   7.019  17.602  0.00  0.00    +0.000 A 
ATOM     18  C   UNL     1       7.130   6.977  17.747  0.00  0.00    +0.000 A 
ATOM     19  C   UNL     1       7.706   6.119  18.679  0.00  0.00    +0.000 A 
ATOM     20  C   UNL     1       6.889   5.305  19.458  0.00  0.00    +0.000 A 
ATOM     21  C   UNL     1       5.494   5.355  19.317  0.00  0.00    +0.000 A 
ENDBRANCH  15  16
BRANCH  15  22
ATOM     22  C   UNL     1       2.643   7.395  18.655  0.00  0.00    +0.000 A 
ATOM     23  C   UNL     1       2.163   7.472  19.974  0.00  0.00    +0.000 A 
ATOM     24  C   UNL     1       1.277   8.487  20.392  0.00  0.00    +0.000 A 
ATOM     25  C   UNL     1       0.840   9.464  19.499  0.00  0.00    +0.000 A 
ATOM     26  C   UNL     1       1.299   9.421  18.197  0.00  0.00    +0.000 A 
ATOM     27  C   UNL     1       2.169   8.399  17.792  0.00  0.00    +0.000 A 
ENDBRANCH  15  22
ENDBRANCH   2  15
TORSDOF 5
ENDMDL
