MODEL 1
REMARK VINA RESULT:      -9.3      0.000      0.000
REMARK  Name = 
REMARK  4 active torsions:
REMARK  status: ('A' for Active; 'I' for Inactive)
REMARK    1  A    between atoms: C_1  and  N_2
REMARK    2  A    between atoms: C_6  and  C_7
REMARK    3  A    between atoms: C_13  and  C_14
REMARK    4  A    between atoms: C_16  and  C_17
REMARK                            x       y       z     vdW  Elec       q    Type
REMARK                         _______ _______ _______ _____ _____    ______ ____
ROOT
ATOM      1  C   UNL     1       1.997   5.630  20.121  0.00  0.00    +0.000 C 
ATOM      2  O   UNL     1       2.132   5.545  21.344  0.00  0.00    +0.000 OA
ATOM      3  N   UNL     1       1.922   4.469  19.324  0.00  0.00    +0.000 N 
ATOM      4  C   UNL     1       1.934   3.165  19.997  0.00  0.00    +0.000 C 
ATOM      5  C   UNL     1       2.843   2.156  19.288  0.00  0.00    +0.000 C 
ATOM      6  C   UNL     1       2.580   2.091  17.782  0.00  0.00    +0.000 C 
ATOM      7  C   UNL     1       2.622   3.486  17.144  0.00  0.00    +0.000 C 
ATOM      8  C   UNL     1       1.624   4.395  17.890  0.00  0.00    +0.000 C 
ENDROOT
BRANCH   1  14
ATOM      9  C   UNL     1       0.180  11.516  20.374  0.00  0.00    +0.000 C 
ATOM     10  N   UNL     1       0.470  10.116  20.593  0.00  0.00    +0.000 N 
ATOM     11  C   UNL     1       0.181   9.421  21.732  0.00  0.00    +0.000 A 
ATOM     12  C   UNL     1       0.647   8.136  21.567  0.00  0.00    +0.000 A 
ATOM     13  C   UNL     1       1.247   8.037  20.272  0.00  0.00    +0.000 A 
ATOM     14  C   UNL     1       1.887   7.003  19.540  0.00  0.00    +0.000 A 
ATOM     15  C   UNL     1       2.470   7.357  18.311  0.00  0.00    +0.000 A 
ATOM     16  C   UNL     1       2.317   8.615  17.741  0.00  0.00    +0.000 A 
ATOM     17  C   UNL     1       1.621   9.606  18.412  0.00  0.00    +0.000 A 
ATOM     18  C   UNL     1       1.125   9.307  19.688  0.00  0.00    +0.000 A 
ENDBRANCH   1  14
BRANCH   7  19
ATOM     19  C   UNL     1       4.020   4.026  17.115  0.00  0.00    +0.000 A 
ATOM     20  N   UNL     1       4.589   4.967  17.832  0.00  0.00    +0.000 NA
ATOM     21  C   UNL     1       5.852   5.065  17.294  0.00  0.00    +0.000 A 
ATOM     22  N   UNL     1       6.081   4.169  16.318  0.00  0.00    +0.000 NA
ATOM     23  O   UNL     1       4.871   3.484  16.196  0.00  0.00    +0.000 OA
BRANCH  21  24
ATOM     24  C   UNL     1       6.796   6.102  17.709  0.00  0.00    +0.000 A 
ATOM     25  C   UNL     1       7.645   5.897  18.810  0.00  0.00    +0.000 A 
ATOM     26  C   UNL     1       8.513   6.904  19.246  0.00  0.00    +0.000 A 
ATOM     27  C   UNL     1       8.552   8.125  18.580  0.00  0.00    +0.000 A 
ATOM     28  C   UNL     1       7.724   8.342  17.480  0.00  0.00    +0.000 A 
ATOM     29  C   UNL     1       6.852   7.339  17.047  0.00  0.00    +0.000 A 
ENDBRANCH  21  24
ENDBRANCH   7  19
TORSDOF 3
ENDMDL
MODEL 2
REMARK VINA RESULT:      -8.3      3.465      8.716
REMARK  Name = 
REMARK  4 active torsions:
REMARK  status: ('A' for Active; 'I' for Inactive)
REMARK    1  A    between atoms: C_1  and  N_2
REMARK    2  A    between atoms: C_6  and  C_7
REMARK    3  A    between atoms: C_13  and  C_14
REMARK    4  A    between atoms: C_16  and  C_17
REMARK                            x       y       z     vdW  Elec       q    Type
REMARK                         _______ _______ _______ _____ _____    ______ ____
ROOT
ATOM      1  C   UNL     1       0.360   8.803  21.308  0.00  0.00    +0.000 C 
ATOM      2  O   UNL     1      -0.046   7.767  21.841  0.00  0.00    +0.000 OA
ATOM      3  N   UNL     1       0.124  10.058  21.905  0.00  0.00    +0.000 N 
ATOM      4  C   UNL     1      -0.547  10.089  23.210  0.00  0.00    +0.000 C 
ATOM      5  C   UNL     1      -1.617  11.182  23.285  0.00  0.00    +0.000 C 
ATOM      6  C   UNL     1      -1.100  12.540  22.804  0.00  0.00    +0.000 C 
ATOM      7  C   UNL     1      -0.448  12.435  21.419  0.00  0.00    +0.000 C 
ATOM      8  C   UNL     1       0.655  11.358  21.478  0.00  0.00    +0.000 C 
ENDROOT
BRANCH   1  14
ATOM      9  C   UNL     1       4.121   5.692  17.541  0.00  0.00    +0.000 C 
ATOM     10  N   UNL     1       3.279   6.178  18.612  0.00  0.00    +0.000 N 
ATOM     11  C   UNL     1       2.973   5.486  19.749  0.00  0.00    +0.000 A 
ATOM     12  C   UNL     1       2.120   6.267  20.496  0.00  0.00    +0.000 A 
ATOM     13  C   UNL     1       1.891   7.488  19.789  0.00  0.00    +0.000 A 
ATOM     14  C   UNL     1       1.127   8.660  20.032  0.00  0.00    +0.000 A 
ATOM     15  C   UNL     1       1.066   9.609  18.998  0.00  0.00    +0.000 A 
ATOM     16  C   UNL     1       1.825   9.508  17.839  0.00  0.00    +0.000 A 
ATOM     17  C   UNL     1       2.640   8.407  17.631  0.00  0.00    +0.000 A 
ATOM     18  C   UNL     1       2.632   7.396  18.601  0.00  0.00    +0.000 A 
ENDBRANCH   1  14
BRANCH   7  19
ATOM     19  C   UNL     1      -1.474  12.185  20.355  0.00  0.00    +0.000 A 
ATOM     20  N   UNL     1      -1.421  11.444  19.273  0.00  0.00    +0.000 NA
ATOM     21  C   UNL     1      -2.632  11.678  18.661  0.00  0.00    +0.000 A 
ATOM     22  N   UNL     1      -3.436  12.486  19.374  0.00  0.00    +0.000 NA
ATOM     23  O   UNL     1      -2.672  12.824  20.492  0.00  0.00    +0.000 OA
BRANCH  21  24
ATOM     24  C   UNL     1      -2.948  11.150  17.335  0.00  0.00    +0.000 A 
ATOM     25  C   UNL     1      -4.112  11.558  16.661  0.00  0.00    +0.000 A 
ATOM     26  C   UNL     1      -4.449  11.018  15.415  0.00  0.00    +0.000 A 
ATOM     27  C   UNL     1      -3.620  10.070  14.820  0.00  0.00    +0.000 A 
ATOM     28  C   UNL     1      -2.457   9.661  15.471  0.00  0.00    +0.000 A 
ATOM     29  C   UNL     1      -2.122  10.196  16.718  0.00  0.00    +0.000 A 
ENDBRANCH  21  24
ENDBRANCH   7  19
TORSDOF 3
ENDMDL
MODEL 3
REMARK VINA RESULT:      -8.2      5.961     10.154
REMARK  Name = 
REMARK  4 active torsions:
REMARK  status: ('A' for Active; 'I' for Inactive)
REMARK    1  A    between atoms: C_1  and  N_2
REMARK    2  A    between atoms: C_6  and  C_7
REMARK    3  A    between atoms: C_13  and  C_14
REMARK    4  A    between atoms: C_16  and  C_17
REMARK                            x       y       z     vdW  Elec       q    Type
REMARK                         _______ _______ _______ _____ _____    ______ ____
ROOT
ATOM      1  C   UNL     1      -1.345  12.169  22.811  0.00  0.00    +0.000 C 
ATOM      2  O   UNL     1      -1.145  11.194  23.540  0.00  0.00    +0.000 OA
ATOM      3  N   UNL     1      -2.500  12.961  22.971  0.00  0.00    +0.000 N 
ATOM      4  C   UNL     1      -3.414  12.637  24.073  0.00  0.00    +0.000 C 
ATOM      5  C   UNL     1      -4.883  12.689  23.640  0.00  0.00    +0.000 C 
ATOM      6  C   UNL     1      -5.226  13.977  22.888  0.00  0.00    +0.000 C 
ATOM      7  C   UNL     1      -4.251  14.226  21.729  0.00  0.00    +0.000 C 
ATOM      8  C   UNL     1      -2.814  14.221  22.288  0.00  0.00    +0.000 C 
ENDROOT
BRANCH   1  14
ATOM      9  C   UNL     1       2.198  10.623  18.008  0.00  0.00    +0.000 C 
ATOM     10  N   UNL     1       1.264  10.694  19.110  0.00  0.00    +0.000 N 
ATOM     11  C   UNL     1       0.405   9.699  19.479  0.00  0.00    +0.000 A 
ATOM     12  C   UNL     1      -0.340  10.163  20.540  0.00  0.00    +0.000 A 
ATOM     13  C   UNL     1       0.078  11.499  20.834  0.00  0.00    +0.000 A 
ATOM     14  C   UNL     1      -0.301  12.481  21.786  0.00  0.00    +0.000 A 
ATOM     15  C   UNL     1       0.282  13.753  21.658  0.00  0.00    +0.000 A 
ATOM     16  C   UNL     1       1.295  14.028  20.748  0.00  0.00    +0.000 A 
ATOM     17  C   UNL     1       1.730  13.049  19.870  0.00  0.00    +0.000 A 
ATOM     18  C   UNL     1       1.086  11.805  19.907  0.00  0.00    +0.000 A 
ENDBRANCH   1  14
BRANCH   7  19
ATOM     19  C   UNL     1      -4.467  13.242  20.619  0.00  0.00    +0.000 A 
ATOM     20  N   UNL     1      -3.611  12.666  19.809  0.00  0.00    +0.000 NA
ATOM     21  C   UNL     1      -4.410  11.932  18.962  0.00  0.00    +0.000 A 
ATOM     22  N   UNL     1      -5.715  11.999  19.278  0.00  0.00    +0.000 NA
ATOM     23  O   UNL     1      -5.755  12.866  20.370  0.00  0.00    +0.000 OA
BRANCH  21  24
ATOM     24  C   UNL     1      -3.871  11.227  17.799  0.00  0.00    +0.000 A 
ATOM     25  C   UNL     1      -2.759  10.377  17.930  0.00  0.00    +0.000 A 
ATOM     26  C   UNL     1      -2.206   9.741  16.814  0.00  0.00    +0.000 A 
ATOM     27  C   UNL     1      -2.762   9.937  15.553  0.00  0.00    +0.000 A 
ATOM     28  C   UNL     1      -3.871  10.769  15.407  0.00  0.00    +0.000 A 
ATOM     29  C   UNL     1      -4.421  11.410  16.520  0.00  0.00    +0.000 A 
ENDBRANCH  21  24
ENDBRANCH   7  19
TORSDOF 3
ENDMDL
MODEL 4
REMARK VINA RESULT:      -8.0      7.098     11.015
REMARK  Name = 
REMARK  4 active torsions:
REMARK  status: ('A' for Active; 'I' for Inactive)
REMARK    1  A    between atoms: C_1  and  N_2
REMARK    2  A    between atoms: C_6  and  C_7
REMARK    3  A    between atoms: C_13  and  C_14
REMARK    4  A    between atoms: C_16  and  C_17
REMARK                            x       y       z     vdW  Elec       q    Type
REMARK                         _______ _______ _______ _____ _____    ______ ____
ROOT
ATOM      1  C   UNL     1      -7.162  12.388  22.365  0.00  0.00    +0.000 C 
ATOM      2  O   UNL     1      -7.361  11.515  23.213  0.00  0.00    +0.000 OA
ATOM      3  N   UNL     1      -7.281  12.096  20.991  0.00  0.00    +0.000 N 
ATOM      4  C   UNL     1      -7.720  10.751  20.605  0.00  0.00    +0.000 C 
ATOM      5  C   UNL     1      -6.901  10.187  19.439  0.00  0.00    +0.000 C 
ATOM      6  C   UNL     1      -6.783  11.175  18.277  0.00  0.00    +0.000 C 
ATOM      7  C   UNL     1      -6.282  12.544  18.752  0.00  0.00    +0.000 C 
ATOM      8  C   UNL     1      -7.215  13.045  19.874  0.00  0.00    +0.000 C 
ENDROOT
BRANCH   1  14
ATOM      9  C   UNL     1      -3.315  16.423  24.998  0.00  0.00    +0.000 C 
ATOM     10  N   UNL     1      -3.986  15.276  24.428  0.00  0.00    +0.000 N 
ATOM     11  C   UNL     1      -3.430  14.040  24.266  0.00  0.00    +0.000 A 
ATOM     12  C   UNL     1      -4.368  13.237  23.656  0.00  0.00    +0.000 A 
ATOM     13  C   UNL     1      -5.549  14.012  23.435  0.00  0.00    +0.000 A 
ATOM     14  C   UNL     1      -6.823  13.758  22.862  0.00  0.00    +0.000 A 
ATOM     15  C   UNL     1      -7.688  14.856  22.714  0.00  0.00    +0.000 A 
ATOM     16  C   UNL     1      -7.401  16.114  23.229  0.00  0.00    +0.000 A 
ATOM     17  C   UNL     1      -6.193  16.349  23.865  0.00  0.00    +0.000 A 
ATOM     18  C   UNL     1      -5.270  15.296  23.927  0.00  0.00    +0.000 A 
ENDBRANCH   1  14
BRANCH   7  19
ATOM     19  C   UNL     1      -4.839  12.483  19.156  0.00  0.00    +0.000 A 
ATOM     20  N   UNL     1      -3.867  11.706  18.739  0.00  0.00    +0.000 NA
ATOM     21  C   UNL     1      -2.801  12.069  19.531  0.00  0.00    +0.000 A 
ATOM     22  N   UNL     1      -3.085  13.083  20.365  0.00  0.00    +0.000 NA
ATOM     23  O   UNL     1      -4.431  13.356  20.121  0.00  0.00    +0.000 OA
BRANCH  21  24
ATOM     24  C   UNL     1      -1.528  11.350  19.498  0.00  0.00    +0.000 A 
ATOM     25  C   UNL     1      -1.094  10.715  18.321  0.00  0.00    +0.000 A 
ATOM     26  C   UNL     1       0.097   9.982  18.297  0.00  0.00    +0.000 A 
ATOM     27  C   UNL     1       0.877   9.882  19.445  0.00  0.00    +0.000 A 
ATOM     28  C   UNL     1       0.467  10.514  20.618  0.00  0.00    +0.000 A 
ATOM     29  C   UNL     1      -0.726  11.242  20.646  0.00  0.00    +0.000 A 
ENDBRANCH  21  24
ENDBRANCH   7  19
TORSDOF 3
ENDMDL
MODEL 5
REMARK VINA RESULT:      -7.9      1.879      6.939
REMARK  Name = 
REMARK  4 active torsions:
REMARK  status: ('A' for Active; 'I' for Inactive)
REMARK    1  A    between atoms: C_1  and  N_2
REMARK    2  A    between atoms: C_6  and  C_7
REMARK    3  A    between atoms: C_13  and  C_14
REMARK    4  A    between atoms: C_16  and  C_17
REMARK                            x       y       z     vdW  Elec       q    Type
REMARK                         _______ _______ _______ _____ _____    ______ ____
ROOT
ATOM      1  C   UNL     1       3.296   3.769  17.234  0.00  0.00    +0.000 C 
ATOM      2  O   UNL     1       2.630   3.458  16.244  0.00  0.00    +0.000 OA
ATOM      3  N   UNL     1       2.855   3.435  18.531  0.00  0.00    +0.000 N 
ATOM      4  C   UNL     1       1.626   2.644  18.662  0.00  0.00    +0.000 C 
ATOM      5  C   UNL     1       0.715   3.170  19.775  0.00  0.00    +0.000 C 
ATOM      6  C   UNL     1       1.467   3.397  21.088  0.00  0.00    +0.000 C 
ATOM      7  C   UNL     1       2.716   4.262  20.878  0.00  0.00    +0.000 C 
ATOM      8  C   UNL     1       3.590   3.605  19.789  0.00  0.00    +0.000 C 
ENDROOT
BRANCH   1  14
ATOM      9  C   UNL     1       8.082   5.290  13.658  0.00  0.00    +0.000 C 
ATOM     10  N   UNL     1       6.870   4.769  14.250  0.00  0.00    +0.000 N 
ATOM     11  C   UNL     1       5.947   3.997  13.603  0.00  0.00    +0.000 A 
ATOM     12  C   UNL     1       4.925   3.739  14.489  0.00  0.00    +0.000 A 
ATOM     13  C   UNL     1       5.232   4.379  15.730  0.00  0.00    +0.000 A 
ATOM     14  C   UNL     1       4.589   4.482  16.992  0.00  0.00    +0.000 A 
ATOM     15  C   UNL     1       5.176   5.335  17.941  0.00  0.00    +0.000 A 
ATOM     16  C   UNL     1       6.406   5.949  17.741  0.00  0.00    +0.000 A 
ATOM     17  C   UNL     1       7.082   5.786  16.543  0.00  0.00    +0.000 A 
ATOM     18  C   UNL     1       6.462   5.027  15.541  0.00  0.00    +0.000 A 
ENDBRANCH   1  14
BRANCH   7  19
ATOM     19  C   UNL     1       2.345   5.683  20.572  0.00  0.00    +0.000 A 
ATOM     20  N   UNL     1       1.625   6.544  21.253  0.00  0.00    +0.000 NA
ATOM     21  C   UNL     1       1.576   7.646  20.430  0.00  0.00    +0.000 A 
ATOM     22  N   UNL     1       2.296   7.497  19.305  0.00  0.00    +0.000 NA
ATOM     23  O   UNL     1       2.803   6.200  19.396  0.00  0.00    +0.000 OA
BRANCH  21  24
ATOM     24  C   UNL     1       0.750   8.812  20.741  0.00  0.00    +0.000 A 
ATOM     25  C   UNL     1       0.430   9.749  19.743  0.00  0.00    +0.000 A 
ATOM     26  C   UNL     1      -0.314  10.894  20.044  0.00  0.00    +0.000 A 
ATOM     27  C   UNL     1      -0.759  11.114  21.345  0.00  0.00    +0.000 A 
ATOM     28  C   UNL     1      -0.459  10.190  22.345  0.00  0.00    +0.000 A 
ATOM     29  C   UNL     1       0.290   9.048  22.047  0.00  0.00    +0.000 A 
ENDBRANCH  21  24
ENDBRANCH   7  19
TORSDOF 3
ENDMDL
MODEL 6
REMARK VINA RESULT:      -7.8      2.189      3.233
REMARK  Name = 
REMARK  4 active torsions:
REMARK  status: ('A' for Active; 'I' for Inactive)
REMARK    1  A    between atoms: C_1  and  N_2
REMARK    2  A    between atoms: C_6  and  C_7
REMARK    3  A    between atoms: C_13  and  C_14
REMARK    4  A    between atoms: C_16  and  C_17
REMARK                            x       y       z     vdW  Elec       q    Type
REMARK                         _______ _______ _______ _____ _____    ______ ____
ROOT
ATOM      1  C   UNL     1       3.418   6.007  18.894  0.00  0.00    +0.000 C 
ATOM      2  O   UNL     1       3.154   5.384  19.926  0.00  0.00    +0.000 OA
ATOM      3  N   UNL     1       4.246   5.439  17.904  0.00  0.00    +0.000 N 
ATOM      4  C   UNL     1       4.720   4.065  18.103  0.00  0.00    +0.000 C 
ATOM      5  C   UNL     1       6.201   3.907  17.747  0.00  0.00    +0.000 C 
ATOM      6  C   UNL     1       6.541   4.505  16.380  0.00  0.00    +0.000 C 
ATOM      7  C   UNL     1       6.049   5.953  16.262  0.00  0.00    +0.000 C 
ATOM      8  C   UNL     1       4.539   5.983  16.574  0.00  0.00    +0.000 C 
ENDROOT
BRANCH   1  14
ATOM      9  C   UNL     1      -0.199  10.599  20.854  0.00  0.00    +0.000 C 
ATOM     10  N   UNL     1       0.558   9.383  20.656  0.00  0.00    +0.000 N 
ATOM     11  C   UNL     1       0.639   8.352  21.548  0.00  0.00    +0.000 A 
ATOM     12  C   UNL     1       1.481   7.403  21.013  0.00  0.00    +0.000 A 
ATOM     13  C   UNL     1       1.937   7.870  19.741  0.00  0.00    +0.000 A 
ATOM     14  C   UNL     1       2.800   7.360  18.736  0.00  0.00    +0.000 A 
ATOM     15  C   UNL     1       3.098   8.210  17.657  0.00  0.00    +0.000 A 
ATOM     16  C   UNL     1       2.479   9.440  17.477  0.00  0.00    +0.000 A 
ATOM     17  C   UNL     1       1.571   9.910  18.411  0.00  0.00    +0.000 A 
ATOM     18  C   UNL     1       1.341   9.126  19.550  0.00  0.00    +0.000 A 
ENDBRANCH   1  14
BRANCH   7  19
ATOM     19  C   UNL     1       6.858   6.872  17.128  0.00  0.00    +0.000 A 
ATOM     20  N   UNL     1       7.001   8.176  17.092  0.00  0.00    +0.000 NA
ATOM     21  C   UNL     1       7.924   8.428  18.081  0.00  0.00    +0.000 A 
ATOM     22  N   UNL     1       8.292   7.323  18.752  0.00  0.00    +0.000 NA
ATOM     23  O   UNL     1       7.592   6.294  18.123  0.00  0.00    +0.000 OA
BRANCH  21  24
ATOM     24  C   UNL     1       8.485   9.761  18.300  0.00  0.00    +0.000 A 
ATOM     25  C   UNL     1       9.382   9.994  19.356  0.00  0.00    +0.000 A 
ATOM     26  C   UNL     1       9.882  11.277  19.604  0.00  0.00    +0.000 A 
ATOM     27  C   UNL     1       9.500  12.343  18.794  0.00  0.00    +0.000 A 
ATOM     28  C   UNL     1       8.617  12.127  17.736  0.00  0.00    +0.000 A 
ATOM     29  C   UNL     1       8.113  10.847  17.491  0.00  0.00    +0.000 A 
ENDBRANCH  21  24
ENDBRANCH   7  19
TORSDOF 3
ENDMDL
MODEL 7
REMARK VINA RESULT:      -7.8      7.228     10.807
REMARK  Name = 
REMARK  4 active torsions:
REMARK  status: ('A' for Active; 'I' for Inactive)
REMARK    1  A    between atoms: C_1  and  N_2
REMARK    2  A    between atoms: C_6  and  C_7
REMARK    3  A    between atoms: C_13  and  C_14
REMARK    4  A    between atoms: C_16  and  C_17
REMARK                            x       y       z     vdW  Elec       q    Type
REMARK                         _______ _______ _______ _____ _____    ______ ____
ROOT
ATOM      1  C   UNL     1      -4.971  12.892  23.372  0.00  0.00    +0.000 C 
ATOM      2  O   UNL     1      -5.254  12.032  24.209  0.00  0.00    +0.000 OA
ATOM      3  N   UNL     1      -5.878  13.222  22.345  0.00  0.00    +0.000 N 
ATOM      4  C   UNL     1      -7.193  12.570  22.347  0.00  0.00    +0.000 C 
ATOM      5  C   UNL     1      -7.614  12.112  20.947  0.00  0.00    +0.000 C 
ATOM      6  C   UNL     1      -7.453  13.215  19.898  0.00  0.00    +0.000 C 
ATOM      7  C   UNL     1      -6.044  13.820  19.931  0.00  0.00    +0.000 C 
ATOM      8  C   UNL     1      -5.754  14.307  21.366  0.00  0.00    +0.000 C 
ENDROOT
BRANCH   1  14
ATOM      9  C   UNL     1      -1.494  17.727  24.969  0.00  0.00    +0.000 C 
ATOM     10  N   UNL     1      -2.544  16.774  24.685  0.00  0.00    +0.000 N 
ATOM     11  C   UNL     1      -3.870  16.960  24.956  0.00  0.00    +0.000 A 
ATOM     12  C   UNL     1      -4.537  15.816  24.577  0.00  0.00    +0.000 A 
ATOM     13  C   UNL     1      -3.583  14.890  24.052  0.00  0.00    +0.000 A 
ATOM     14  C   UNL     1      -3.649  13.577  23.517  0.00  0.00    +0.000 A 
ATOM     15  C   UNL     1      -2.429  12.945  23.221  0.00  0.00    +0.000 A 
ATOM     16  C   UNL     1      -1.206  13.599  23.297  0.00  0.00    +0.000 A 
ATOM     17  C   UNL     1      -1.140  14.910  23.739  0.00  0.00    +0.000 A 
ATOM     18  C   UNL     1      -2.334  15.524  24.143  0.00  0.00    +0.000 A 
ENDBRANCH   1  14
BRANCH   7  19
ATOM     19  C   UNL     1      -5.026  12.851  19.409  0.00  0.00    +0.000 A 
ATOM     20  N   UNL     1      -3.841  12.525  19.869  0.00  0.00    +0.000 NA
ATOM     21  C   UNL     1      -3.357  11.649  18.924  0.00  0.00    +0.000 A 
ATOM     22  N   UNL     1      -4.240  11.390  17.944  0.00  0.00    +0.000 NA
ATOM     23  O   UNL     1      -5.341  12.185  18.261  0.00  0.00    +0.000 OA
BRANCH  21  24
ATOM     24  C   UNL     1      -1.989  11.134  18.969  0.00  0.00    +0.000 A 
ATOM     25  C   UNL     1      -1.145  11.438  20.051  0.00  0.00    +0.000 A 
ATOM     26  C   UNL     1       0.181  10.992  20.076  0.00  0.00    +0.000 A 
ATOM     27  C   UNL     1       0.679  10.229  19.024  0.00  0.00    +0.000 A 
ATOM     28  C   UNL     1      -0.147   9.910  17.948  0.00  0.00    +0.000 A 
ATOM     29  C   UNL     1      -1.471  10.359  17.918  0.00  0.00    +0.000 A 
ENDBRANCH  21  24
ENDBRANCH   7  19
TORSDOF 3
ENDMDL
MODEL 8
REMARK VINA RESULT:      -7.8      8.108     11.062
REMARK  Name = 
REMARK  4 active torsions:
REMARK  status: ('A' for Active; 'I' for Inactive)
REMARK    1  A    between atoms: C_1  and  N_2
REMARK    2  A    between atoms: C_6  and  C_7
REMARK    3  A    between atoms: C_13  and  C_14
REMARK    4  A    between atoms: C_16  and  C_17
REMARK                            x       y       z     vdW  Elec       q    Type
REMARK                         _______ _______ _______ _____ _____    ______ ____
ROOT
ATOM      1  C   UNL     1      -6.401  12.766  23.173  0.00  0.00    +0.000 C 
ATOM      2  O   UNL     1      -6.568  11.881  24.014  0.00  0.00    +0.000 OA
ATOM      3  N   UNL     1      -6.959  12.648  21.884  0.00  0.00    +0.000 N 
ATOM      4  C   UNL     1      -7.804  11.482  21.600  0.00  0.00    +0.000 C 
ATOM      5  C   UNL     1      -7.500  10.866  20.230  0.00  0.00    +0.000 C 
ATOM      6  C   UNL     1      -7.466  11.913  19.114  0.00  0.00    +0.000 C 
ATOM      7  C   UNL     1      -6.534  13.079  19.466  0.00  0.00    +0.000 C 
ATOM      8  C   UNL     1      -6.972  13.663  20.825  0.00  0.00    +0.000 C 
ENDROOT
BRANCH   1  14
ATOM      9  C   UNL     1      -1.085  15.599  24.490  0.00  0.00    +0.000 C 
ATOM     10  N   UNL     1      -2.150  14.688  24.132  0.00  0.00    +0.000 N 
ATOM     11  C   UNL     1      -1.977  13.400  23.715  0.00  0.00    +0.000 A 
ATOM     12  C   UNL     1      -3.221  12.881  23.434  0.00  0.00    +0.000 A 
ATOM     13  C   UNL     1      -4.199  13.892  23.689  0.00  0.00    +0.000 A 
ATOM     14  C   UNL     1      -5.613  13.967  23.592  0.00  0.00    +0.000 A 
ATOM     15  C   UNL     1      -6.204  15.221  23.821  0.00  0.00    +0.000 A 
ATOM     16  C   UNL     1      -5.484  16.321  24.269  0.00  0.00    +0.000 A 
ATOM     17  C   UNL     1      -4.113  16.233  24.448  0.00  0.00    +0.000 A 
ATOM     18  C   UNL     1      -3.488  15.022  24.121  0.00  0.00    +0.000 A 
ENDBRANCH   1  14
BRANCH   7  19
ATOM     19  C   UNL     1      -5.097  12.653  19.432  0.00  0.00    +0.000 A 
ATOM     20  N   UNL     1      -4.091  12.974  20.211  0.00  0.00    +0.000 NA
ATOM     21  C   UNL     1      -3.017  12.334  19.634  0.00  0.00    +0.000 A 
ATOM     22  N   UNL     1      -3.359  11.588  18.569  0.00  0.00    +0.000 NA
ATOM     23  O   UNL     1      -4.731  11.800  18.432  0.00  0.00    +0.000 OA
BRANCH  21  24
ATOM     24  C   UNL     1      -1.648  12.531  20.107  0.00  0.00    +0.000 A 
ATOM     25  C   UNL     1      -1.011  13.776  19.959  0.00  0.00    +0.000 A 
ATOM     26  C   UNL     1       0.316  13.956  20.362  0.00  0.00    +0.000 A 
ATOM     27  C   UNL     1       1.023  12.899  20.927  0.00  0.00    +0.000 A 
ATOM     28  C   UNL     1       0.404  11.660  21.090  0.00  0.00    +0.000 A 
ATOM     29  C   UNL     1      -0.921  11.476  20.683  0.00  0.00    +0.000 A 
ENDBRANCH  21  24
ENDBRANCH   7  19
TORSDOF 3
ENDMDL
MODEL 9
REMARK VINA RESULT:      -7.7      9.030     11.508
REMARK  Name = 
REMARK  4 active torsions:
REMARK  status: ('A' for Active; 'I' for Inactive)
REMARK    1  A    between atoms: C_1  and  N_2
REMARK    2  A    between atoms: C_6  and  C_7
REMARK    3  A    between atoms: C_13  and  C_14
REMARK    4  A    between atoms: C_16  and  C_17
REMARK                            x       y       z     vdW  Elec       q    Type
REMARK                         _______ _______ _______ _____ _____    ______ ____
ROOT
ATOM      1  C   UNL     1      -7.305  12.317  22.639  0.00  0.00    +0.000 C 
ATOM      2  O   UNL     1      -7.418  11.500  23.556  0.00  0.00    +0.000 OA
ATOM      3  N   UNL     1      -7.491  11.923  21.298  0.00  0.00    +0.000 N 
ATOM      4  C   UNL     1      -7.893  10.537  21.033  0.00  0.00    +0.000 C 
ATOM      5  C   UNL     1      -7.119   9.924  19.862  0.00  0.00    +0.000 C 
ATOM      6  C   UNL     1      -7.111  10.829  18.628  0.00  0.00    +0.000 C 
ATOM      7  C   UNL     1      -6.643  12.248  18.977  0.00  0.00    +0.000 C 
ATOM      8  C   UNL     1      -7.531  12.791  20.115  0.00  0.00    +0.000 C 
ENDROOT
BRANCH   1  14
ATOM      9  C   UNL     1      -3.491  16.678  24.748  0.00  0.00    +0.000 C 
ATOM     10  N   UNL     1      -4.144  15.467  24.301  0.00  0.00    +0.000 N 
ATOM     11  C   UNL     1      -3.545  14.245  24.191  0.00  0.00    +0.000 A 
ATOM     12  C   UNL     1      -4.481  13.365  23.696  0.00  0.00    +0.000 A 
ATOM     13  C   UNL     1      -5.705  14.075  23.494  0.00  0.00    +0.000 A 
ATOM     14  C   UNL     1      -6.998  13.731  23.018  0.00  0.00    +0.000 A 
ATOM     15  C   UNL     1      -7.916  14.781  22.847  0.00  0.00    +0.000 A 
ATOM     16  C   UNL     1      -7.654  16.083  23.255  0.00  0.00    +0.000 A 
ATOM     17  C   UNL     1      -6.424  16.411  23.799  0.00  0.00    +0.000 A 
ATOM     18  C   UNL     1      -5.454  15.401  23.878  0.00  0.00    +0.000 A 
ENDBRANCH   1  14
BRANCH   7  19
ATOM     19  C   UNL     1      -5.178  12.272  19.295  0.00  0.00    +0.000 A 
ATOM     20  N   UNL     1      -4.522  12.875  20.259  0.00  0.00    +0.000 NA
ATOM     21  C   UNL     1      -3.205  12.590  19.981  0.00  0.00    +0.000 A 
ATOM     22  N   UNL     1      -3.053  11.781  18.918  0.00  0.00    +0.000 NA
ATOM     23  O   UNL     1      -4.354  11.573  18.462  0.00  0.00    +0.000 OA
BRANCH  21  24
ATOM     24  C   UNL     1      -2.103  13.185  20.738  0.00  0.00    +0.000 A 
ATOM     25  C   UNL     1      -1.216  12.375  21.466  0.00  0.00    +0.000 A 
ATOM     26  C   UNL     1      -0.192  12.940  22.234  0.00  0.00    +0.000 A 
ATOM     27  C   UNL     1      -0.035  14.323  22.277  0.00  0.00    +0.000 A 
ATOM     28  C   UNL     1      -0.902  15.141  21.552  0.00  0.00    +0.000 A 
ATOM     29  C   UNL     1      -1.928  14.578  20.789  0.00  0.00    +0.000 A 
ENDBRANCH  21  24
ENDBRANCH   7  19
TORSDOF 3
ENDMDL
