MODEL 1
REMARK VINA RESULT:      -6.9      0.000      0.000
REMARK  Name = 
REMARK  10 active torsions:
REMARK  status: ('A' for Active; 'I' for Inactive)
REMARK    1  A    between atoms: C_1  and  N_2
REMARK    2  A    between atoms: N_2  and  C_3
REMARK    3  A    between atoms: N_2  and  C_4
REMARK    4  A    between atoms: C_4  and  C_5
REMARK    5  A    between atoms: C_5  and  C_6
REMARK    6  A    between atoms: C_6  and  N_7
REMARK    7  A    between atoms: N_10  and  C_11
REMARK    8  A    between atoms: C_11  and  C_12
REMARK    9  A    between atoms: C_15  and  C_16
REMARK   10  A    between atoms: C_19  and  C_20
REMARK                            x       y       z     vdW  Elec       q    Type
REMARK                         _______ _______ _______ _____ _____    ______ ____
ROOT
ATOM      1  C   UNL     1      -1.539  12.094  22.313  0.00  0.00    +0.000 A 
ATOM      2  C   UNL     1      -0.938  12.213  21.050  0.00  0.00    +0.000 A 
ATOM      3  C   UNL     1      -0.136  11.184  20.538  0.00  0.00    +0.000 A 
ATOM      4  C   UNL     1       0.080  10.020  21.282  0.00  0.00    +0.000 A 
ATOM      5  C   UNL     1      -0.516   9.916  22.551  0.00  0.00    +0.000 A 
ATOM      6  C   UNL     1      -1.313  10.937  23.063  0.00  0.00    +0.000 A 
ENDROOT
BRANCH   4   7
ATOM      7  C   UNL     1       0.926   8.911  20.822  0.00  0.00    +0.000 A 
ATOM      8  C   UNL     1       1.007   7.655  21.394  0.00  0.00    +0.000 A 
ATOM      9  C   UNL     1       1.795   6.766  20.632  0.00  0.00    +0.000 A 
ATOM     10  C   UNL     1       2.333   7.356  19.507  0.00  0.00    +0.000 A 
ATOM     11  S   UNL     1       1.905   9.006  19.408  0.00  0.00    +0.000 S 
BRANCH  10  12
ATOM     12  C   UNL     1       3.137   6.630  18.568  0.00  0.00    +0.000 A 
ATOM     13  N   UNL     1       3.811   7.259  17.633  0.00  0.00    +0.000 NA
ATOM     14  C   UNL     1       4.377   6.292  16.860  0.00  0.00    +0.000 A 
ATOM     15  C   UNL     1       5.160   6.439  15.710  0.00  0.00    +0.000 A 
ATOM     16  C   UNL     1       5.598   5.289  15.053  0.00  0.00    +0.000 A 
ATOM     17  C   UNL     1       5.271   4.023  15.546  0.00  0.00    +0.000 A 
ATOM     18  C   UNL     1       4.505   3.858  16.713  0.00  0.00    +0.000 A 
ATOM     19  C   UNL     1       4.068   5.025  17.345  0.00  0.00    +0.000 A 
ATOM     20  N   UNL     1       3.302   5.271  18.465  0.00  0.00    +0.000 N 
ATOM     21  H   UNL     1       2.893   4.577  19.075  0.00  0.00    +0.000 HD
ENDBRANCH  10  12
ENDBRANCH   4   7
BRANCH   1  22
ATOM     22  C   UNL     1      -2.437  13.181  22.863  0.00  0.00    +0.000 C 
BRANCH  22  26
ATOM     23  N   UNL     1      -5.346  14.962  21.294  0.00  0.00    +0.000 NA
ATOM     24  C   UNL     1      -4.889  15.144  22.690  0.00  0.00    +0.000 C 
ATOM     25  C   UNL     1      -4.716  13.842  23.509  0.00  0.00    +0.000 C 
ATOM     26  N   UNL     1      -3.865  12.815  22.868  0.00  0.00    +0.000 NA
ATOM     27  C   UNL     1      -4.349  12.609  21.486  0.00  0.00    +0.000 C 
ATOM     28  C   UNL     1      -4.520  13.909  20.657  0.00  0.00    +0.000 C 
BRANCH  23  29
ATOM     29  C   UNL     1      -6.780  14.621  21.189  0.00  0.00    +0.000 C 
BRANCH  29  30
ATOM     30  C   UNL     1      -7.437  15.157  19.907  0.00  0.00    +0.000 C 
BRANCH  30  31
ATOM     31  C   UNL     1      -7.726  14.052  18.879  0.00  0.00    +0.000 C 
BRANCH  31  33
ATOM     32  C   UNL     1      -6.675  12.611  17.210  0.00  0.00    +0.000 C 
ATOM     33  N   UNL     1      -6.733  13.951  17.795  0.00  0.00    +0.000 NA
ATOM     34  C   UNL     1      -7.026  14.936  16.750  0.00  0.00    +0.000 C 
ENDBRANCH  31  33
ENDBRANCH  30  31
ENDBRANCH  29  30
ENDBRANCH  23  29
ENDBRANCH  22  26
ENDBRANCH   1  22
TORSDOF 8
ENDMDL
MODEL 2
REMARK VINA RESULT:      -6.9      2.297     12.532
REMARK  Name = 
REMARK  10 active torsions:
REMARK  status: ('A' for Active; 'I' for Inactive)
REMARK    1  A    between atoms: C_1  and  N_2
REMARK    2  A    between atoms: N_2  and  C_3
REMARK    3  A    between atoms: N_2  and  C_4
REMARK    4  A    between atoms: C_4  and  C_5
REMARK    5  A    between atoms: C_5  and  C_6
REMARK    6  A    between atoms: C_6  and  N_7
REMARK    7  A    between atoms: N_10  and  C_11
REMARK    8  A    between atoms: C_11  and  C_12
REMARK    9  A    between atoms: C_15  and  C_16
REMARK   10  A    between atoms: C_19  and  C_20
REMARK                            x       y       z     vdW  Elec       q    Type
REMARK                         _______ _______ _______ _____ _____    ______ ____
ROOT
ATOM      1  C   UNL     1       2.418   7.834  19.065  0.00  0.00    +0.000 A 
ATOM      2  C   UNL     1       2.115   8.652  17.967  0.00  0.00    +0.000 A 
ATOM      3  C   UNL     1       1.138   9.653  18.065  0.00  0.00    +0.000 A 
ATOM      4  C   UNL     1       0.448   9.849  19.265  0.00  0.00    +0.000 A 
ATOM      5  C   UNL     1       0.751   9.016  20.356  0.00  0.00    +0.000 A 
ATOM      6  C   UNL     1       1.720   8.021  20.261  0.00  0.00    +0.000 A 
ENDROOT
BRANCH   4   7
ATOM      7  C   UNL     1      -0.604  10.860  19.438  0.00  0.00    +0.000 A 
ATOM      8  C   UNL     1      -1.713  11.028  18.632  0.00  0.00    +0.000 A 
ATOM      9  C   UNL     1      -2.613  11.987  19.146  0.00  0.00    +0.000 A 
ATOM     10  C   UNL     1      -2.169  12.563  20.317  0.00  0.00    +0.000 A 
ATOM     11  S   UNL     1      -0.635  11.960  20.764  0.00  0.00    +0.000 S 
BRANCH  10  12
ATOM     12  C   UNL     1      -2.939  13.538  21.035  0.00  0.00    +0.000 A 
ATOM     13  N   UNL     1      -2.870  13.618  22.344  0.00  0.00    +0.000 NA
ATOM     14  C   UNL     1      -3.783  14.557  22.713  0.00  0.00    +0.000 A 
ATOM     15  C   UNL     1      -4.126  14.983  24.001  0.00  0.00    +0.000 A 
ATOM     16  C   UNL     1      -5.135  15.937  24.139  0.00  0.00    +0.000 A 
ATOM     17  C   UNL     1      -5.773  16.461  23.011  0.00  0.00    +0.000 A 
ATOM     18  C   UNL     1      -5.424  16.060  21.710  0.00  0.00    +0.000 A 
ATOM     19  C   UNL     1      -4.420  15.094  21.601  0.00  0.00    +0.000 A 
ATOM     20  N   UNL     1      -3.833  14.450  20.532  0.00  0.00    +0.000 N 
ATOM     21  H   UNL     1      -4.052  14.587  19.555  0.00  0.00    +0.000 HD
ENDBRANCH  10  12
ENDBRANCH   4   7
BRANCH   1  22
ATOM     22  C   UNL     1       3.496   6.775  18.984  0.00  0.00    +0.000 C 
BRANCH  22  26
ATOM     23  N   UNL     1       6.131   4.548  17.503  0.00  0.00    +0.000 NA
ATOM     24  C   UNL     1       5.951   5.982  17.184  0.00  0.00    +0.000 C 
ATOM     25  C   UNL     1       4.517   6.399  16.779  0.00  0.00    +0.000 C 
ATOM     26  N   UNL     1       3.461   5.995  17.734  0.00  0.00    +0.000 NA
ATOM     27  C   UNL     1       3.622   4.554  18.021  0.00  0.00    +0.000 C 
ATOM     28  C   UNL     1       5.055   4.129  18.433  0.00  0.00    +0.000 C 
BRANCH  23  29
ATOM     29  C   UNL     1       6.141   3.680  16.307  0.00  0.00    +0.000 C 
BRANCH  29  30
ATOM     30  C   UNL     1       6.603   4.409  15.035  0.00  0.00    +0.000 C 
BRANCH  30  31
ATOM     31  C   UNL     1       5.618   4.250  13.866  0.00  0.00    +0.000 C 
BRANCH  31  33
ATOM     32  C   UNL     1       5.073   3.053  11.807  0.00  0.00    +0.000 C 
ATOM     33  N   UNL     1       6.129   3.440  12.744  0.00  0.00    +0.000 NA
ATOM     34  C   UNL     1       7.180   4.172  12.033  0.00  0.00    +0.000 C 
ENDBRANCH  31  33
ENDBRANCH  30  31
ENDBRANCH  29  30
ENDBRANCH  23  29
ENDBRANCH  22  26
ENDBRANCH   1  22
TORSDOF 8
ENDMDL
MODEL 3
REMARK VINA RESULT:      -6.8      2.679     12.567
REMARK  Name = 
REMARK  10 active torsions:
REMARK  status: ('A' for Active; 'I' for Inactive)
REMARK    1  A    between atoms: C_1  and  N_2
REMARK    2  A    between atoms: N_2  and  C_3
REMARK    3  A    between atoms: N_2  and  C_4
REMARK    4  A    between atoms: C_4  and  C_5
REMARK    5  A    between atoms: C_5  and  C_6
REMARK    6  A    between atoms: C_6  and  N_7
REMARK    7  A    between atoms: N_10  and  C_11
REMARK    8  A    between atoms: C_11  and  C_12
REMARK    9  A    between atoms: C_15  and  C_16
REMARK   10  A    between atoms: C_19  and  C_20
REMARK                            x       y       z     vdW  Elec       q    Type
REMARK                         _______ _______ _______ _____ _____    ______ ____
ROOT
ATOM      1  C   UNL     1       2.396   7.343  19.076  0.00  0.00    +0.000 A 
ATOM      2  C   UNL     1       2.049   8.284  18.095  0.00  0.00    +0.000 A 
ATOM      3  C   UNL     1       1.237   9.382  18.410  0.00  0.00    +0.000 A 
ATOM      4  C   UNL     1       0.757   9.554  19.712  0.00  0.00    +0.000 A 
ATOM      5  C   UNL     1       1.101   8.599  20.685  0.00  0.00    +0.000 A 
ATOM      6  C   UNL     1       1.907   7.507  20.374  0.00  0.00    +0.000 A 
ENDROOT
BRANCH   4   7
ATOM      7  C   UNL     1      -0.117  10.665  20.112  0.00  0.00    +0.000 A 
ATOM      8  C   UNL     1      -1.145  11.204  19.362  0.00  0.00    +0.000 A 
ATOM      9  C   UNL     1      -1.893  12.160  20.082  0.00  0.00    +0.000 A 
ATOM     10  C   UNL     1      -1.413  12.365  21.359  0.00  0.00    +0.000 A 
ATOM     11  S   UNL     1      -0.025  11.417  21.659  0.00  0.00    +0.000 S 
BRANCH  10  12
ATOM     12  C   UNL     1      -2.042  13.266  22.281  0.00  0.00    +0.000 A 
ATOM     13  N   UNL     1      -3.258  13.710  22.063  0.00  0.00    +0.000 NA
ATOM     14  C   UNL     1      -3.515  14.608  23.053  0.00  0.00    +0.000 A 
ATOM     15  C   UNL     1      -4.658  15.391  23.247  0.00  0.00    +0.000 A 
ATOM     16  C   UNL     1      -4.678  16.284  24.319  0.00  0.00    +0.000 A 
ATOM     17  C   UNL     1      -3.584  16.377  25.183  0.00  0.00    +0.000 A 
ATOM     18  C   UNL     1      -2.437  15.581  25.015  0.00  0.00    +0.000 A 
ATOM     19  C   UNL     1      -2.438  14.706  23.927  0.00  0.00    +0.000 A 
ATOM     20  N   UNL     1      -1.519  13.805  23.431  0.00  0.00    +0.000 N 
ATOM     21  H   UNL     1      -0.605  13.609  23.813  0.00  0.00    +0.000 HD
ENDBRANCH  10  12
ENDBRANCH   4   7
BRANCH   1  22
ATOM     22  C   UNL     1       3.303   6.173  18.759  0.00  0.00    +0.000 C 
BRANCH  22  26
ATOM     23  N   UNL     1       5.779   4.189  16.751  0.00  0.00    +0.000 NA
ATOM     24  C   UNL     1       5.773   4.298  18.227  0.00  0.00    +0.000 C 
ATOM     25  C   UNL     1       5.723   5.740  18.788  0.00  0.00    +0.000 C 
ATOM     26  N   UNL     1       4.626   6.576  18.252  0.00  0.00    +0.000 NA
ATOM     27  C   UNL     1       4.660   6.495  16.776  0.00  0.00    +0.000 C 
ATOM     28  C   UNL     1       4.703   5.053  16.206  0.00  0.00    +0.000 C 
BRANCH  23  29
ATOM     29  C   UNL     1       7.078   4.545  16.145  0.00  0.00    +0.000 C 
BRANCH  29  30
ATOM     30  C   UNL     1       7.000   4.749  14.623  0.00  0.00    +0.000 C 
BRANCH  30  31
ATOM     31  C   UNL     1       6.163   3.669  13.920  0.00  0.00    +0.000 C 
BRANCH  31  33
ATOM     32  C   UNL     1       5.336   3.230  11.663  0.00  0.00    +0.000 C 
ATOM     33  N   UNL     1       6.513   3.451  12.504  0.00  0.00    +0.000 NA
ATOM     34  C   UNL     1       7.280   4.591  11.994  0.00  0.00    +0.000 C 
ENDBRANCH  31  33
ENDBRANCH  30  31
ENDBRANCH  29  30
ENDBRANCH  23  29
ENDBRANCH  22  26
ENDBRANCH   1  22
TORSDOF 8
ENDMDL
MODEL 4
REMARK VINA RESULT:      -6.8      0.972      1.673
REMARK  Name = 
REMARK  10 active torsions:
REMARK  status: ('A' for Active; 'I' for Inactive)
REMARK    1  A    between atoms: C_1  and  N_2
REMARK    2  A    between atoms: N_2  and  C_3
REMARK    3  A    between atoms: N_2  and  C_4
REMARK    4  A    between atoms: C_4  and  C_5
REMARK    5  A    between atoms: C_5  and  C_6
REMARK    6  A    between atoms: C_6  and  N_7
REMARK    7  A    between atoms: N_10  and  C_11
REMARK    8  A    between atoms: C_11  and  C_12
REMARK    9  A    between atoms: C_15  and  C_16
REMARK   10  A    between atoms: C_19  and  C_20
REMARK                            x       y       z     vdW  Elec       q    Type
REMARK                         _______ _______ _______ _____ _____    ______ ____
ROOT
ATOM      1  C   UNL     1      -1.146  11.619  22.361  0.00  0.00    +0.000 A 
ATOM      2  C   UNL     1      -1.058  10.428  23.097  0.00  0.00    +0.000 A 
ATOM      3  C   UNL     1      -0.290   9.352  22.631  0.00  0.00    +0.000 A 
ATOM      4  C   UNL     1       0.400   9.450  21.419  0.00  0.00    +0.000 A 
ATOM      5  C   UNL     1       0.296  10.643  20.684  0.00  0.00    +0.000 A 
ATOM      6  C   UNL     1      -0.467  11.713  21.144  0.00  0.00    +0.000 A 
ENDROOT
BRANCH   4   7
ATOM      7  C   UNL     1       1.205   8.358  20.856  0.00  0.00    +0.000 A 
ATOM      8  C   UNL     1       1.193   7.039  21.268  0.00  0.00    +0.000 A 
ATOM      9  C   UNL     1       1.964   6.205  20.431  0.00  0.00    +0.000 A 
ATOM     10  C   UNL     1       2.582   6.896  19.409  0.00  0.00    +0.000 A 
ATOM     11  S   UNL     1       2.249   8.568  19.501  0.00  0.00    +0.000 S 
BRANCH  10  12
ATOM     12  C   UNL     1       3.386   6.244  18.417  0.00  0.00    +0.000 A 
ATOM     13  N   UNL     1       4.043   6.943  17.520  0.00  0.00    +0.000 NA
ATOM     14  C   UNL     1       4.614   6.036  16.679  0.00  0.00    +0.000 A 
ATOM     15  C   UNL     1       5.383   6.270  15.535  0.00  0.00    +0.000 A 
ATOM     16  C   UNL     1       5.829   5.172  14.798  0.00  0.00    +0.000 A 
ATOM     17  C   UNL     1       5.522   3.872  15.209  0.00  0.00    +0.000 A 
ATOM     18  C   UNL     1       4.769   3.620  16.369  0.00  0.00    +0.000 A 
ATOM     19  C   UNL     1       4.325   4.737  17.081  0.00  0.00    +0.000 A 
ATOM     20  N   UNL     1       3.566   4.897  18.221  0.00  0.00    +0.000 N 
ATOM     21  H   UNL     1       3.172   4.160  18.788  0.00  0.00    +0.000 HD
ENDBRANCH  10  12
ENDBRANCH   4   7
BRANCH   1  22
ATOM     22  C   UNL     1      -1.940  12.803  22.870  0.00  0.00    +0.000 C 
BRANCH  22  26
ATOM     23  N   UNL     1      -5.501  13.990  22.774  0.00  0.00    +0.000 NA
ATOM     24  C   UNL     1      -5.019  12.699  22.234  0.00  0.00    +0.000 C 
ATOM     25  C   UNL     1      -3.810  12.789  21.273  0.00  0.00    +0.000 C 
ATOM     26  N   UNL     1      -2.649  13.535  21.806  0.00  0.00    +0.000 NA
ATOM     27  C   UNL     1      -3.129  14.840  22.310  0.00  0.00    +0.000 C 
ATOM     28  C   UNL     1      -4.337  14.758  23.279  0.00  0.00    +0.000 C 
BRANCH  23  29
ATOM     29  C   UNL     1      -6.254  14.791  21.787  0.00  0.00    +0.000 C 
BRANCH  29  30
ATOM     30  C   UNL     1      -7.375  13.999  21.095  0.00  0.00    +0.000 C 
BRANCH  30  31
ATOM     31  C   UNL     1      -7.245  13.998  19.564  0.00  0.00    +0.000 C 
BRANCH  31  33
ATOM     32  C   UNL     1      -7.105  12.538  17.609  0.00  0.00    +0.000 C 
ATOM     33  N   UNL     1      -7.734  12.770  18.910  0.00  0.00    +0.000 NA
ATOM     34  C   UNL     1      -7.510  11.613  19.782  0.00  0.00    +0.000 C 
ENDBRANCH  31  33
ENDBRANCH  30  31
ENDBRANCH  29  30
ENDBRANCH  23  29
ENDBRANCH  22  26
ENDBRANCH   1  22
TORSDOF 8
ENDMDL
MODEL 5
REMARK VINA RESULT:      -6.8      6.821     11.830
REMARK  Name = 
REMARK  10 active torsions:
REMARK  status: ('A' for Active; 'I' for Inactive)
REMARK    1  A    between atoms: C_1  and  N_2
REMARK    2  A    between atoms: N_2  and  C_3
REMARK    3  A    between atoms: N_2  and  C_4
REMARK    4  A    between atoms: C_4  and  C_5
REMARK    5  A    between atoms: C_5  and  C_6
REMARK    6  A    between atoms: C_6  and  N_7
REMARK    7  A    between atoms: N_10  and  C_11
REMARK    8  A    between atoms: C_11  and  C_12
REMARK    9  A    between atoms: C_15  and  C_16
REMARK   10  A    between atoms: C_19  and  C_20
REMARK                            x       y       z     vdW  Elec       q    Type
REMARK                         _______ _______ _______ _____ _____    ______ ____
ROOT
ATOM      1  C   UNL     1       7.167   6.073  17.675  0.00  0.00    +0.000 A 
ATOM      2  C   UNL     1       7.988   6.220  18.804  0.00  0.00    +0.000 A 
ATOM      3  C   UNL     1       8.534   7.468  19.136  0.00  0.00    +0.000 A 
ATOM      4  C   UNL     1       8.269   8.588  18.342  0.00  0.00    +0.000 A 
ATOM      5  C   UNL     1       7.455   8.428  17.208  0.00  0.00    +0.000 A 
ATOM      6  C   UNL     1       6.913   7.190  16.875  0.00  0.00    +0.000 A 
ENDROOT
BRANCH   4   7
ATOM      7  C   UNL     1       8.824   9.921  18.613  0.00  0.00    +0.000 A 
ATOM      8  C   UNL     1       9.687  10.251  19.640  0.00  0.00    +0.000 A 
ATOM      9  C   UNL     1      10.157  11.579  19.543  0.00  0.00    +0.000 A 
ATOM     10  C   UNL     1       9.626  12.258  18.466  0.00  0.00    +0.000 A 
ATOM     11  S   UNL     1       8.523  11.282  17.601  0.00  0.00    +0.000 S 
BRANCH  10  12
ATOM     12  C   UNL     1       9.991  13.609  18.153  0.00  0.00    +0.000 A 
ATOM     13  N   UNL     1      11.247  13.991  18.192  0.00  0.00    +0.000 NA
ATOM     14  C   UNL     1      11.241  15.330  17.948  0.00  0.00    +0.000 A 
ATOM     15  C   UNL     1      12.322  16.218  17.921  0.00  0.00    +0.000 A 
ATOM     16  C   UNL     1      12.066  17.571  17.690  0.00  0.00    +0.000 A 
ATOM     17  C   UNL     1      10.759  18.018  17.478  0.00  0.00    +0.000 A 
ATOM     18  C   UNL     1       9.665  17.135  17.479  0.00  0.00    +0.000 A 
ATOM     19  C   UNL     1       9.948  15.789  17.725  0.00  0.00    +0.000 A 
ATOM     20  N   UNL     1       9.167  14.657  17.825  0.00  0.00    +0.000 N 
ATOM     21  H   UNL     1       8.163  14.610  17.723  0.00  0.00    +0.000 HD
ENDBRANCH  10  12
ENDBRANCH   4   7
BRANCH   1  22
ATOM     22  C   UNL     1       6.540   4.741  17.325  0.00  0.00    +0.000 C 
BRANCH  22  26
ATOM     23  N   UNL     1       3.816   3.972  19.791  0.00  0.00    +0.000 NA
ATOM     24  C   UNL     1       4.377   3.010  18.816  0.00  0.00    +0.000 C 
ATOM     25  C   UNL     1       4.418   3.499  17.348  0.00  0.00    +0.000 C 
ATOM     26  N   UNL     1       5.079   4.808  17.149  0.00  0.00    +0.000 NA
ATOM     27  C   UNL     1       4.488   5.774  18.099  0.00  0.00    +0.000 C 
ATOM     28  C   UNL     1       4.449   5.294  19.574  0.00  0.00    +0.000 C 
BRANCH  23  29
ATOM     29  C   UNL     1       2.345   4.089  19.715  0.00  0.00    +0.000 C 
BRANCH  29  30
ATOM     30  C   UNL     1       1.741   4.893  20.878  0.00  0.00    +0.000 C 
BRANCH  30  31
ATOM     31  C   UNL     1       1.007   6.159  20.408  0.00  0.00    +0.000 C 
BRANCH  31  33
ATOM     32  C   UNL     1       2.005   8.044  19.218  0.00  0.00    +0.000 C 
ATOM     33  N   UNL     1       1.797   7.399  20.515  0.00  0.00    +0.000 NA
ATOM     34  C   UNL     1       1.145   8.333  21.435  0.00  0.00    +0.000 C 
ENDBRANCH  31  33
ENDBRANCH  30  31
ENDBRANCH  29  30
ENDBRANCH  23  29
ENDBRANCH  22  26
ENDBRANCH   1  22
TORSDOF 8
ENDMDL
MODEL 6
REMARK VINA RESULT:      -6.6      2.240     12.012
REMARK  Name = 
REMARK  10 active torsions:
REMARK  status: ('A' for Active; 'I' for Inactive)
REMARK    1  A    between atoms: C_1  and  N_2
REMARK    2  A    between atoms: N_2  and  C_3
REMARK    3  A    between atoms: N_2  and  C_4
REMARK    4  A    between atoms: C_4  and  C_5
REMARK    5  A    between atoms: C_5  and  C_6
REMARK    6  A    between atoms: C_6  and  N_7
REMARK    7  A    between atoms: N_10  and  C_11
REMARK    8  A    between atoms: C_11  and  C_12
REMARK    9  A    between atoms: C_15  and  C_16
REMARK   10  A    between atoms: C_19  and  C_20
REMARK                            x       y       z     vdW  Elec       q    Type
REMARK                         _______ _______ _______ _____ _____    ______ ____
ROOT
ATOM      1  C   UNL     1       1.989   8.583  18.576  0.00  0.00    +0.000 A 
ATOM      2  C   UNL     1       1.385   9.668  17.923  0.00  0.00    +0.000 A 
ATOM      3  C   UNL     1       0.496  10.511  18.605  0.00  0.00    +0.000 A 
ATOM      4  C   UNL     1       0.196  10.279  19.951  0.00  0.00    +0.000 A 
ATOM      5  C   UNL     1       0.797   9.183  20.592  0.00  0.00    +0.000 A 
ATOM      6  C   UNL     1       1.679   8.343  19.917  0.00  0.00    +0.000 A 
ENDROOT
BRANCH   4   7
ATOM      7  C   UNL     1      -0.742  11.104  20.723  0.00  0.00    +0.000 A 
ATOM      8  C   UNL     1      -0.765  11.244  22.098  0.00  0.00    +0.000 A 
ATOM      9  C   UNL     1      -1.688  12.222  22.526  0.00  0.00    +0.000 A 
ATOM     10  C   UNL     1      -2.383  12.795  21.481  0.00  0.00    +0.000 A 
ATOM     11  S   UNL     1      -1.933  12.107  19.984  0.00  0.00    +0.000 S 
BRANCH  10  12
ATOM     12  C   UNL     1      -3.347  13.838  21.680  0.00  0.00    +0.000 A 
ATOM     13  N   UNL     1      -3.950  13.984  22.837  0.00  0.00    +0.000 NA
ATOM     14  C   UNL     1      -4.862  14.980  22.666  0.00  0.00    +0.000 A 
ATOM     15  C   UNL     1      -5.785  15.487  23.586  0.00  0.00    +0.000 A 
ATOM     16  C   UNL     1      -6.659  16.491  23.166  0.00  0.00    +0.000 A 
ATOM     17  C   UNL     1      -6.597  16.983  21.859  0.00  0.00    +0.000 A 
ATOM     18  C   UNL     1      -5.660  16.499  20.930  0.00  0.00    +0.000 A 
ATOM     19  C   UNL     1      -4.806  15.486  21.372  0.00  0.00    +0.000 A 
ATOM     20  N   UNL     1      -3.798  14.762  20.770  0.00  0.00    +0.000 N 
ATOM     21  H   UNL     1      -3.479  14.857  19.816  0.00  0.00    +0.000 HD
ENDBRANCH  10  12
ENDBRANCH   4   7
BRANCH   1  22
ATOM     22  C   UNL     1       2.979   7.687  17.863  0.00  0.00    +0.000 C 
BRANCH  22  26
ATOM     23  N   UNL     1       3.677   4.125  16.903  0.00  0.00    +0.000 NA
ATOM     24  C   UNL     1       2.400   4.621  17.464  0.00  0.00    +0.000 C 
ATOM     25  C   UNL     1       2.522   5.446  18.768  0.00  0.00    +0.000 C 
ATOM     26  N   UNL     1       3.473   6.578  18.698  0.00  0.00    +0.000 NA
ATOM     27  C   UNL     1       4.759   6.070  18.173  0.00  0.00    +0.000 C 
ATOM     28  C   UNL     1       4.646   5.246  16.863  0.00  0.00    +0.000 C 
BRANCH  23  29
ATOM     29  C   UNL     1       4.242   2.986  17.656  0.00  0.00    +0.000 C 
BRANCH  29  30
ATOM     30  C   UNL     1       3.177   1.983  18.126  0.00  0.00    +0.000 C 
BRANCH  30  31
ATOM     31  C   UNL     1       2.994   1.980  19.652  0.00  0.00    +0.000 C 
BRANCH  31  33
ATOM     32  C   UNL     1       1.321   2.946  21.149  0.00  0.00    +0.000 C 
ATOM     33  N   UNL     1       1.589   1.962  20.099  0.00  0.00    +0.000 NA
ATOM     34  C   UNL     1       0.696   2.197  18.961  0.00  0.00    +0.000 C 
ENDBRANCH  31  33
ENDBRANCH  30  31
ENDBRANCH  29  30
ENDBRANCH  23  29
ENDBRANCH  22  26
ENDBRANCH   1  22
TORSDOF 8
ENDMDL
MODEL 7
REMARK VINA RESULT:      -6.6      2.742     12.485
REMARK  Name = 
REMARK  10 active torsions:
REMARK  status: ('A' for Active; 'I' for Inactive)
REMARK    1  A    between atoms: C_1  and  N_2
REMARK    2  A    between atoms: N_2  and  C_3
REMARK    3  A    between atoms: N_2  and  C_4
REMARK    4  A    between atoms: C_4  and  C_5
REMARK    5  A    between atoms: C_5  and  C_6
REMARK    6  A    between atoms: C_6  and  N_7
REMARK    7  A    between atoms: N_10  and  C_11
REMARK    8  A    between atoms: C_11  and  C_12
REMARK    9  A    between atoms: C_15  and  C_16
REMARK   10  A    between atoms: C_19  and  C_20
REMARK                            x       y       z     vdW  Elec       q    Type
REMARK                         _______ _______ _______ _____ _____    ______ ____
ROOT
ATOM      1  C   UNL     1       2.947   6.499  19.132  0.00  0.00    +0.000 A 
ATOM      2  C   UNL     1       2.580   7.721  18.548  0.00  0.00    +0.000 A 
ATOM      3  C   UNL     1       1.755   8.624  19.232  0.00  0.00    +0.000 A 
ATOM      4  C   UNL     1       1.284   8.319  20.512  0.00  0.00    +0.000 A 
ATOM      5  C   UNL     1       1.647   7.087  21.084  0.00  0.00    +0.000 A 
ATOM      6  C   UNL     1       2.465   6.187  20.406  0.00  0.00    +0.000 A 
ENDROOT
BRANCH   4   7
ATOM      7  C   UNL     1       0.398   9.204  21.280  0.00  0.00    +0.000 A 
ATOM      8  C   UNL     1      -0.094   8.964  22.549  0.00  0.00    +0.000 A 
ATOM      9  C   UNL     1      -0.795  10.071  23.074  0.00  0.00    +0.000 A 
ATOM     10  C   UNL     1      -0.860  11.130  22.192  0.00  0.00    +0.000 A 
ATOM     11  S   UNL     1      -0.098  10.753  20.711  0.00  0.00    +0.000 S 
BRANCH  10  12
ATOM     12  C   UNL     1      -1.493  12.373  22.529  0.00  0.00    +0.000 A 
ATOM     13  N   UNL     1      -2.801  12.458  22.615  0.00  0.00    +0.000 NA
ATOM     14  C   UNL     1      -3.079  13.771  22.845  0.00  0.00    +0.000 A 
ATOM     15  C   UNL     1      -4.327  14.390  22.974  0.00  0.00    +0.000 A 
ATOM     16  C   UNL     1      -4.367  15.772  23.165  0.00  0.00    +0.000 A 
ATOM     17  C   UNL     1      -3.183  16.511  23.239  0.00  0.00    +0.000 A 
ATOM     18  C   UNL     1      -1.921  15.900  23.133  0.00  0.00    +0.000 A 
ATOM     19  C   UNL     1      -1.910  14.518  22.930  0.00  0.00    +0.000 A 
ATOM     20  N   UNL     1      -0.903  13.591  22.761  0.00  0.00    +0.000 N 
ATOM     21  H   UNL     1       0.090  13.776  22.760  0.00  0.00    +0.000 HD
ENDBRANCH  10  12
ENDBRANCH   4   7
BRANCH   1  22
ATOM     22  C   UNL     1       3.867   5.530  18.420  0.00  0.00    +0.000 C 
BRANCH  22  26
ATOM     23  N   UNL     1       6.704   4.587  16.151  0.00  0.00    +0.000 NA
ATOM     24  C   UNL     1       6.612   5.849  16.918  0.00  0.00    +0.000 C 
ATOM     25  C   UNL     1       5.290   6.636  16.748  0.00  0.00    +0.000 C 
ATOM     26  N   UNL     1       4.063   5.847  16.995  0.00  0.00    +0.000 NA
ATOM     27  C   UNL     1       4.143   4.604  16.197  0.00  0.00    +0.000 C 
ATOM     28  C   UNL     1       5.462   3.807  16.367  0.00  0.00    +0.000 C 
BRANCH  23  29
ATOM     29  C   UNL     1       6.933   4.797  14.706  0.00  0.00    +0.000 C 
BRANCH  29  30
ATOM     30  C   UNL     1       6.020   3.937  13.818  0.00  0.00    +0.000 C 
BRANCH  30  31
ATOM     31  C   UNL     1       6.678   3.550  12.484  0.00  0.00    +0.000 C 
BRANCH  31  33
ATOM     32  C   UNL     1       5.920   1.504  11.385  0.00  0.00    +0.000 C 
ATOM     33  N   UNL     1       5.757   2.954  11.499  0.00  0.00    +0.000 NA
ATOM     34  C   UNL     1       4.371   3.271  11.851  0.00  0.00    +0.000 C 
ENDBRANCH  31  33
ENDBRANCH  30  31
ENDBRANCH  29  30
ENDBRANCH  23  29
ENDBRANCH  22  26
ENDBRANCH   1  22
TORSDOF 8
ENDMDL
MODEL 8
REMARK VINA RESULT:      -6.5      2.259     12.651
REMARK  Name = 
REMARK  10 active torsions:
REMARK  status: ('A' for Active; 'I' for Inactive)
REMARK    1  A    between atoms: C_1  and  N_2
REMARK    2  A    between atoms: N_2  and  C_3
REMARK    3  A    between atoms: N_2  and  C_4
REMARK    4  A    between atoms: C_4  and  C_5
REMARK    5  A    between atoms: C_5  and  C_6
REMARK    6  A    between atoms: C_6  and  N_7
REMARK    7  A    between atoms: N_10  and  C_11
REMARK    8  A    between atoms: C_11  and  C_12
REMARK    9  A    between atoms: C_15  and  C_16
REMARK   10  A    between atoms: C_19  and  C_20
REMARK                            x       y       z     vdW  Elec       q    Type
REMARK                         _______ _______ _______ _____ _____    ______ ____
ROOT
ATOM      1  C   UNL     1       2.334   7.792  19.113  0.00  0.00    +0.000 A 
ATOM      2  C   UNL     1       1.724   7.984  20.362  0.00  0.00    +0.000 A 
ATOM      3  C   UNL     1       0.706   8.934  20.525  0.00  0.00    +0.000 A 
ATOM      4  C   UNL     1       0.282   9.707  19.440  0.00  0.00    +0.000 A 
ATOM      5  C   UNL     1       0.908   9.516  18.196  0.00  0.00    +0.000 A 
ATOM      6  C   UNL     1       1.921   8.575  18.031  0.00  0.00    +0.000 A 
ENDROOT
BRANCH   4   7
ATOM      7  C   UNL     1      -0.761  10.736  19.539  0.00  0.00    +0.000 A 
ATOM      8  C   UNL     1      -1.729  11.010  18.592  0.00  0.00    +0.000 A 
ATOM      9  C   UNL     1      -2.676  11.953  19.046  0.00  0.00    +0.000 A 
ATOM     10  C   UNL     1      -2.406  12.413  20.318  0.00  0.00    +0.000 A 
ATOM     11  S   UNL     1      -0.973  11.721  20.937  0.00  0.00    +0.000 S 
BRANCH  10  12
ATOM     12  C   UNL     1      -3.257  13.350  20.993  0.00  0.00    +0.000 A 
ATOM     13  N   UNL     1      -3.760  13.071  22.173  0.00  0.00    +0.000 NA
ATOM     14  C   UNL     1      -4.590  14.104  22.484  0.00  0.00    +0.000 A 
ATOM     15  C   UNL     1      -5.396  14.267  23.615  0.00  0.00    +0.000 A 
ATOM     16  C   UNL     1      -6.206  15.401  23.697  0.00  0.00    +0.000 A 
ATOM     17  C   UNL     1      -6.195  16.354  22.675  0.00  0.00    +0.000 A 
ATOM     18  C   UNL     1      -5.373  16.216  21.542  0.00  0.00    +0.000 A 
ATOM     19  C   UNL     1      -4.582  15.066  21.480  0.00  0.00    +0.000 A 
ATOM     20  N   UNL     1      -3.689  14.576  20.550  0.00  0.00    +0.000 N 
ATOM     21  H   UNL     1      -3.432  15.013  19.677  0.00  0.00    +0.000 HD
ENDBRANCH  10  12
ENDBRANCH   4   7
BRANCH   1  22
ATOM     22  C   UNL     1       3.409   6.745  18.913  0.00  0.00    +0.000 C 
BRANCH  22  26
ATOM     23  N   UNL     1       5.885   4.420  17.315  0.00  0.00    +0.000 NA
ATOM     24  C   UNL     1       5.854   5.888  17.130  0.00  0.00    +0.000 C 
ATOM     25  C   UNL     1       4.483   6.478  16.718  0.00  0.00    +0.000 C 
ATOM     26  N   UNL     1       3.354   6.092  17.594  0.00  0.00    +0.000 NA
ATOM     27  C   UNL     1       3.367   4.622  17.745  0.00  0.00    +0.000 C 
ATOM     28  C   UNL     1       4.736   4.023  18.163  0.00  0.00    +0.000 C 
BRANCH  23  29
ATOM     29  C   UNL     1       5.865   3.670  16.042  0.00  0.00    +0.000 C 
BRANCH  29  30
ATOM     30  C   UNL     1       6.213   4.539  14.823  0.00  0.00    +0.000 C 
BRANCH  30  31
ATOM     31  C   UNL     1       5.785   3.899  13.493  0.00  0.00    +0.000 C 
BRANCH  31  33
ATOM     32  C   UNL     1       7.807   5.045  12.739  0.00  0.00    +0.000 C 
ATOM     33  N   UNL     1       6.680   4.190  12.358  0.00  0.00    +0.000 NA
ATOM     34  C   UNL     1       7.179   2.941  11.778  0.00  0.00    +0.000 C 
ENDBRANCH  31  33
ENDBRANCH  30  31
ENDBRANCH  29  30
ENDBRANCH  23  29
ENDBRANCH  22  26
ENDBRANCH   1  22
TORSDOF 8
ENDMDL
MODEL 9
REMARK VINA RESULT:      -6.5      2.995     12.463
REMARK  Name = 
REMARK  10 active torsions:
REMARK  status: ('A' for Active; 'I' for Inactive)
REMARK    1  A    between atoms: C_1  and  N_2
REMARK    2  A    between atoms: N_2  and  C_3
REMARK    3  A    between atoms: N_2  and  C_4
REMARK    4  A    between atoms: C_4  and  C_5
REMARK    5  A    between atoms: C_5  and  C_6
REMARK    6  A    between atoms: C_6  and  N_7
REMARK    7  A    between atoms: N_10  and  C_11
REMARK    8  A    between atoms: C_11  and  C_12
REMARK    9  A    between atoms: C_15  and  C_16
REMARK   10  A    between atoms: C_19  and  C_20
REMARK                            x       y       z     vdW  Elec       q    Type
REMARK                         _______ _______ _______ _____ _____    ______ ____
ROOT
ATOM      1  C   UNL     1       2.309   6.772  19.614  0.00  0.00    +0.000 A 
ATOM      2  C   UNL     1       2.263   7.741  18.601  0.00  0.00    +0.000 A 
ATOM      3  C   UNL     1       1.639   8.977  18.818  0.00  0.00    +0.000 A 
ATOM      4  C   UNL     1       1.049   9.262  20.053  0.00  0.00    +0.000 A 
ATOM      5  C   UNL     1       1.090   8.280  21.058  0.00  0.00    +0.000 A 
ATOM      6  C   UNL     1       1.708   7.051  20.844  0.00  0.00    +0.000 A 
ENDROOT
BRANCH   4   7
ATOM      7  C   UNL     1       0.357  10.524  20.347  0.00  0.00    +0.000 A 
ATOM      8  C   UNL     1      -0.314  11.318  19.437  0.00  0.00    +0.000 A 
ATOM      9  C   UNL     1      -1.000  12.385  20.055  0.00  0.00    +0.000 A 
ATOM     10  C   UNL     1      -0.823  12.416  21.422  0.00  0.00    +0.000 A 
ATOM     11  S   UNL     1       0.215  11.163  21.941  0.00  0.00    +0.000 S 
BRANCH  10  12
ATOM     12  C   UNL     1      -1.457  13.394  22.258  0.00  0.00    +0.000 A 
ATOM     13  N   UNL     1      -0.800  13.965  23.241  0.00  0.00    +0.000 NA
ATOM     14  C   UNL     1      -1.702  14.751  23.891  0.00  0.00    +0.000 A 
ATOM     15  C   UNL     1      -1.513  15.538  25.032  0.00  0.00    +0.000 A 
ATOM     16  C   UNL     1      -2.607  16.231  25.550  0.00  0.00    +0.000 A 
ATOM     17  C   UNL     1      -3.856  16.148  24.930  0.00  0.00    +0.000 A 
ATOM     18  C   UNL     1      -4.057  15.380  23.769  0.00  0.00    +0.000 A 
ATOM     19  C   UNL     1      -2.949  14.687  23.279  0.00  0.00    +0.000 A 
ATOM     20  N   UNL     1      -2.756  13.837  22.210  0.00  0.00    +0.000 N 
ATOM     21  H   UNL     1      -3.453  13.551  21.537  0.00  0.00    +0.000 HD
ENDBRANCH  10  12
ENDBRANCH   4   7
BRANCH   1  22
ATOM     22  C   UNL     1       3.013   5.448  19.405  0.00  0.00    +0.000 C 
BRANCH  22  26
ATOM     23  N   UNL     1       5.146   4.299  16.538  0.00  0.00    +0.000 NA
ATOM     24  C   UNL     1       4.886   3.522  17.770  0.00  0.00    +0.000 C 
ATOM     25  C   UNL     1       5.150   4.271  19.098  0.00  0.00    +0.000 C 
ATOM     26  N   UNL     1       4.468   5.580  19.218  0.00  0.00    +0.000 NA
ATOM     27  C   UNL     1       4.762   6.367  18.001  0.00  0.00    +0.000 C 
ATOM     28  C   UNL     1       4.495   5.625  16.666  0.00  0.00    +0.000 C 
BRANCH  23  29
ATOM     29  C   UNL     1       6.585   4.462  16.243  0.00  0.00    +0.000 C 
BRANCH  29  30
ATOM     30  C   UNL     1       6.891   4.522  14.738  0.00  0.00    +0.000 C 
BRANCH  30  31
ATOM     31  C   UNL     1       5.968   3.618  13.906  0.00  0.00    +0.000 C 
BRANCH  31  33
ATOM     32  C   UNL     1       7.387   4.317  12.043  0.00  0.00    +0.000 C 
ATOM     33  N   UNL     1       6.073   3.815  12.448  0.00  0.00    +0.000 NA
ATOM     34  C   UNL     1       5.784   2.560  11.749  0.00  0.00    +0.000 C 
ENDBRANCH  31  33
ENDBRANCH  30  31
ENDBRANCH  29  30
ENDBRANCH  23  29
ENDBRANCH  22  26
ENDBRANCH   1  22
TORSDOF 8
ENDMDL
