MODEL 1
REMARK VINA RESULT:      -6.7      0.000      0.000
REMARK  Name = 
REMARK  19 active torsions:
REMARK  status: ('A' for Active; 'I' for Inactive)
REMARK    1  A    between atoms: C_1  and  C_2
REMARK    2  A    between atoms: C_2  and  C_3
REMARK    3  A    between atoms: C_3  and  C_4
REMARK    4  A    between atoms: C_4  and  C_5
REMARK    5  A    between atoms: C_5  and  C_6
REMARK    6  A    between atoms: C_6  and  O_7
REMARK    7  A    between atoms: O_7  and  C_8
REMARK    8  A    between atoms: C_9  and  O_10
REMARK    9  A    between atoms: O_10  and  C_11
REMARK   10  A    between atoms: C_13  and  C_14
REMARK   11  A    between atoms: C_14  and  O_16
REMARK   12  A    between atoms: O_16  and  C_17
REMARK   13  A    between atoms: C_17  and  C_18
REMARK   14  A    between atoms: C_18  and  N_19
REMARK   15  A    between atoms: N_19  and  C_20
REMARK   16  A    between atoms: N_19  and  C_21
REMARK   17  A    between atoms: N_19  and  C_22
REMARK   18  A    between atoms: C_24  and  O_25
REMARK   19  A    between atoms: O_25  and  C_26
REMARK                            x       y       z     vdW  Elec       q    Type
REMARK                         _______ _______ _______ _____ _____    ______ ____
ROOT
ATOM      1  C   UNL     1       4.821   4.672  16.730  0.00  0.00    +0.000 A 
ATOM      2  C   UNL     1       3.500   4.351  17.200  0.00  0.00    +0.000 A 
ATOM      3  C   UNL     1       2.722   5.337  17.829  0.00  0.00    +0.000 A 
ATOM      4  C   UNL     1       3.205   6.627  18.013  0.00  0.00    +0.000 A 
ATOM      5  C   UNL     1       4.490   6.942  17.575  0.00  0.00    +0.000 A 
ATOM      6  C   UNL     1       5.304   6.005  16.941  0.00  0.00    +0.000 A 
ENDROOT
BRANCH   2   7
ATOM      7  O   UNL     1       2.998   3.100  17.038  0.00  0.00    +0.000 OA
ATOM      8  C   UNL     1       2.281   2.363  17.957  0.00  0.00    +0.000 C 
ENDBRANCH   2   7
BRANCH   4   9
ATOM      9  C   UNL     1       2.352   7.675  18.616  0.00  0.00    +0.000 C 
ATOM     10  O   UNL     1       2.100   7.661  19.813  0.00  0.00    +0.000 OA
BRANCH   9  11
ATOM     11  O   UNL     1       1.753   8.585  17.811  0.00  0.00    +0.000 OA
BRANCH  11  12
ATOM     12  C   UNL     1       1.460   9.865  18.228  0.00  0.00    +0.000 C 
BRANCH  12  13
ATOM     13  C   UNL     1      -0.058  10.091  18.298  0.00  0.00    +0.000 C 
BRANCH  13  14
ATOM     14  N   UNL     1      -0.461  11.393  18.923  0.00  0.00    +0.000 N 
ATOM     15  C   UNL     1      -1.613  11.998  18.213  0.00  0.00    +0.000 C 
ATOM     16  C   UNL     1      -0.804  11.221  20.358  0.00  0.00    +0.000 C 
ATOM     17  C   UNL     1       0.683  12.327  18.832  0.00  0.00    +0.000 C 
ENDBRANCH  13  14
ENDBRANCH  12  13
ENDBRANCH  11  12
ENDBRANCH   9  11
ENDBRANCH   4   9
BRANCH   6  18
ATOM     18  O   UNL     1       6.524   6.483  16.569  0.00  0.00    +0.000 OA
ATOM     19  C   UNL     1       7.445   7.215  17.275  0.00  0.00    +0.000 C 
ENDBRANCH   6  18
BRANCH   1  20
ATOM     20  O   UNL     1       5.616   3.741  16.106  0.00  0.00    +0.000 OA
BRANCH  20  21
ATOM     21  C   UNL     1       6.364   3.952  14.952  0.00  0.00    +0.000 C 
BRANCH  21  22
ATOM     22  C   UNL     1       5.511   3.994  13.685  0.00  0.00    +0.000 C 
BRANCH  22  23
ATOM     23  C   UNL     1       6.196   3.364  12.464  0.00  0.00    +0.000 C 
BRANCH  23  24
ATOM     24  C   UNL     1       5.219   2.700  11.474  0.00  0.00    +0.000 C 
BRANCH  24  26
ATOM     25  C   UNL     1       3.291   3.585  10.105  0.00  0.00    +0.000 C 
ATOM     26  C   UNL     1       3.861   3.406  11.509  0.00  0.00    +0.000 C 
ENDBRANCH  24  26
ENDBRANCH  23  24
ENDBRANCH  22  23
ENDBRANCH  21  22
ENDBRANCH  20  21
ENDBRANCH   1  20
TORSDOF 13
ENDMDL
MODEL 2
REMARK VINA RESULT:      -6.6      3.376      7.145
REMARK  Name = 
REMARK  19 active torsions:
REMARK  status: ('A' for Active; 'I' for Inactive)
REMARK    1  A    between atoms: C_1  and  C_2
REMARK    2  A    between atoms: C_2  and  C_3
REMARK    3  A    between atoms: C_3  and  C_4
REMARK    4  A    between atoms: C_4  and  C_5
REMARK    5  A    between atoms: C_5  and  C_6
REMARK    6  A    between atoms: C_6  and  O_7
REMARK    7  A    between atoms: O_7  and  C_8
REMARK    8  A    between atoms: C_9  and  O_10
REMARK    9  A    between atoms: O_10  and  C_11
REMARK   10  A    between atoms: C_13  and  C_14
REMARK   11  A    between atoms: C_14  and  O_16
REMARK   12  A    between atoms: O_16  and  C_17
REMARK   13  A    between atoms: C_17  and  C_18
REMARK   14  A    between atoms: C_18  and  N_19
REMARK   15  A    between atoms: N_19  and  C_20
REMARK   16  A    between atoms: N_19  and  C_21
REMARK   17  A    between atoms: N_19  and  C_22
REMARK   18  A    between atoms: C_24  and  O_25
REMARK   19  A    between atoms: O_25  and  C_26
REMARK                            x       y       z     vdW  Elec       q    Type
REMARK                         _______ _______ _______ _____ _____    ______ ____
ROOT
ATOM      1  C   UNL     1       5.699   6.550  16.890  0.00  0.00    +0.000 A 
ATOM      2  C   UNL     1       6.047   5.225  16.452  0.00  0.00    +0.000 A 
ATOM      3  C   UNL     1       5.120   4.177  16.585  0.00  0.00    +0.000 A 
ATOM      4  C   UNL     1       3.864   4.392  17.139  0.00  0.00    +0.000 A 
ATOM      5  C   UNL     1       3.525   5.670  17.580  0.00  0.00    +0.000 A 
ATOM      6  C   UNL     1       4.403   6.747  17.469  0.00  0.00    +0.000 A 
ENDROOT
BRANCH   2   7
ATOM      7  O   UNL     1       7.266   4.979  15.907  0.00  0.00    +0.000 OA
ATOM      8  C   UNL     1       7.603   4.995  14.570  0.00  0.00    +0.000 C 
ENDBRANCH   2   7
BRANCH   4   9
ATOM      9  C   UNL     1       2.872   3.297  17.212  0.00  0.00    +0.000 C 
ATOM     10  O   UNL     1       1.702   3.496  16.916  0.00  0.00    +0.000 OA
BRANCH   9  11
ATOM     11  O   UNL     1       3.245   2.099  17.722  0.00  0.00    +0.000 OA
BRANCH  11  12
ATOM     12  C   UNL     1       2.800   1.642  18.943  0.00  0.00    +0.000 C 
BRANCH  12  13
ATOM     13  C   UNL     1       3.153   2.630  20.066  0.00  0.00    +0.000 C 
BRANCH  13  14
ATOM     14  N   UNL     1       1.966   3.217  20.769  0.00  0.00    +0.000 N 
ATOM     15  C   UNL     1       0.733   3.063  19.963  0.00  0.00    +0.000 C 
ATOM     16  C   UNL     1       1.764   2.594  22.103  0.00  0.00    +0.000 C 
ATOM     17  C   UNL     1       2.212   4.663  20.969  0.00  0.00    +0.000 C 
ENDBRANCH  13  14
ENDBRANCH  12  13
ENDBRANCH  11  12
ENDBRANCH   9  11
ENDBRANCH   4   9
BRANCH   6  18
ATOM     18  O   UNL     1       3.907   7.925  17.941  0.00  0.00    +0.000 OA
ATOM     19  C   UNL     1       2.615   8.381  18.013  0.00  0.00    +0.000 C 
ENDBRANCH   6  18
BRANCH   1  20
ATOM     20  O   UNL     1       6.572   7.604  16.776  0.00  0.00    +0.000 OA
BRANCH  20  21
ATOM     21  C   UNL     1       7.728   7.788  17.529  0.00  0.00    +0.000 C 
BRANCH  21  22
ATOM     22  C   UNL     1       8.045   9.259  17.790  0.00  0.00    +0.000 C 
BRANCH  22  23
ATOM     23  C   UNL     1       8.932   9.486  19.023  0.00  0.00    +0.000 C 
BRANCH  23  24
ATOM     24  C   UNL     1       9.642  10.853  19.038  0.00  0.00    +0.000 C 
BRANCH  24  26
ATOM     25  C   UNL     1      10.096  12.776  17.465  0.00  0.00    +0.000 C 
ATOM     26  C   UNL     1       9.060  11.770  17.959  0.00  0.00    +0.000 C 
ENDBRANCH  24  26
ENDBRANCH  23  24
ENDBRANCH  22  23
ENDBRANCH  21  22
ENDBRANCH  20  21
ENDBRANCH   1  20
TORSDOF 13
ENDMDL
MODEL 3
REMARK VINA RESULT:      -6.4      0.825      1.196
REMARK  Name = 
REMARK  19 active torsions:
REMARK  status: ('A' for Active; 'I' for Inactive)
REMARK    1  A    between atoms: C_1  and  C_2
REMARK    2  A    between atoms: C_2  and  C_3
REMARK    3  A    between atoms: C_3  and  C_4
REMARK    4  A    between atoms: C_4  and  C_5
REMARK    5  A    between atoms: C_5  and  C_6
REMARK    6  A    between atoms: C_6  and  O_7
REMARK    7  A    between atoms: O_7  and  C_8
REMARK    8  A    between atoms: C_9  and  O_10
REMARK    9  A    between atoms: O_10  and  C_11
REMARK   10  A    between atoms: C_13  and  C_14
REMARK   11  A    between atoms: C_14  and  O_16
REMARK   12  A    between atoms: O_16  and  C_17
REMARK   13  A    between atoms: C_17  and  C_18
REMARK   14  A    between atoms: C_18  and  N_19
REMARK   15  A    between atoms: N_19  and  C_20
REMARK   16  A    between atoms: N_19  and  C_21
REMARK   17  A    between atoms: N_19  and  C_22
REMARK   18  A    between atoms: C_24  and  O_25
REMARK   19  A    between atoms: O_25  and  C_26
REMARK                            x       y       z     vdW  Elec       q    Type
REMARK                         _______ _______ _______ _____ _____    ______ ____
ROOT
ATOM      1  C   UNL     1       5.288   4.909  16.813  0.00  0.00    +0.000 A 
ATOM      2  C   UNL     1       4.026   4.408  17.287  0.00  0.00    +0.000 A 
ATOM      3  C   UNL     1       3.106   5.285  17.887  0.00  0.00    +0.000 A 
ATOM      4  C   UNL     1       3.391   6.636  18.038  0.00  0.00    +0.000 A 
ATOM      5  C   UNL     1       4.619   7.126  17.595  0.00  0.00    +0.000 A 
ATOM      6  C   UNL     1       5.567   6.304  16.990  0.00  0.00    +0.000 A 
ENDROOT
BRANCH   2   7
ATOM      7  O   UNL     1       3.715   3.093  17.158  0.00  0.00    +0.000 OA
ATOM      8  C   UNL     1       3.580   2.163  18.167  0.00  0.00    +0.000 C 
ENDBRANCH   2   7
BRANCH   4   9
ATOM      9  C   UNL     1       2.388   7.562  18.610  0.00  0.00    +0.000 C 
ATOM     10  O   UNL     1       2.086   7.499  19.793  0.00  0.00    +0.000 OA
BRANCH   9  11
ATOM     11  O   UNL     1       1.718   8.402  17.786  0.00  0.00    +0.000 OA
BRANCH  11  12
ATOM     12  C   UNL     1       1.835   9.772  17.869  0.00  0.00    +0.000 C 
BRANCH  12  13
ATOM     13  C   UNL     1       0.588  10.397  18.517  0.00  0.00    +0.000 C 
BRANCH  13  14
ATOM     14  N   UNL     1       0.831  11.723  19.173  0.00  0.00    +0.000 N 
ATOM     15  C   UNL     1       1.063  11.568  20.628  0.00  0.00    +0.000 C 
ATOM     16  C   UNL     1       1.989  12.425  18.562  0.00  0.00    +0.000 C 
ATOM     17  C   UNL     1      -0.371  12.563  18.981  0.00  0.00    +0.000 C 
ENDBRANCH  13  14
ENDBRANCH  12  13
ENDBRANCH  11  12
ENDBRANCH   9  11
ENDBRANCH   4   9
BRANCH   6  18
ATOM     18  O   UNL     1       6.706   6.947  16.610  0.00  0.00    +0.000 OA
ATOM     19  C   UNL     1       7.675   7.560  17.363  0.00  0.00    +0.000 C 
ENDBRANCH   6  18
BRANCH   1  20
ATOM     20  O   UNL     1       6.216   4.089  16.218  0.00  0.00    +0.000 OA
BRANCH  20  21
ATOM     21  C   UNL     1       6.111   3.530  14.947  0.00  0.00    +0.000 C 
BRANCH  21  22
ATOM     22  C   UNL     1       6.488   4.504  13.832  0.00  0.00    +0.000 C 
BRANCH  22  23
ATOM     23  C   UNL     1       6.532   3.855  12.441  0.00  0.00    +0.000 C 
BRANCH  23  24
ATOM     24  C   UNL     1       5.266   3.052  12.087  0.00  0.00    +0.000 C 
BRANCH  24  26
ATOM     25  C   UNL     1       3.272   3.002  10.538  0.00  0.00    +0.000 C 
ATOM     26  C   UNL     1       4.347   3.874  11.180  0.00  0.00    +0.000 C 
ENDBRANCH  24  26
ENDBRANCH  23  24
ENDBRANCH  22  23
ENDBRANCH  21  22
ENDBRANCH  20  21
ENDBRANCH   1  20
TORSDOF 13
ENDMDL
MODEL 4
REMARK VINA RESULT:      -6.4      1.057      2.865
REMARK  Name = 
REMARK  19 active torsions:
REMARK  status: ('A' for Active; 'I' for Inactive)
REMARK    1  A    between atoms: C_1  and  C_2
REMARK    2  A    between atoms: C_2  and  C_3
REMARK    3  A    between atoms: C_3  and  C_4
REMARK    4  A    between atoms: C_4  and  C_5
REMARK    5  A    between atoms: C_5  and  C_6
REMARK    6  A    between atoms: C_6  and  O_7
REMARK    7  A    between atoms: O_7  and  C_8
REMARK    8  A    between atoms: C_9  and  O_10
REMARK    9  A    between atoms: O_10  and  C_11
REMARK   10  A    between atoms: C_13  and  C_14
REMARK   11  A    between atoms: C_14  and  O_16
REMARK   12  A    between atoms: O_16  and  C_17
REMARK   13  A    between atoms: C_17  and  C_18
REMARK   14  A    between atoms: C_18  and  N_19
REMARK   15  A    between atoms: N_19  and  C_20
REMARK   16  A    between atoms: N_19  and  C_21
REMARK   17  A    between atoms: N_19  and  C_22
REMARK   18  A    between atoms: C_24  and  O_25
REMARK   19  A    between atoms: O_25  and  C_26
REMARK                            x       y       z     vdW  Elec       q    Type
REMARK                         _______ _______ _______ _____ _____    ______ ____
ROOT
ATOM      1  C   UNL     1       4.618   5.038  16.828  0.00  0.00    +0.000 A 
ATOM      2  C   UNL     1       4.988   6.408  17.062  0.00  0.00    +0.000 A 
ATOM      3  C   UNL     1       4.157   7.235  17.837  0.00  0.00    +0.000 A 
ATOM      4  C   UNL     1       2.973   6.756  18.384  0.00  0.00    +0.000 A 
ATOM      5  C   UNL     1       2.599   5.434  18.149  0.00  0.00    +0.000 A 
ATOM      6  C   UNL     1       3.387   4.569  17.392  0.00  0.00    +0.000 A 
ENDROOT
BRANCH   2   7
ATOM      7  O   UNL     1       6.137   6.909  16.541  0.00  0.00    +0.000 OA
ATOM      8  C   UNL     1       7.375   6.963  17.146  0.00  0.00    +0.000 C 
ENDBRANCH   2   7
BRANCH   4   9
ATOM      9  C   UNL     1       2.140   7.617  19.255  0.00  0.00    +0.000 C 
ATOM     10  O   UNL     1       1.809   7.238  20.369  0.00  0.00    +0.000 OA
BRANCH   9  11
ATOM     11  O   UNL     1       1.648   8.778  18.762  0.00  0.00    +0.000 OA
BRANCH  11  12
ATOM     12  C   UNL     1       1.002   9.704  19.551  0.00  0.00    +0.000 C 
BRANCH  12  13
ATOM     13  C   UNL     1       0.644  10.964  18.748  0.00  0.00    +0.000 C 
BRANCH  13  14
ATOM     14  N   UNL     1       0.053  12.072  19.566  0.00  0.00    +0.000 N 
ATOM     15  C   UNL     1      -1.124  11.604  20.335  0.00  0.00    +0.000 C 
ATOM     16  C   UNL     1       1.054  12.648  20.501  0.00  0.00    +0.000 C 
ATOM     17  C   UNL     1      -0.390  13.144  18.647  0.00  0.00    +0.000 C 
ENDBRANCH  13  14
ENDBRANCH  12  13
ENDBRANCH  11  12
ENDBRANCH   9  11
ENDBRANCH   4   9
BRANCH   6  18
ATOM     18  O   UNL     1       2.878   3.311  17.270  0.00  0.00    +0.000 OA
ATOM     19  C   UNL     1       3.210   2.150  17.921  0.00  0.00    +0.000 C 
ENDBRANCH   6  18
BRANCH   1  20
ATOM     20  O   UNL     1       5.401   4.193  16.080  0.00  0.00    +0.000 OA
BRANCH  20  21
ATOM     21  C   UNL     1       5.331   4.028  14.699  0.00  0.00    +0.000 C 
BRANCH  21  22
ATOM     22  C   UNL     1       6.632   4.394  13.987  0.00  0.00    +0.000 C 
BRANCH  22  23
ATOM     23  C   UNL     1       6.712   3.864  12.548  0.00  0.00    +0.000 C 
BRANCH  23  24
ATOM     24  C   UNL     1       5.412   3.202  12.054  0.00  0.00    +0.000 C 
BRANCH  24  26
ATOM     25  C   UNL     1       7.200   1.709  11.077  0.00  0.00    +0.000 C 
ATOM     26  C   UNL     1       5.714   1.853  11.395  0.00  0.00    +0.000 C 
ENDBRANCH  24  26
ENDBRANCH  23  24
ENDBRANCH  22  23
ENDBRANCH  21  22
ENDBRANCH  20  21
ENDBRANCH   1  20
TORSDOF 13
ENDMDL
MODEL 5
REMARK VINA RESULT:      -6.4      1.029      1.657
REMARK  Name = 
REMARK  19 active torsions:
REMARK  status: ('A' for Active; 'I' for Inactive)
REMARK    1  A    between atoms: C_1  and  C_2
REMARK    2  A    between atoms: C_2  and  C_3
REMARK    3  A    between atoms: C_3  and  C_4
REMARK    4  A    between atoms: C_4  and  C_5
REMARK    5  A    between atoms: C_5  and  C_6
REMARK    6  A    between atoms: C_6  and  O_7
REMARK    7  A    between atoms: O_7  and  C_8
REMARK    8  A    between atoms: C_9  and  O_10
REMARK    9  A    between atoms: O_10  and  C_11
REMARK   10  A    between atoms: C_13  and  C_14
REMARK   11  A    between atoms: C_14  and  O_16
REMARK   12  A    between atoms: O_16  and  C_17
REMARK   13  A    between atoms: C_17  and  C_18
REMARK   14  A    between atoms: C_18  and  N_19
REMARK   15  A    between atoms: N_19  and  C_20
REMARK   16  A    between atoms: N_19  and  C_21
REMARK   17  A    between atoms: N_19  and  C_22
REMARK   18  A    between atoms: C_24  and  O_25
REMARK   19  A    between atoms: O_25  and  C_26
REMARK                            x       y       z     vdW  Elec       q    Type
REMARK                         _______ _______ _______ _____ _____    ______ ____
ROOT
ATOM      1  C   UNL     1       4.517   5.375  17.552  0.00  0.00    +0.000 A 
ATOM      2  C   UNL     1       3.197   5.215  18.100  0.00  0.00    +0.000 A 
ATOM      3  C   UNL     1       2.385   6.343  18.310  0.00  0.00    +0.000 A 
ATOM      4  C   UNL     1       2.834   7.621  18.001  0.00  0.00    +0.000 A 
ATOM      5  C   UNL     1       4.118   7.786  17.485  0.00  0.00    +0.000 A 
ATOM      6  C   UNL     1       4.964   6.703  17.252  0.00  0.00    +0.000 A 
ENDROOT
BRANCH   2   7
ATOM      7  O   UNL     1       2.727   3.981  18.414  0.00  0.00    +0.000 OA
ATOM      8  C   UNL     1       1.509   3.437  18.067  0.00  0.00    +0.000 C 
ENDBRANCH   2   7
BRANCH   4   9
ATOM      9  C   UNL     1       1.946   8.794  18.163  0.00  0.00    +0.000 C 
ATOM     10  O   UNL     1       1.988   9.721  17.367  0.00  0.00    +0.000 OA
BRANCH   9  11
ATOM     11  O   UNL     1       1.168   8.887  19.267  0.00  0.00    +0.000 OA
BRANCH  11  12
ATOM     12  C   UNL     1       0.902  10.088  19.887  0.00  0.00    +0.000 C 
BRANCH  12  13
ATOM     13  C   UNL     1      -0.608  10.376  19.915  0.00  0.00    +0.000 C 
BRANCH  13  14
ATOM     14  N   UNL     1      -1.011  11.636  19.210  0.00  0.00    +0.000 N 
ATOM     15  C   UNL     1       0.172  12.450  18.845  0.00  0.00    +0.000 C 
ATOM     16  C   UNL     1      -1.802  11.342  17.987  0.00  0.00    +0.000 C 
ATOM     17  C   UNL     1      -1.858  12.431  20.126  0.00  0.00    +0.000 C 
ENDBRANCH  13  14
ENDBRANCH  12  13
ENDBRANCH  11  12
ENDBRANCH   9  11
ENDBRANCH   4   9
BRANCH   6  18
ATOM     18  O   UNL     1       6.179   7.042  16.736  0.00  0.00    +0.000 OA
ATOM     19  C   UNL     1       7.420   7.060  17.322  0.00  0.00    +0.000 C 
ENDBRANCH   6  18
BRANCH   1  20
ATOM     20  O   UNL     1       5.344   4.301  17.327  0.00  0.00    +0.000 OA
BRANCH  20  21
ATOM     21  C   UNL     1       5.318   3.475  16.207  0.00  0.00    +0.000 C 
BRANCH  21  22
ATOM     22  C   UNL     1       6.333   3.881  15.140  0.00  0.00    +0.000 C 
BRANCH  22  23
ATOM     23  C   UNL     1       5.688   4.364  13.833  0.00  0.00    +0.000 C 
BRANCH  23  24
ATOM     24  C   UNL     1       6.324   3.763  12.564  0.00  0.00    +0.000 C 
BRANCH  24  26
ATOM     25  C   UNL     1       4.242   3.211  11.245  0.00  0.00    +0.000 C 
ATOM     26  C   UNL     1       5.441   2.646  12.001  0.00  0.00    +0.000 C 
ENDBRANCH  24  26
ENDBRANCH  23  24
ENDBRANCH  22  23
ENDBRANCH  21  22
ENDBRANCH  20  21
ENDBRANCH   1  20
TORSDOF 13
ENDMDL
MODEL 6
REMARK VINA RESULT:      -6.3      0.741      2.653
REMARK  Name = 
REMARK  19 active torsions:
REMARK  status: ('A' for Active; 'I' for Inactive)
REMARK    1  A    between atoms: C_1  and  C_2
REMARK    2  A    between atoms: C_2  and  C_3
REMARK    3  A    between atoms: C_3  and  C_4
REMARK    4  A    between atoms: C_4  and  C_5
REMARK    5  A    between atoms: C_5  and  C_6
REMARK    6  A    between atoms: C_6  and  O_7
REMARK    7  A    between atoms: O_7  and  C_8
REMARK    8  A    between atoms: C_9  and  O_10
REMARK    9  A    between atoms: O_10  and  C_11
REMARK   10  A    between atoms: C_13  and  C_14
REMARK   11  A    between atoms: C_14  and  O_16
REMARK   12  A    between atoms: O_16  and  C_17
REMARK   13  A    between atoms: C_17  and  C_18
REMARK   14  A    between atoms: C_18  and  N_19
REMARK   15  A    between atoms: N_19  and  C_20
REMARK   16  A    between atoms: N_19  and  C_21
REMARK   17  A    between atoms: N_19  and  C_22
REMARK   18  A    between atoms: C_24  and  O_25
REMARK   19  A    between atoms: O_25  and  C_26
REMARK                            x       y       z     vdW  Elec       q    Type
REMARK                         _______ _______ _______ _____ _____    ______ ____
ROOT
ATOM      1  C   UNL     1       5.533   5.114  16.855  0.00  0.00    +0.000 A 
ATOM      2  C   UNL     1       5.659   6.532  17.062  0.00  0.00    +0.000 A 
ATOM      3  C   UNL     1       4.601   7.252  17.642  0.00  0.00    +0.000 A 
ATOM      4  C   UNL     1       3.422   6.621  18.020  0.00  0.00    +0.000 A 
ATOM      5  C   UNL     1       3.286   5.250  17.809  0.00  0.00    +0.000 A 
ATOM      6  C   UNL     1       4.304   4.486  17.241  0.00  0.00    +0.000 A 
ENDROOT
BRANCH   2   7
ATOM      7  O   UNL     1       6.796   7.181  16.702  0.00  0.00    +0.000 OA
ATOM      8  C   UNL     1       7.739   7.740  17.539  0.00  0.00    +0.000 C 
ENDBRANCH   2   7
BRANCH   4   9
ATOM      9  C   UNL     1       2.342   7.377  18.692  0.00  0.00    +0.000 C 
ATOM     10  O   UNL     1       2.039   7.131  19.851  0.00  0.00    +0.000 OA
BRANCH   9  11
ATOM     11  O   UNL     1       1.610   8.263  17.976  0.00  0.00    +0.000 OA
BRANCH  11  12
ATOM     12  C   UNL     1       1.622   9.616  18.236  0.00  0.00    +0.000 C 
BRANCH  12  13
ATOM     13  C   UNL     1       0.726   9.958  19.437  0.00  0.00    +0.000 C 
BRANCH  13  14
ATOM     14  N   UNL     1      -0.238  11.079  19.190  0.00  0.00    +0.000 N 
ATOM     15  C   UNL     1      -1.206  10.731  18.122  0.00  0.00    +0.000 C 
ATOM     16  C   UNL     1      -0.979  11.439  20.426  0.00  0.00    +0.000 C 
ATOM     17  C   UNL     1       0.530  12.265  18.751  0.00  0.00    +0.000 C 
ENDBRANCH  13  14
ENDBRANCH  12  13
ENDBRANCH  11  12
ENDBRANCH   9  11
ENDBRANCH   4   9
BRANCH   6  18
ATOM     18  O   UNL     1       4.007   3.162  17.115  0.00  0.00    +0.000 OA
ATOM     19  C   UNL     1       3.365   2.309  17.977  0.00  0.00    +0.000 C 
ENDBRANCH   6  18
BRANCH   1  20
ATOM     20  O   UNL     1       6.542   4.370  16.294  0.00  0.00    +0.000 OA
BRANCH  20  21
ATOM     21  C   UNL     1       6.864   4.325  14.941  0.00  0.00    +0.000 C 
BRANCH  21  22
ATOM     22  C   UNL     1       5.641   4.417  14.031  0.00  0.00    +0.000 C 
BRANCH  22  23
ATOM     23  C   UNL     1       5.561   3.285  12.995  0.00  0.00    +0.000 C 
BRANCH  23  24
ATOM     24  C   UNL     1       5.164   3.759  11.584  0.00  0.00    +0.000 C 
BRANCH  24  26
ATOM     25  C   UNL     1       3.147   3.846  10.066  0.00  0.00    +0.000 C 
ATOM     26  C   UNL     1       3.905   3.029  11.109  0.00  0.00    +0.000 C 
ENDBRANCH  24  26
ENDBRANCH  23  24
ENDBRANCH  22  23
ENDBRANCH  21  22
ENDBRANCH  20  21
ENDBRANCH   1  20
TORSDOF 13
ENDMDL
MODEL 7
REMARK VINA RESULT:      -6.3      1.100      1.571
REMARK  Name = 
REMARK  19 active torsions:
REMARK  status: ('A' for Active; 'I' for Inactive)
REMARK    1  A    between atoms: C_1  and  C_2
REMARK    2  A    between atoms: C_2  and  C_3
REMARK    3  A    between atoms: C_3  and  C_4
REMARK    4  A    between atoms: C_4  and  C_5
REMARK    5  A    between atoms: C_5  and  C_6
REMARK    6  A    between atoms: C_6  and  O_7
REMARK    7  A    between atoms: O_7  and  C_8
REMARK    8  A    between atoms: C_9  and  O_10
REMARK    9  A    between atoms: O_10  and  C_11
REMARK   10  A    between atoms: C_13  and  C_14
REMARK   11  A    between atoms: C_14  and  O_16
REMARK   12  A    between atoms: O_16  and  C_17
REMARK   13  A    between atoms: C_17  and  C_18
REMARK   14  A    between atoms: C_18  and  N_19
REMARK   15  A    between atoms: N_19  and  C_20
REMARK   16  A    between atoms: N_19  and  C_21
REMARK   17  A    between atoms: N_19  and  C_22
REMARK   18  A    between atoms: C_24  and  O_25
REMARK   19  A    between atoms: O_25  and  C_26
REMARK                            x       y       z     vdW  Elec       q    Type
REMARK                         _______ _______ _______ _____ _____    ______ ____
ROOT
ATOM      1  C   UNL     1       5.168   5.134  17.161  0.00  0.00    +0.000 A 
ATOM      2  C   UNL     1       3.837   4.781  17.574  0.00  0.00    +0.000 A 
ATOM      3  C   UNL     1       2.913   5.790  17.895  0.00  0.00    +0.000 A 
ATOM      4  C   UNL     1       3.260   7.134  17.825  0.00  0.00    +0.000 A 
ATOM      5  C   UNL     1       4.553   7.483  17.441  0.00  0.00    +0.000 A 
ATOM      6  C   UNL     1       5.509   6.525  17.108  0.00  0.00    +0.000 A 
ENDROOT
BRANCH   2   7
ATOM      7  O   UNL     1       3.464   3.478  17.655  0.00  0.00    +0.000 OA
ATOM      8  C   UNL     1       2.180   2.978  17.710  0.00  0.00    +0.000 C 
ENDBRANCH   2   7
BRANCH   4   9
ATOM      9  C   UNL     1       2.259   8.189  18.099  0.00  0.00    +0.000 C 
ATOM     10  O   UNL     1       2.082   9.100  17.303  0.00  0.00    +0.000 OA
BRANCH   9  11
ATOM     11  O   UNL     1       1.624   8.203  19.295  0.00  0.00    +0.000 OA
BRANCH  11  12
ATOM     12  C   UNL     1       1.474   9.352  20.041  0.00  0.00    +0.000 C 
BRANCH  12  13
ATOM     13  C   UNL     1      -0.009   9.719  20.202  0.00  0.00    +0.000 C 
BRANCH  13  14
ATOM     14  N   UNL     1      -0.429  10.943  19.444  0.00  0.00    +0.000 N 
ATOM     15  C   UNL     1      -1.393  11.754  20.223  0.00  0.00    +0.000 C 
ATOM     16  C   UNL     1       0.741  11.783  19.081  0.00  0.00    +0.000 C 
ATOM     17  C   UNL     1      -1.091  10.510  18.193  0.00  0.00    +0.000 C 
ENDBRANCH  13  14
ENDBRANCH  12  13
ENDBRANCH  11  12
ENDBRANCH   9  11
ENDBRANCH   4   9
BRANCH   6  18
ATOM     18  O   UNL     1       6.717   7.040  16.746  0.00  0.00    +0.000 OA
ATOM     19  C   UNL     1       7.598   7.821  17.452  0.00  0.00    +0.000 C 
ENDBRANCH   6  18
BRANCH   1  20
ATOM     20  O   UNL     1       6.103   4.181  16.835  0.00  0.00    +0.000 OA
BRANCH  20  21
ATOM     21  C   UNL     1       6.221   3.545  15.603  0.00  0.00    +0.000 C 
BRANCH  21  22
ATOM     22  C   UNL     1       5.796   4.428  14.431  0.00  0.00    +0.000 C 
BRANCH  22  23
ATOM     23  C   UNL     1       6.941   4.753  13.461  0.00  0.00    +0.000 C 
BRANCH  23  24
ATOM     24  C   UNL     1       6.926   3.909  12.172  0.00  0.00    +0.000 C 
BRANCH  24  26
ATOM     25  C   UNL     1       5.840   1.771  11.379  0.00  0.00    +0.000 C 
ATOM     26  C   UNL     1       5.621   3.114  12.069  0.00  0.00    +0.000 C 
ENDBRANCH  24  26
ENDBRANCH  23  24
ENDBRANCH  22  23
ENDBRANCH  21  22
ENDBRANCH  20  21
ENDBRANCH   1  20
TORSDOF 13
ENDMDL
MODEL 8
REMARK VINA RESULT:      -6.3      3.794      6.804
REMARK  Name = 
REMARK  19 active torsions:
REMARK  status: ('A' for Active; 'I' for Inactive)
REMARK    1  A    between atoms: C_1  and  C_2
REMARK    2  A    between atoms: C_2  and  C_3
REMARK    3  A    between atoms: C_3  and  C_4
REMARK    4  A    between atoms: C_4  and  C_5
REMARK    5  A    between atoms: C_5  and  C_6
REMARK    6  A    between atoms: C_6  and  O_7
REMARK    7  A    between atoms: O_7  and  C_8
REMARK    8  A    between atoms: C_9  and  O_10
REMARK    9  A    between atoms: O_10  and  C_11
REMARK   10  A    between atoms: C_13  and  C_14
REMARK   11  A    between atoms: C_14  and  O_16
REMARK   12  A    between atoms: O_16  and  C_17
REMARK   13  A    between atoms: C_17  and  C_18
REMARK   14  A    between atoms: C_18  and  N_19
REMARK   15  A    between atoms: N_19  and  C_20
REMARK   16  A    between atoms: N_19  and  C_21
REMARK   17  A    between atoms: N_19  and  C_22
REMARK   18  A    between atoms: C_24  and  O_25
REMARK   19  A    between atoms: O_25  and  C_26
REMARK                            x       y       z     vdW  Elec       q    Type
REMARK                         _______ _______ _______ _____ _____    ______ ____
ROOT
ATOM      1  C   UNL     1       6.710   5.562  17.209  0.00  0.00    +0.000 A 
ATOM      2  C   UNL     1       6.007   5.077  16.052  0.00  0.00    +0.000 A 
ATOM      3  C   UNL     1       4.970   4.141  16.205  0.00  0.00    +0.000 A 
ATOM      4  C   UNL     1       4.607   3.666  17.459  0.00  0.00    +0.000 A 
ATOM      5  C   UNL     1       5.295   4.119  18.584  0.00  0.00    +0.000 A 
ATOM      6  C   UNL     1       6.328   5.049  18.492  0.00  0.00    +0.000 A 
ENDROOT
BRANCH   2   7
ATOM      7  O   UNL     1       6.336   5.519  14.811  0.00  0.00    +0.000 OA
ATOM      8  C   UNL     1       7.204   4.928  13.917  0.00  0.00    +0.000 C 
ENDBRANCH   2   7
BRANCH   4   9
ATOM      9  C   UNL     1       3.469   2.732  17.614  0.00  0.00    +0.000 C 
ATOM     10  O   UNL     1       3.650   1.594  18.021  0.00  0.00    +0.000 OA
BRANCH   9  11
ATOM     11  O   UNL     1       2.241   3.110  17.189  0.00  0.00    +0.000 OA
BRANCH  11  12
ATOM     12  C   UNL     1       1.614   4.248  17.650  0.00  0.00    +0.000 C 
BRANCH  12  13
ATOM     13  C   UNL     1       1.280   4.129  19.145  0.00  0.00    +0.000 C 
BRANCH  13  14
ATOM     14  N   UNL     1       1.945   5.157  20.011  0.00  0.00    +0.000 N 
ATOM     15  C   UNL     1       0.952   5.904  20.818  0.00  0.00    +0.000 C 
ATOM     16  C   UNL     1       2.947   4.536  20.915  0.00  0.00    +0.000 C 
ATOM     17  C   UNL     1       2.649   6.119  19.134  0.00  0.00    +0.000 C 
ENDBRANCH  13  14
ENDBRANCH  12  13
ENDBRANCH  11  12
ENDBRANCH   9  11
ENDBRANCH   4   9
BRANCH   6  18
ATOM     18  O   UNL     1       6.884   5.389  19.688  0.00  0.00    +0.000 OA
ATOM     19  C   UNL     1       8.187   5.319  20.115  0.00  0.00    +0.000 C 
ENDBRANCH   6  18
BRANCH   1  20
ATOM     20  O   UNL     1       7.728   6.479  17.107  0.00  0.00    +0.000 OA
BRANCH  20  21
ATOM     21  C   UNL     1       7.593   7.860  17.218  0.00  0.00    +0.000 C 
BRANCH  21  22
ATOM     22  C   UNL     1       8.347   8.441  18.413  0.00  0.00    +0.000 C 
BRANCH  22  23
ATOM     23  C   UNL     1       8.703   9.926  18.250  0.00  0.00    +0.000 C 
BRANCH  23  24
ATOM     24  C   UNL     1       9.546  10.496  19.407  0.00  0.00    +0.000 C 
BRANCH  24  26
ATOM     25  C   UNL     1      11.801  11.618  19.229  0.00  0.00    +0.000 C 
ATOM     26  C   UNL     1      10.306  11.744  18.951  0.00  0.00    +0.000 C 
ENDBRANCH  24  26
ENDBRANCH  23  24
ENDBRANCH  22  23
ENDBRANCH  21  22
ENDBRANCH  20  21
ENDBRANCH   1  20
TORSDOF 13
ENDMDL
MODEL 9
REMARK VINA RESULT:      -6.3      1.181      3.069
REMARK  Name = 
REMARK  19 active torsions:
REMARK  status: ('A' for Active; 'I' for Inactive)
REMARK    1  A    between atoms: C_1  and  C_2
REMARK    2  A    between atoms: C_2  and  C_3
REMARK    3  A    between atoms: C_3  and  C_4
REMARK    4  A    between atoms: C_4  and  C_5
REMARK    5  A    between atoms: C_5  and  C_6
REMARK    6  A    between atoms: C_6  and  O_7
REMARK    7  A    between atoms: O_7  and  C_8
REMARK    8  A    between atoms: C_9  and  O_10
REMARK    9  A    between atoms: O_10  and  C_11
REMARK   10  A    between atoms: C_13  and  C_14
REMARK   11  A    between atoms: C_14  and  O_16
REMARK   12  A    between atoms: O_16  and  C_17
REMARK   13  A    between atoms: C_17  and  C_18
REMARK   14  A    between atoms: C_18  and  N_19
REMARK   15  A    between atoms: N_19  and  C_20
REMARK   16  A    between atoms: N_19  and  C_21
REMARK   17  A    between atoms: N_19  and  C_22
REMARK   18  A    between atoms: C_24  and  O_25
REMARK   19  A    between atoms: O_25  and  C_26
REMARK                            x       y       z     vdW  Elec       q    Type
REMARK                         _______ _______ _______ _____ _____    ______ ____
ROOT
ATOM      1  C   UNL     1       4.666   5.315  17.247  0.00  0.00    +0.000 A 
ATOM      2  C   UNL     1       5.026   6.704  17.149  0.00  0.00    +0.000 A 
ATOM      3  C   UNL     1       4.102   7.694  17.519  0.00  0.00    +0.000 A 
ATOM      4  C   UNL     1       2.833   7.361  17.978  0.00  0.00    +0.000 A 
ATOM      5  C   UNL     1       2.471   6.018  18.061  0.00  0.00    +0.000 A 
ATOM      6  C   UNL     1       3.349   4.993  17.711  0.00  0.00    +0.000 A 
ENDROOT
BRANCH   2   7
ATOM      7  O   UNL     1       6.256   7.065  16.703  0.00  0.00    +0.000 OA
ATOM      8  C   UNL     1       7.387   7.291  17.459  0.00  0.00    +0.000 C 
ENDBRANCH   2   7
BRANCH   4   9
ATOM      9  C   UNL     1       1.892   8.410  18.430  0.00  0.00    +0.000 C 
ATOM     10  O   UNL     1       1.601   9.343  17.694  0.00  0.00    +0.000 OA
BRANCH   9  11
ATOM     11  O   UNL     1       1.446   8.394  19.708  0.00  0.00    +0.000 OA
BRANCH  11  12
ATOM     12  C   UNL     1       1.277   9.543  20.449  0.00  0.00    +0.000 C 
BRANCH  12  13
ATOM     13  C   UNL     1      -0.210   9.796  20.747  0.00  0.00    +0.000 C 
BRANCH  13  14
ATOM     14  N   UNL     1      -0.538  11.219  21.087  0.00  0.00    +0.000 N 
ATOM     15  C   UNL     1      -1.107  11.329  22.451  0.00  0.00    +0.000 C 
ATOM     16  C   UNL     1       0.660  12.091  20.982  0.00  0.00    +0.000 C 
ATOM     17  C   UNL     1      -1.548  11.706  20.122  0.00  0.00    +0.000 C 
ENDBRANCH  13  14
ENDBRANCH  12  13
ENDBRANCH  11  12
ENDBRANCH   9  11
ENDBRANCH   4   9
BRANCH   6  18
ATOM     18  O   UNL     1       2.836   3.740  17.861  0.00  0.00    +0.000 OA
ATOM     19  C   UNL     1       1.595   3.331  18.281  0.00  0.00    +0.000 C 
ENDBRANCH   6  18
BRANCH   1  20
ATOM     20  O   UNL     1       5.539   4.313  16.899  0.00  0.00    +0.000 OA
BRANCH  20  21
ATOM     21  C   UNL     1       5.594   3.675  15.663  0.00  0.00    +0.000 C 
BRANCH  21  22
ATOM     22  C   UNL     1       6.638   4.278  14.725  0.00  0.00    +0.000 C 
BRANCH  22  23
ATOM     23  C   UNL     1       6.442   3.882  13.254  0.00  0.00    +0.000 C 
BRANCH  23  24
ATOM     24  C   UNL     1       4.966   3.709  12.846  0.00  0.00    +0.000 C 
BRANCH  24  26
ATOM     25  C   UNL     1       3.563   3.285  10.789  0.00  0.00    +0.000 C 
ATOM     26  C   UNL     1       4.862   2.955  11.518  0.00  0.00    +0.000 C 
ENDBRANCH  24  26
ENDBRANCH  23  24
ENDBRANCH  22  23
ENDBRANCH  21  22
ENDBRANCH  20  21
ENDBRANCH   1  20
TORSDOF 13
ENDMDL
