MODEL 1
REMARK VINA RESULT:      -8.1      0.000      0.000
REMARK  Name = 
REMARK  5 active torsions:
REMARK  status: ('A' for Active; 'I' for Inactive)
REMARK    1  A    between atoms: C_1  and  C_2
REMARK    2  A    between atoms: C_2  and  O_3
REMARK    3  A    between atoms: O_3  and  C_4
REMARK    4  A    between atoms: C_4  and  C_6
REMARK    5  A    between atoms: N_8  and  N_9
REMARK                            x       y       z     vdW  Elec       q    Type
REMARK                         _______ _______ _______ _____ _____    ______ ____
ROOT
ATOM      1  N   UNL     1       6.561   4.498  14.369  0.00  0.00    +0.000 N 
ATOM      2  C   UNL     1       5.727   4.678  15.422  0.00  0.00    +0.000 A 
ATOM      3  N   UNL     1       5.140   3.712  16.098  0.00  0.00    +0.000 NA
ATOM      4  C   UNL     1       4.390   4.243  17.141  0.00  0.00    +0.000 A 
ATOM      5  C   UNL     1       4.348   5.616  17.173  0.00  0.00    +0.000 A 
ATOM      6  S   UNL     1       5.353   6.274  15.972  0.00  0.00    +0.000 S 
ATOM      7  C   UNL     1       3.583   6.400  18.106  0.00  0.00    +0.000 C 
ATOM      8  O   UNL     1       3.528   7.624  18.122  0.00  0.00    +0.000 OA
ATOM      9  C   UNL     1       2.813   5.610  19.114  0.00  0.00    +0.000 A 
ATOM     10  C   UNL     1       2.011   6.285  20.048  0.00  0.00    +0.000 A 
ATOM     11  C   UNL     1       1.310   5.567  21.019  0.00  0.00    +0.000 A 
ATOM     12  C   UNL     1       1.413   4.178  21.072  0.00  0.00    +0.000 A 
ATOM     13  C   UNL     1       2.199   3.498  20.140  0.00  0.00    +0.000 A 
ATOM     14  C   UNL     1       2.893   4.207  19.148  0.00  0.00    +0.000 A 
ATOM     15  C   UNL     1       3.690   3.443  18.139  0.00  0.00    +0.000 C 
ATOM     16  O   UNL     1       3.734   2.220  18.183  0.00  0.00    +0.000 OA
ATOM     17  H   UNL     1       6.926   5.326  13.892  0.00  0.00    +0.000 HD
ENDROOT
BRANCH   1  20
ATOM     18  C   UNL     1       6.805   3.523  12.195  0.00  0.00    +0.000 C 
ATOM     19  O   UNL     1       7.288   4.543  11.716  0.00  0.00    +0.000 OA
ATOM     20  N   UNL     1       6.437   3.385  13.524  0.00  0.00    +0.000 N 
ATOM     21  H   UNL     1       5.952   2.560  13.882  0.00  0.00    +0.000 HD
BRANCH  18  22
ATOM     22  C   UNL     1       6.538   2.255  11.355  0.00  0.00    +0.000 C 
ATOM     23  O   UNL     1       7.460   1.613  10.871  0.00  0.00    +0.000 OA
BRANCH  22  24
ATOM     24  O   UNL     1       5.220   1.994  11.257  0.00  0.00    +0.000 OA
BRANCH  24  26
ATOM     25  C   UNL     1       3.368   3.253  10.309  0.00  0.00    +0.000 C 
ATOM     26  C   UNL     1       4.342   3.112  11.464  0.00  0.00    +0.000 C 
ENDBRANCH  24  26
ENDBRANCH  22  24
ENDBRANCH  18  22
ENDBRANCH   1  20
TORSDOF 4
ENDMDL
MODEL 2
REMARK VINA RESULT:      -7.9      3.814      5.853
REMARK  Name = 
REMARK  5 active torsions:
REMARK  status: ('A' for Active; 'I' for Inactive)
REMARK    1  A    between atoms: C_1  and  C_2
REMARK    2  A    between atoms: C_2  and  O_3
REMARK    3  A    between atoms: O_3  and  C_4
REMARK    4  A    between atoms: C_4  and  C_6
REMARK    5  A    between atoms: N_8  and  N_9
REMARK                            x       y       z     vdW  Elec       q    Type
REMARK                         _______ _______ _______ _____ _____    ______ ____
ROOT
ATOM      1  N   UNL     1       3.595   4.782  18.361  0.00  0.00    +0.000 N 
ATOM      2  C   UNL     1       2.991   5.921  18.780  0.00  0.00    +0.000 A 
ATOM      3  N   UNL     1       2.930   7.042  18.092  0.00  0.00    +0.000 NA
ATOM      4  C   UNL     1       2.200   7.996  18.793  0.00  0.00    +0.000 A 
ATOM      5  C   UNL     1       1.806   7.603  20.050  0.00  0.00    +0.000 A 
ATOM      6  S   UNL     1       2.229   5.982  20.330  0.00  0.00    +0.000 S 
ATOM      7  C   UNL     1       1.108   8.432  20.995  0.00  0.00    +0.000 C 
ATOM      8  O   UNL     1       0.774   8.088  22.124  0.00  0.00    +0.000 OA
ATOM      9  C   UNL     1       0.787   9.809  20.515  0.00  0.00    +0.000 A 
ATOM     10  C   UNL     1       0.134  10.704  21.378  0.00  0.00    +0.000 A 
ATOM     11  C   UNL     1      -0.204  11.985  20.936  0.00  0.00    +0.000 A 
ATOM     12  C   UNL     1       0.097  12.377  19.632  0.00  0.00    +0.000 A 
ATOM     13  C   UNL     1       0.757  11.498  18.771  0.00  0.00    +0.000 A 
ATOM     14  C   UNL     1       1.118  10.215  19.210  0.00  0.00    +0.000 A 
ATOM     15  C   UNL     1       1.862   9.316  18.275  0.00  0.00    +0.000 C 
ATOM     16  O   UNL     1       2.149   9.698  17.147  0.00  0.00    +0.000 OA
ATOM     17  H   UNL     1       3.618   3.983  18.998  0.00  0.00    +0.000 HD
ENDROOT
BRANCH   1  20
ATOM     18  C   UNL     1       5.958   4.627  18.001  0.00  0.00    +0.000 C 
ATOM     19  O   UNL     1       6.190   4.372  19.177  0.00  0.00    +0.000 OA
ATOM     20  N   UNL     1       4.687   4.818  17.481  0.00  0.00    +0.000 N 
ATOM     21  H   UNL     1       4.522   5.119  16.519  0.00  0.00    +0.000 HD
BRANCH  18  22
ATOM     22  C   UNL     1       7.075   4.777  16.945  0.00  0.00    +0.000 C 
ATOM     23  O   UNL     1       8.156   4.221  17.087  0.00  0.00    +0.000 OA
BRANCH  22  24
ATOM     24  O   UNL     1       6.687   5.560  15.920  0.00  0.00    +0.000 OA
BRANCH  24  26
ATOM     25  C   UNL     1       6.109   3.910  14.230  0.00  0.00    +0.000 C 
ATOM     26  C   UNL     1       7.004   5.076  14.605  0.00  0.00    +0.000 C 
ENDBRANCH  24  26
ENDBRANCH  22  24
ENDBRANCH  18  22
ENDBRANCH   1  20
TORSDOF 4
ENDMDL
MODEL 3
REMARK VINA RESULT:      -7.8      4.091      6.412
REMARK  Name = 
REMARK  5 active torsions:
REMARK  status: ('A' for Active; 'I' for Inactive)
REMARK    1  A    between atoms: C_1  and  C_2
REMARK    2  A    between atoms: C_2  and  O_3
REMARK    3  A    between atoms: O_3  and  C_4
REMARK    4  A    between atoms: C_4  and  C_6
REMARK    5  A    between atoms: N_8  and  N_9
REMARK                            x       y       z     vdW  Elec       q    Type
REMARK                         _______ _______ _______ _____ _____    ______ ____
ROOT
ATOM      1  N   UNL     1       3.700   5.212  18.115  0.00  0.00    +0.000 N 
ATOM      2  C   UNL     1       3.033   6.283  18.609  0.00  0.00    +0.000 A 
ATOM      3  N   UNL     1       2.947   7.459  18.021  0.00  0.00    +0.000 NA
ATOM      4  C   UNL     1       2.152   8.315  18.774  0.00  0.00    +0.000 A 
ATOM      5  C   UNL     1       1.731   7.795  19.975  0.00  0.00    +0.000 A 
ATOM      6  S   UNL     1       2.214   6.173  20.127  0.00  0.00    +0.000 S 
ATOM      7  C   UNL     1       0.964   8.506  20.962  0.00  0.00    +0.000 C 
ATOM      8  O   UNL     1       0.605   8.049  22.042  0.00  0.00    +0.000 OA
ATOM      9  C   UNL     1       0.601   9.908  20.593  0.00  0.00    +0.000 A 
ATOM     10  C   UNL     1      -0.121  10.694  21.505  0.00  0.00    +0.000 A 
ATOM     11  C   UNL     1      -0.498  11.995  21.165  0.00  0.00    +0.000 A 
ATOM     12  C   UNL     1      -0.168  12.514  19.915  0.00  0.00    +0.000 A 
ATOM     13  C   UNL     1       0.560  11.744  19.006  0.00  0.00    +0.000 A 
ATOM     14  C   UNL     1       0.960  10.442  19.343  0.00  0.00    +0.000 A 
ATOM     15  C   UNL     1       1.776   9.662  18.362  0.00  0.00    +0.000 C 
ATOM     16  O   UNL     1       2.086  10.155  17.284  0.00  0.00    +0.000 OA
ATOM     17  H   UNL     1       3.736   4.360  18.679  0.00  0.00    +0.000 HD
ENDROOT
BRANCH   1  20
ATOM     18  C   UNL     1       6.055   4.953  17.759  0.00  0.00    +0.000 C 
ATOM     19  O   UNL     1       6.227   4.400  18.838  0.00  0.00    +0.000 OA
ATOM     20  N   UNL     1       4.821   5.371  17.285  0.00  0.00    +0.000 N 
ATOM     21  H   UNL     1       4.711   5.911  16.425  0.00  0.00    +0.000 HD
BRANCH  18  22
ATOM     22  C   UNL     1       7.215   5.263  16.787  0.00  0.00    +0.000 C 
ATOM     23  O   UNL     1       7.801   4.365  16.198  0.00  0.00    +0.000 OA
BRANCH  22  24
ATOM     24  O   UNL     1       7.451   6.586  16.704  0.00  0.00    +0.000 OA
BRANCH  24  26
ATOM     25  C   UNL     1       7.953   8.735  17.725  0.00  0.00    +0.000 C 
ATOM     26  C   UNL     1       7.795   7.242  17.936  0.00  0.00    +0.000 C 
ENDBRANCH  24  26
ENDBRANCH  22  24
ENDBRANCH  18  22
ENDBRANCH   1  20
TORSDOF 4
ENDMDL
MODEL 4
REMARK VINA RESULT:      -7.7      5.558      8.506
REMARK  Name = 
REMARK  5 active torsions:
REMARK  status: ('A' for Active; 'I' for Inactive)
REMARK    1  A    between atoms: C_1  and  C_2
REMARK    2  A    between atoms: C_2  and  O_3
REMARK    3  A    between atoms: O_3  and  C_4
REMARK    4  A    between atoms: C_4  and  C_6
REMARK    5  A    between atoms: N_8  and  N_9
REMARK                            x       y       z     vdW  Elec       q    Type
REMARK                         _______ _______ _______ _____ _____    ______ ____
ROOT
ATOM      1  N   UNL     1       2.697   7.135  19.837  0.00  0.00    +0.000 N 
ATOM      2  C   UNL     1       1.830   8.129  20.148  0.00  0.00    +0.000 A 
ATOM      3  N   UNL     1       1.349   8.365  21.351  0.00  0.00    +0.000 NA
ATOM      4  C   UNL     1       0.524   9.484  21.328  0.00  0.00    +0.000 A 
ATOM      5  C   UNL     1       0.321  10.018  20.078  0.00  0.00    +0.000 A 
ATOM      6  S   UNL     1       1.263   9.205  18.920  0.00  0.00    +0.000 S 
ATOM      7  C   UNL     1      -0.546  11.126  19.781  0.00  0.00    +0.000 C 
ATOM      8  O   UNL     1      -0.744  11.588  18.663  0.00  0.00    +0.000 OA
ATOM      9  C   UNL     1      -1.236  11.725  20.963  0.00  0.00    +0.000 A 
ATOM     10  C   UNL     1      -2.127  12.792  20.771  0.00  0.00    +0.000 A 
ATOM     11  C   UNL     1      -2.756  13.387  21.867  0.00  0.00    +0.000 A 
ATOM     12  C   UNL     1      -2.492  12.930  23.158  0.00  0.00    +0.000 A 
ATOM     13  C   UNL     1      -1.616  11.861  23.357  0.00  0.00    +0.000 A 
ATOM     14  C   UNL     1      -0.993  11.243  22.262  0.00  0.00    +0.000 A 
ATOM     15  C   UNL     1      -0.094  10.074  22.509  0.00  0.00    +0.000 C 
ATOM     16  O   UNL     1       0.091   9.666  23.649  0.00  0.00    +0.000 OA
ATOM     17  H   UNL     1       2.972   7.020  18.858  0.00  0.00    +0.000 HD
ENDROOT
BRANCH   1  20
ATOM     18  C   UNL     1       2.250   4.784  19.943  0.00  0.00    +0.000 C 
ATOM     19  O   UNL     1       1.867   4.735  18.781  0.00  0.00    +0.000 OA
ATOM     20  N   UNL     1       2.719   5.934  20.561  0.00  0.00    +0.000 N 
ATOM     21  H   UNL     1       2.946   5.975  21.556  0.00  0.00    +0.000 HD
BRANCH  18  22
ATOM     22  C   UNL     1       2.246   3.553  20.875  0.00  0.00    +0.000 C 
ATOM     23  O   UNL     1       2.159   3.680  22.089  0.00  0.00    +0.000 OA
BRANCH  22  24
ATOM     24  O   UNL     1       2.346   2.404  20.179  0.00  0.00    +0.000 OA
BRANCH  24  26
ATOM     25  C   UNL     1       3.481   1.671  18.157  0.00  0.00    +0.000 C 
ATOM     26  C   UNL     1       3.630   2.132  19.595  0.00  0.00    +0.000 C 
ENDBRANCH  24  26
ENDBRANCH  22  24
ENDBRANCH  18  22
ENDBRANCH   1  20
TORSDOF 4
ENDMDL
MODEL 5
REMARK VINA RESULT:      -7.7      5.133      7.768
REMARK  Name = 
REMARK  5 active torsions:
REMARK  status: ('A' for Active; 'I' for Inactive)
REMARK    1  A    between atoms: C_1  and  C_2
REMARK    2  A    between atoms: C_2  and  O_3
REMARK    3  A    between atoms: O_3  and  C_4
REMARK    4  A    between atoms: C_4  and  C_6
REMARK    5  A    between atoms: N_8  and  N_9
REMARK                            x       y       z     vdW  Elec       q    Type
REMARK                         _______ _______ _______ _____ _____    ______ ____
ROOT
ATOM      1  N   UNL     1       2.881   7.336  18.342  0.00  0.00    +0.000 N 
ATOM      2  C   UNL     1       2.020   8.218  18.903  0.00  0.00    +0.000 A 
ATOM      3  N   UNL     1       1.674   8.235  20.174  0.00  0.00    +0.000 NA
ATOM      4  C   UNL     1       0.811   9.296  20.423  0.00  0.00    +0.000 A 
ATOM      5  C   UNL     1       0.442  10.006  19.306  0.00  0.00    +0.000 A 
ATOM      6  S   UNL     1       1.272   9.440  17.936  0.00  0.00    +0.000 S 
ATOM      7  C   UNL     1      -0.495  11.097  19.290  0.00  0.00    +0.000 C 
ATOM      8  O   UNL     1      -0.840  11.717  18.290  0.00  0.00    +0.000 OA
ATOM      9  C   UNL     1      -1.063  11.463  20.622  0.00  0.00    +0.000 A 
ATOM     10  C   UNL     1      -2.011  12.496  20.705  0.00  0.00    +0.000 A 
ATOM     11  C   UNL     1      -2.529  12.875  21.945  0.00  0.00    +0.000 A 
ATOM     12  C   UNL     1      -2.098  12.237  23.107  0.00  0.00    +0.000 A 
ATOM     13  C   UNL     1      -1.165  11.201  23.033  0.00  0.00    +0.000 A 
ATOM     14  C   UNL     1      -0.652  10.798  21.791  0.00  0.00    +0.000 A 
ATOM     15  C   UNL     1       0.313   9.657  21.744  0.00  0.00    +0.000 C 
ATOM     16  O   UNL     1       0.646   9.086  22.776  0.00  0.00    +0.000 OA
ATOM     17  H   UNL     1       3.043   7.391  17.333  0.00  0.00    +0.000 HD
ENDROOT
BRANCH   1  20
ATOM     18  C   UNL     1       4.274   5.429  18.748  0.00  0.00    +0.000 C 
ATOM     19  O   UNL     1       5.269   5.971  18.282  0.00  0.00    +0.000 OA
ATOM     20  N   UNL     1       3.033   6.038  18.854  0.00  0.00    +0.000 N 
ATOM     21  H   UNL     1       2.196   5.540  19.160  0.00  0.00    +0.000 HD
BRANCH  18  22
ATOM     22  C   UNL     1       4.284   3.976  19.269  0.00  0.00    +0.000 C 
ATOM     23  O   UNL     1       5.334   3.411  19.542  0.00  0.00    +0.000 OA
BRANCH  22  24
ATOM     24  O   UNL     1       3.037   3.476  19.368  0.00  0.00    +0.000 OA
BRANCH  24  26
ATOM     25  C   UNL     1       2.095   3.347  21.606  0.00  0.00    +0.000 C 
ATOM     26  C   UNL     1       2.796   2.604  20.484  0.00  0.00    +0.000 C 
ENDBRANCH  24  26
ENDBRANCH  22  24
ENDBRANCH  18  22
ENDBRANCH   1  20
TORSDOF 4
ENDMDL
MODEL 6
REMARK VINA RESULT:      -7.6      5.173      7.708
REMARK  Name = 
REMARK  5 active torsions:
REMARK  status: ('A' for Active; 'I' for Inactive)
REMARK    1  A    between atoms: C_1  and  C_2
REMARK    2  A    between atoms: C_2  and  O_3
REMARK    3  A    between atoms: O_3  and  C_4
REMARK    4  A    between atoms: C_4  and  C_6
REMARK    5  A    between atoms: N_8  and  N_9
REMARK                            x       y       z     vdW  Elec       q    Type
REMARK                         _______ _______ _______ _____ _____    ______ ____
ROOT
ATOM      1  N   UNL     1       3.118   7.149  18.237  0.00  0.00    +0.000 N 
ATOM      2  C   UNL     1       2.239   8.009  18.806  0.00  0.00    +0.000 A 
ATOM      3  N   UNL     1       1.941   8.048  20.088  0.00  0.00    +0.000 NA
ATOM      4  C   UNL     1       1.040   9.077  20.340  0.00  0.00    +0.000 A 
ATOM      5  C   UNL     1       0.598   9.737  19.218  0.00  0.00    +0.000 A 
ATOM      6  S   UNL     1       1.401   9.166  17.834  0.00  0.00    +0.000 S 
ATOM      7  C   UNL     1      -0.388  10.784  19.207  0.00  0.00    +0.000 C 
ATOM      8  O   UNL     1      -0.798  11.358  18.204  0.00  0.00    +0.000 OA
ATOM      9  C   UNL     1      -0.922  11.164  20.549  0.00  0.00    +0.000 A 
ATOM     10  C   UNL     1      -1.912  12.156  20.639  0.00  0.00    +0.000 A 
ATOM     11  C   UNL     1      -2.399  12.549  21.887  0.00  0.00    +0.000 A 
ATOM     12  C   UNL     1      -1.898  11.966  23.050  0.00  0.00    +0.000 A 
ATOM     13  C   UNL     1      -0.922  10.971  22.969  0.00  0.00    +0.000 A 
ATOM     14  C   UNL     1      -0.437  10.554  21.720  0.00  0.00    +0.000 A 
ATOM     15  C   UNL     1       0.576   9.456  21.669  0.00  0.00    +0.000 C 
ATOM     16  O   UNL     1       0.973   8.932  22.702  0.00  0.00    +0.000 OA
ATOM     17  H   UNL     1       3.240   7.181  17.221  0.00  0.00    +0.000 HD
ENDROOT
BRANCH   1  20
ATOM     18  C   UNL     1       2.546   4.826  18.359  0.00  0.00    +0.000 C 
ATOM     19  O   UNL     1       1.680   4.923  17.498  0.00  0.00    +0.000 OA
ATOM     20  N   UNL     1       3.348   5.876  18.780  0.00  0.00    +0.000 N 
ATOM     21  H   UNL     1       4.000   5.796  19.562  0.00  0.00    +0.000 HD
BRANCH  18  22
ATOM     22  C   UNL     1       2.843   3.502  19.096  0.00  0.00    +0.000 C 
ATOM     23  O   UNL     1       3.993   3.158  19.336  0.00  0.00    +0.000 OA
BRANCH  22  24
ATOM     24  O   UNL     1       1.711   2.842  19.407  0.00  0.00    +0.000 OA
BRANCH  24  26
ATOM     25  C   UNL     1       1.594   2.644  21.828  0.00  0.00    +0.000 C 
ATOM     26  C   UNL     1       1.023   3.297  20.584  0.00  0.00    +0.000 C 
ENDBRANCH  24  26
ENDBRANCH  22  24
ENDBRANCH  18  22
ENDBRANCH   1  20
TORSDOF 4
ENDMDL
MODEL 7
REMARK VINA RESULT:      -7.6      4.620      6.819
REMARK  Name = 
REMARK  5 active torsions:
REMARK  status: ('A' for Active; 'I' for Inactive)
REMARK    1  A    between atoms: C_1  and  C_2
REMARK    2  A    between atoms: C_2  and  O_3
REMARK    3  A    between atoms: O_3  and  C_4
REMARK    4  A    between atoms: C_4  and  C_6
REMARK    5  A    between atoms: N_8  and  N_9
REMARK                            x       y       z     vdW  Elec       q    Type
REMARK                         _______ _______ _______ _____ _____    ______ ____
ROOT
ATOM      1  N   UNL     1       7.637   7.009  16.837  0.00  0.00    +0.000 N 
ATOM      2  C   UNL     1       6.648   6.337  17.475  0.00  0.00    +0.000 A 
ATOM      3  N   UNL     1       5.496   6.857  17.847  0.00  0.00    +0.000 NA
ATOM      4  C   UNL     1       4.697   5.883  18.433  0.00  0.00    +0.000 A 
ATOM      5  C   UNL     1       5.304   4.659  18.582  0.00  0.00    +0.000 A 
ATOM      6  S   UNL     1       6.847   4.667  17.871  0.00  0.00    +0.000 S 
ATOM      7  C   UNL     1       4.715   3.515  19.224  0.00  0.00    +0.000 C 
ATOM      8  O   UNL     1       5.264   2.429  19.375  0.00  0.00    +0.000 OA
ATOM      9  C   UNL     1       3.323   3.718  19.728  0.00  0.00    +0.000 A 
ATOM     10  C   UNL     1       2.675   2.668  20.398  0.00  0.00    +0.000 A 
ATOM     11  C   UNL     1       1.362   2.828  20.847  0.00  0.00    +0.000 A 
ATOM     12  C   UNL     1       0.687   4.026  20.622  0.00  0.00    +0.000 A 
ATOM     13  C   UNL     1       1.328   5.080  19.968  0.00  0.00    +0.000 A 
ATOM     14  C   UNL     1       2.653   4.938  19.528  0.00  0.00    +0.000 A 
ATOM     15  C   UNL     1       3.323   6.101  18.870  0.00  0.00    +0.000 C 
ATOM     16  O   UNL     1       2.721   7.157  18.719  0.00  0.00    +0.000 OA
ATOM     17  H   UNL     1       8.508   6.513  16.634  0.00  0.00    +0.000 HD
ENDROOT
BRANCH   1  20
ATOM     18  C   UNL     1       8.428   8.821  18.189  0.00  0.00    +0.000 C 
ATOM     19  O   UNL     1       8.874   8.074  19.052  0.00  0.00    +0.000 OA
ATOM     20  N   UNL     1       7.818   8.388  17.022  0.00  0.00    +0.000 N 
ATOM     21  H   UNL     1       7.372   9.026  16.361  0.00  0.00    +0.000 HD
BRANCH  18  22
ATOM     22  C   UNL     1       8.487  10.360  18.309  0.00  0.00    +0.000 C 
ATOM     23  O   UNL     1       7.974  11.079  17.462  0.00  0.00    +0.000 OA
BRANCH  22  24
ATOM     24  O   UNL     1       9.146  10.746  19.418  0.00  0.00    +0.000 OA
BRANCH  24  26
ATOM     25  C   UNL     1      11.330  11.579  18.747  0.00  0.00    +0.000 C 
ATOM     26  C   UNL     1       9.956  11.926  19.289  0.00  0.00    +0.000 C 
ENDBRANCH  24  26
ENDBRANCH  22  24
ENDBRANCH  18  22
ENDBRANCH   1  20
TORSDOF 4
ENDMDL
MODEL 8
REMARK VINA RESULT:      -7.5      2.128      3.594
REMARK  Name = 
REMARK  5 active torsions:
REMARK  status: ('A' for Active; 'I' for Inactive)
REMARK    1  A    between atoms: C_1  and  C_2
REMARK    2  A    between atoms: C_2  and  O_3
REMARK    3  A    between atoms: O_3  and  C_4
REMARK    4  A    between atoms: C_4  and  C_6
REMARK    5  A    between atoms: N_8  and  N_9
REMARK                            x       y       z     vdW  Elec       q    Type
REMARK                         _______ _______ _______ _____ _____    ______ ____
ROOT
ATOM      1  N   UNL     1       5.368   3.558  16.486  0.00  0.00    +0.000 N 
ATOM      2  C   UNL     1       4.614   4.380  17.256  0.00  0.00    +0.000 A 
ATOM      3  N   UNL     1       4.309   5.626  16.960  0.00  0.00    +0.000 NA
ATOM      4  C   UNL     1       3.485   6.165  17.942  0.00  0.00    +0.000 A 
ATOM      5  C   UNL     1       3.262   5.339  19.017  0.00  0.00    +0.000 A 
ATOM      6  S   UNL     1       3.975   3.818  18.761  0.00  0.00    +0.000 S 
ATOM      7  C   UNL     1       2.509   5.691  20.190  0.00  0.00    +0.000 C 
ATOM      8  O   UNL     1       2.328   4.962  21.159  0.00  0.00    +0.000 OA
ATOM      9  C   UNL     1       1.923   7.066  20.177  0.00  0.00    +0.000 A 
ATOM     10  C   UNL     1       1.197   7.514  21.293  0.00  0.00    +0.000 A 
ATOM     11  C   UNL     1       0.613   8.782  21.286  0.00  0.00    +0.000 A 
ATOM     12  C   UNL     1       0.741   9.605  20.168  0.00  0.00    +0.000 A 
ATOM     13  C   UNL     1       1.471   9.172  19.059  0.00  0.00    +0.000 A 
ATOM     14  C   UNL     1       2.078   7.907  19.062  0.00  0.00    +0.000 A 
ATOM     15  C   UNL     1       2.889   7.493  17.875  0.00  0.00    +0.000 C 
ATOM     16  O   UNL     1       3.018   8.250  16.920  0.00  0.00    +0.000 OA
ATOM     17  H   UNL     1       5.576   2.620  16.837  0.00  0.00    +0.000 HD
ENDROOT
BRANCH   1  20
ATOM     18  C   UNL     1       6.036   4.342  14.323  0.00  0.00    +0.000 C 
ATOM     19  O   UNL     1       4.908   4.226  13.857  0.00  0.00    +0.000 OA
ATOM     20  N   UNL     1       6.367   4.065  15.641  0.00  0.00    +0.000 N 
ATOM     21  H   UNL     1       7.328   4.079  15.985  0.00  0.00    +0.000 HD
BRANCH  18  22
ATOM     22  C   UNL     1       7.242   4.809  13.480  0.00  0.00    +0.000 C 
ATOM     23  O   UNL     1       8.091   5.553  13.951  0.00  0.00    +0.000 OA
BRANCH  22  24
ATOM     24  O   UNL     1       7.204   4.296  12.234  0.00  0.00    +0.000 OA
BRANCH  24  26
ATOM     25  C   UNL     1       7.313   2.134  11.129  0.00  0.00    +0.000 C 
ATOM     26  C   UNL     1       6.557   3.021  12.100  0.00  0.00    +0.000 C 
ENDBRANCH  24  26
ENDBRANCH  22  24
ENDBRANCH  18  22
ENDBRANCH   1  20
TORSDOF 4
ENDMDL
MODEL 9
REMARK VINA RESULT:      -7.5      4.853      9.945
REMARK  Name = 
REMARK  5 active torsions:
REMARK  status: ('A' for Active; 'I' for Inactive)
REMARK    1  A    between atoms: C_1  and  C_2
REMARK    2  A    between atoms: C_2  and  O_3
REMARK    3  A    between atoms: O_3  and  C_4
REMARK    4  A    between atoms: C_4  and  C_6
REMARK    5  A    between atoms: N_8  and  N_9
REMARK                            x       y       z     vdW  Elec       q    Type
REMARK                         _______ _______ _______ _____ _____    ______ ____
ROOT
ATOM      1  N   UNL     1       1.025   7.752  21.630  0.00  0.00    +0.000 N 
ATOM      2  C   UNL     1       1.720   7.121  20.653  0.00  0.00    +0.000 A 
ATOM      3  N   UNL     1       2.314   7.718  19.639  0.00  0.00    +0.000 NA
ATOM      4  C   UNL     1       2.974   6.782  18.851  0.00  0.00    +0.000 A 
ATOM      5  C   UNL     1       2.783   5.476  19.234  0.00  0.00    +0.000 A 
ATOM      6  S   UNL     1       1.876   5.400  20.669  0.00  0.00    +0.000 S 
ATOM      7  C   UNL     1       3.297   4.326  18.540  0.00  0.00    +0.000 C 
ATOM      8  O   UNL     1       3.109   3.160  18.870  0.00  0.00    +0.000 OA
ATOM      9  C   UNL     1       4.117   4.631  17.330  0.00  0.00    +0.000 A 
ATOM     10  C   UNL     1       4.636   3.572  16.567  0.00  0.00    +0.000 A 
ATOM     11  C   UNL     1       5.433   3.837  15.451  0.00  0.00    +0.000 A 
ATOM     12  C   UNL     1       5.725   5.154  15.096  0.00  0.00    +0.000 A 
ATOM     13  C   UNL     1       5.203   6.212  15.842  0.00  0.00    +0.000 A 
ATOM     14  C   UNL     1       4.386   5.959  16.954  0.00  0.00    +0.000 A 
ATOM     15  C   UNL     1       3.808   7.117  17.704  0.00  0.00    +0.000 C 
ATOM     16  O   UNL     1       4.048   8.265  17.349  0.00  0.00    +0.000 OA
ATOM     17  H   UNL     1       0.569   7.182  22.346  0.00  0.00    +0.000 HD
ENDROOT
BRANCH   1  20
ATOM     18  C   UNL     1       0.188   9.844  22.443  0.00  0.00    +0.000 C 
ATOM     19  O   UNL     1       0.624   9.658  23.573  0.00  0.00    +0.000 OA
ATOM     20  N   UNL     1       0.362   8.965  21.386  0.00  0.00    +0.000 N 
ATOM     21  H   UNL     1      -0.087   9.094  20.477  0.00  0.00    +0.000 HD
BRANCH  18  22
ATOM     22  C   UNL     1      -0.631  11.097  22.062  0.00  0.00    +0.000 C 
ATOM     23  O   UNL     1      -1.107  11.223  20.942  0.00  0.00    +0.000 OA
BRANCH  22  24
ATOM     24  O   UNL     1      -0.726  11.959  23.093  0.00  0.00    +0.000 OA
BRANCH  24  26
ATOM     25  C   UNL     1      -3.097  12.249  23.546  0.00  0.00    +0.000 C 
ATOM     26  C   UNL     1      -1.820  12.888  23.035  0.00  0.00    +0.000 C 
ENDBRANCH  24  26
ENDBRANCH  22  24
ENDBRANCH  18  22
ENDBRANCH   1  20
TORSDOF 4
ENDMDL
