MODEL 1
REMARK VINA RESULT:      -9.1      0.000      0.000
REMARK  Name = 
REMARK  6 active torsions:
REMARK  status: ('A' for Active; 'I' for Inactive)
REMARK    1  A    between atoms: N_5  and  C_6
REMARK    2  A    between atoms: C_10  and  S_11
REMARK    3  A    between atoms: S_11  and  N_12
REMARK    4  A    between atoms: N_17  and  C_18
REMARK    5  A    between atoms: C_18  and  N_20
REMARK    6  A    between atoms: N_20  and  C_21
REMARK                            x       y       z     vdW  Elec       q    Type
REMARK                         _______ _______ _______ _____ _____    ______ ____
ROOT
ATOM      1  N   UNL     1       8.226   5.359  19.767  0.00  0.00    +0.000 N 
ATOM      2  C   UNL     1       7.897   6.311  18.874  0.00  0.00    +0.000 A 
ATOM      3  N   UNL     1       8.401   7.513  18.860  0.00  0.00    +0.000 NA
ATOM      4  C   UNL     1       7.876   8.094  17.744  0.00  0.00    +0.000 A 
ATOM      5  N   UNL     1       8.193   9.373  17.455  0.00  0.00    +0.000 N 
ATOM      6  N   UNL     1       7.138   7.271  16.990  0.00  0.00    +0.000 NA
ATOM      7  N   UNL     1       7.015   6.171  17.807  0.00  0.00    +0.000 N 
ATOM      8  H   UNL     1       9.039   5.540  20.350  0.00  0.00    +0.000 HD
ATOM      9  H   UNL     1       8.043   4.374  19.594  0.00  0.00    +0.000 HD
ATOM     10  H   UNL     1       7.940   9.719  16.539  0.00  0.00    +0.000 HD
ENDROOT
BRANCH   5  11
ATOM     11  C   UNL     1       8.708  10.362  18.324  0.00  0.00    +0.000 A 
ATOM     12  C   UNL     1       9.243  10.038  19.584  0.00  0.00    +0.000 A 
ATOM     13  C   UNL     1       9.840  11.002  20.401  0.00  0.00    +0.000 A 
ATOM     14  C   UNL     1       9.937  12.316  19.960  0.00  0.00    +0.000 A 
ATOM     15  C   UNL     1       9.424  12.651  18.705  0.00  0.00    +0.000 A 
ATOM     16  C   UNL     1       8.797  11.692  17.895  0.00  0.00    +0.000 A 
BRANCH  15  17
ATOM     17  S   UNL     1       9.559  14.323  18.148  0.00  0.00    +0.000 S 
ATOM     18  O   UNL     1       8.262  14.785  17.711  0.00  0.00    +0.000 OA
ATOM     19  O   UNL     1      10.374  15.070  19.075  0.00  0.00    +0.000 OA
BRANCH  17  20
ATOM     20  N   UNL     1      10.484  14.146  16.755  0.00  0.00    +0.000 NA
ATOM     21  H   UNL     1      10.569  13.158  16.519  0.00  0.00    +0.000 HD
ATOM     22  H   UNL     1      10.101  14.724  16.006  0.00  0.00    +0.000 HD
ENDBRANCH  17  20
ENDBRANCH  15  17
ENDBRANCH   5  11
BRANCH   7  23
ATOM     23  C   UNL     1       6.052   5.165  17.538  0.00  0.00    +0.000 C 
ATOM     24  S   UNL     1       5.913   4.263  16.118  0.00  0.00    +0.000 S 
BRANCH  23  25
ATOM     25  N   UNL     1       5.136   5.099  18.591  0.00  0.00    +0.000 N 
ATOM     26  H   UNL     1       5.414   5.527  19.474  0.00  0.00    +0.000 HD
BRANCH  25  27
ATOM     27  C   UNL     1       3.877   4.448  18.596  0.00  0.00    +0.000 A 
ATOM     28  C   UNL     1       2.718   5.029  18.065  0.00  0.00    +0.000 A 
ATOM     29  F   UNL     1       2.764   6.230  17.476  0.00  0.00    +0.000 F 
ATOM     30  C   UNL     1       1.514   4.326  18.012  0.00  0.00    +0.000 A 
ATOM     31  C   UNL     1       1.443   3.020  18.495  0.00  0.00    +0.000 A 
ATOM     32  C   UNL     1       2.589   2.419  19.014  0.00  0.00    +0.000 A 
ATOM     33  C   UNL     1       3.792   3.129  19.043  0.00  0.00    +0.000 A 
ATOM     34  F   UNL     1       4.879   2.526  19.549  0.00  0.00    +0.000 F 
ENDBRANCH  25  27
ENDBRANCH  23  25
ENDBRANCH   7  23
TORSDOF 6
ENDMDL
MODEL 2
REMARK VINA RESULT:      -9.1      0.677      1.751
REMARK  Name = 
REMARK  6 active torsions:
REMARK  status: ('A' for Active; 'I' for Inactive)
REMARK    1  A    between atoms: N_5  and  C_6
REMARK    2  A    between atoms: C_10  and  S_11
REMARK    3  A    between atoms: S_11  and  N_12
REMARK    4  A    between atoms: N_17  and  C_18
REMARK    5  A    between atoms: C_18  and  N_20
REMARK    6  A    between atoms: N_20  and  C_21
REMARK                            x       y       z     vdW  Elec       q    Type
REMARK                         _______ _______ _______ _____ _____    ______ ____
ROOT
ATOM      1  N   UNL     1       8.211   5.318  19.620  0.00  0.00    +0.000 N 
ATOM      2  C   UNL     1       7.873   6.304  18.768  0.00  0.00    +0.000 A 
ATOM      3  N   UNL     1       8.396   7.498  18.779  0.00  0.00    +0.000 NA
ATOM      4  C   UNL     1       7.851   8.123  17.697  0.00  0.00    +0.000 A 
ATOM      5  N   UNL     1       8.181   9.407  17.441  0.00  0.00    +0.000 N 
ATOM      6  N   UNL     1       7.080   7.338  16.937  0.00  0.00    +0.000 NA
ATOM      7  N   UNL     1       6.961   6.213  17.721  0.00  0.00    +0.000 N 
ATOM      8  H   UNL     1       9.042   5.467  20.185  0.00  0.00    +0.000 HD
ATOM      9  H   UNL     1       8.008   4.343  19.420  0.00  0.00    +0.000 HD
ATOM     10  H   UNL     1       7.909   9.787  16.545  0.00  0.00    +0.000 HD
ENDROOT
BRANCH   5  11
ATOM     11  C   UNL     1       8.735  10.358  18.328  0.00  0.00    +0.000 A 
ATOM     12  C   UNL     1       9.159  10.009  19.623  0.00  0.00    +0.000 A 
ATOM     13  C   UNL     1       9.795  10.927  20.463  0.00  0.00    +0.000 A 
ATOM     14  C   UNL     1      10.045  12.216  20.012  0.00  0.00    +0.000 A 
ATOM     15  C   UNL     1       9.645  12.576  18.722  0.00  0.00    +0.000 A 
ATOM     16  C   UNL     1       8.979  11.665  17.887  0.00  0.00    +0.000 A 
BRANCH  15  17
ATOM     17  S   UNL     1       9.975  14.215  18.153  0.00  0.00    +0.000 S 
ATOM     18  O   UNL     1      10.282  15.060  19.284  0.00  0.00    +0.000 OA
ATOM     19  O   UNL     1      10.818  14.153  16.984  0.00  0.00    +0.000 OA
BRANCH  17  20
ATOM     20  N   UNL     1       8.460  14.699  17.607  0.00  0.00    +0.000 NA
ATOM     21  H   UNL     1       8.556  15.219  16.735  0.00  0.00    +0.000 HD
ATOM     22  H   UNL     1       7.837  13.893  17.547  0.00  0.00    +0.000 HD
ENDBRANCH  17  20
ENDBRANCH  15  17
ENDBRANCH   5  11
BRANCH   7  23
ATOM     23  C   UNL     1       5.975   5.232  17.446  0.00  0.00    +0.000 C 
ATOM     24  S   UNL     1       5.898   4.242  16.082  0.00  0.00    +0.000 S 
BRANCH  23  25
ATOM     25  N   UNL     1       4.983   5.275  18.429  0.00  0.00    +0.000 N 
ATOM     26  H   UNL     1       5.109   5.949  19.184  0.00  0.00    +0.000 HD
BRANCH  25  27
ATOM     27  C   UNL     1       3.840   4.443  18.535  0.00  0.00    +0.000 A 
ATOM     28  C   UNL     1       3.872   3.182  19.143  0.00  0.00    +0.000 A 
ATOM     29  F   UNL     1       4.997   2.722  19.704  0.00  0.00    +0.000 F 
ATOM     30  C   UNL     1       2.710   2.425  19.304  0.00  0.00    +0.000 A 
ATOM     31  C   UNL     1       1.486   2.917  18.853  0.00  0.00    +0.000 A 
ATOM     32  C   UNL     1       1.432   4.176  18.258  0.00  0.00    +0.000 A 
ATOM     33  C   UNL     1       2.600   4.931  18.121  0.00  0.00    +0.000 A 
ATOM     34  F   UNL     1       2.518   6.139  17.543  0.00  0.00    +0.000 F 
ENDBRANCH  25  27
ENDBRANCH  23  25
ENDBRANCH   7  23
TORSDOF 6
ENDMDL
MODEL 3
REMARK VINA RESULT:      -9.0      0.439      1.616
REMARK  Name = 
REMARK  6 active torsions:
REMARK  status: ('A' for Active; 'I' for Inactive)
REMARK    1  A    between atoms: N_5  and  C_6
REMARK    2  A    between atoms: C_10  and  S_11
REMARK    3  A    between atoms: S_11  and  N_12
REMARK    4  A    between atoms: N_17  and  C_18
REMARK    5  A    between atoms: C_18  and  N_20
REMARK    6  A    between atoms: N_20  and  C_21
REMARK                            x       y       z     vdW  Elec       q    Type
REMARK                         _______ _______ _______ _____ _____    ______ ____
ROOT
ATOM      1  N   UNL     1       8.114   5.209  19.740  0.00  0.00    +0.000 N 
ATOM      2  C   UNL     1       7.811   6.137  18.813  0.00  0.00    +0.000 A 
ATOM      3  N   UNL     1       8.291   7.348  18.799  0.00  0.00    +0.000 NA
ATOM      4  C   UNL     1       7.812   7.896  17.647  0.00  0.00    +0.000 A 
ATOM      5  N   UNL     1       8.118   9.176  17.347  0.00  0.00    +0.000 N 
ATOM      6  N   UNL     1       7.129   7.044  16.873  0.00  0.00    +0.000 NA
ATOM      7  N   UNL     1       6.987   5.958  17.706  0.00  0.00    +0.000 N 
ATOM      8  H   UNL     1       8.893   5.418  20.359  0.00  0.00    +0.000 HD
ATOM      9  H   UNL     1       7.960   4.218  19.579  0.00  0.00    +0.000 HD
ATOM     10  H   UNL     1       7.904   9.499  16.413  0.00  0.00    +0.000 HD
ENDROOT
BRANCH   5  11
ATOM     11  C   UNL     1       8.569  10.191  18.221  0.00  0.00    +0.000 A 
ATOM     12  C   UNL     1       9.293   9.899  19.391  0.00  0.00    +0.000 A 
ATOM     13  C   UNL     1       9.822  10.906  20.201  0.00  0.00    +0.000 A 
ATOM     14  C   UNL     1       9.657  12.238  19.843  0.00  0.00    +0.000 A 
ATOM     15  C   UNL     1       8.954  12.546  18.676  0.00  0.00    +0.000 A 
ATOM     16  C   UNL     1       8.396  11.538  17.876  0.00  0.00    +0.000 A 
BRANCH  15  17
ATOM     17  S   UNL     1       8.757  14.243  18.222  0.00  0.00    +0.000 S 
ATOM     18  O   UNL     1       7.515  14.401  17.500  0.00  0.00    +0.000 OA
ATOM     19  O   UNL     1       9.112  15.080  19.342  0.00  0.00    +0.000 OA
BRANCH  17  20
ATOM     20  N   UNL     1       9.983  14.439  17.089  0.00  0.00    +0.000 NA
ATOM     21  H   UNL     1      10.625  15.169  17.396  0.00  0.00    +0.000 HD
ATOM     22  H   UNL     1      10.430  13.541  16.899  0.00  0.00    +0.000 HD
ENDBRANCH  17  20
ENDBRANCH  15  17
ENDBRANCH   5  11
BRANCH   7  23
ATOM     23  C   UNL     1       6.059   4.927  17.410  0.00  0.00    +0.000 C 
ATOM     24  S   UNL     1       5.927   4.083  15.954  0.00  0.00    +0.000 S 
BRANCH  23  25
ATOM     25  N   UNL     1       5.167   4.779  18.475  0.00  0.00    +0.000 N 
ATOM     26  H   UNL     1       5.464   5.142  19.381  0.00  0.00    +0.000 HD
BRANCH  25  27
ATOM     27  C   UNL     1       3.911   4.122  18.460  0.00  0.00    +0.000 A 
ATOM     28  C   UNL     1       3.704   2.864  19.041  0.00  0.00    +0.000 A 
ATOM     29  F   UNL     1       4.693   2.240  19.690  0.00  0.00    +0.000 F 
ATOM     30  C   UNL     1       2.434   2.285  19.080  0.00  0.00    +0.000 A 
ATOM     31  C   UNL     1       1.341   2.954  18.532  0.00  0.00    +0.000 A 
ATOM     32  C   UNL     1       1.525   4.213  17.962  0.00  0.00    +0.000 A 
ATOM     33  C   UNL     1       2.798   4.789  17.947  0.00  0.00    +0.000 A 
ATOM     34  F   UNL     1       2.945   6.002  17.391  0.00  0.00    +0.000 F 
ENDBRANCH  25  27
ENDBRANCH  23  25
ENDBRANCH   7  23
TORSDOF 6
ENDMDL
MODEL 4
REMARK VINA RESULT:      -9.0      6.347      8.977
REMARK  Name = 
REMARK  6 active torsions:
REMARK  status: ('A' for Active; 'I' for Inactive)
REMARK    1  A    between atoms: N_5  and  C_6
REMARK    2  A    between atoms: C_10  and  S_11
REMARK    3  A    between atoms: S_11  and  N_12
REMARK    4  A    between atoms: N_17  and  C_18
REMARK    5  A    between atoms: C_18  and  N_20
REMARK    6  A    between atoms: N_20  and  C_21
REMARK                            x       y       z     vdW  Elec       q    Type
REMARK                         _______ _______ _______ _____ _____    ______ ____
ROOT
ATOM      1  N   UNL     1       1.846  10.538  17.755  0.00  0.00    +0.000 N 
ATOM      2  C   UNL     1       1.717   9.566  18.677  0.00  0.00    +0.000 A 
ATOM      3  N   UNL     1       2.306   8.405  18.611  0.00  0.00    +0.000 NA
ATOM      4  C   UNL     1       1.988   7.789  19.785  0.00  0.00    +0.000 A 
ATOM      5  N   UNL     1       2.437   6.538  20.016  0.00  0.00    +0.000 N 
ATOM      6  N   UNL     1       1.303   8.556  20.641  0.00  0.00    +0.000 NA
ATOM      7  N   UNL     1       0.985   9.641  19.858  0.00  0.00    +0.000 N 
ATOM      8  H   UNL     1       2.581  10.417  17.063  0.00  0.00    +0.000 HD
ATOM      9  H   UNL     1       1.617  11.506  17.960  0.00  0.00    +0.000 HD
ATOM     10  H   UNL     1       2.340   6.176  20.955  0.00  0.00    +0.000 HD
ENDROOT
BRANCH   5  11
ATOM     11  C   UNL     1       2.897   5.589  19.075  0.00  0.00    +0.000 A 
ATOM     12  C   UNL     1       2.030   4.665  18.465  0.00  0.00    +0.000 A 
ATOM     13  C   UNL     1       2.466   3.794  17.464  0.00  0.00    +0.000 A 
ATOM     14  C   UNL     1       3.785   3.846  17.031  0.00  0.00    +0.000 A 
ATOM     15  C   UNL     1       4.657   4.768  17.615  0.00  0.00    +0.000 A 
ATOM     16  C   UNL     1       4.229   5.624  18.642  0.00  0.00    +0.000 A 
BRANCH  15  17
ATOM     17  S   UNL     1       6.331   4.834  17.053  0.00  0.00    +0.000 S 
ATOM     18  O   UNL     1       6.543   6.069  16.333  0.00  0.00    +0.000 OA
ATOM     19  O   UNL     1       7.207   4.397  18.113  0.00  0.00    +0.000 OA
BRANCH  17  20
ATOM     20  N   UNL     1       6.353   3.612  15.898  0.00  0.00    +0.000 NA
ATOM     21  H   UNL     1       6.589   2.724  16.339  0.00  0.00    +0.000 HD
ATOM     22  H   UNL     1       5.472   3.603  15.383  0.00  0.00    +0.000 HD
ENDBRANCH  17  20
ENDBRANCH  15  17
ENDBRANCH   5  11
BRANCH   7  23
ATOM     23  C   UNL     1      -0.003  10.573  20.267  0.00  0.00    +0.000 C 
ATOM     24  S   UNL     1      -0.558  10.819  21.842  0.00  0.00    +0.000 S 
BRANCH  23  25
ATOM     25  N   UNL     1      -0.553  11.196  19.145  0.00  0.00    +0.000 N 
ATOM     26  H   UNL     1       0.041  11.856  18.644  0.00  0.00    +0.000 HD
BRANCH  25  27
ATOM     27  C   UNL     1      -1.875  11.065  18.650  0.00  0.00    +0.000 A 
ATOM     28  C   UNL     1      -2.935  11.867  19.090  0.00  0.00    +0.000 A 
ATOM     29  F   UNL     1      -2.729  12.844  19.981  0.00  0.00    +0.000 F 
ATOM     30  C   UNL     1      -4.206  11.766  18.521  0.00  0.00    +0.000 A 
ATOM     31  C   UNL     1      -4.444  10.852  17.495  0.00  0.00    +0.000 A 
ATOM     32  C   UNL     1      -3.398  10.055  17.033  0.00  0.00    +0.000 A 
ATOM     33  C   UNL     1      -2.126  10.180  17.600  0.00  0.00    +0.000 A 
ATOM     34  F   UNL     1      -1.139   9.399  17.136  0.00  0.00    +0.000 F 
ENDBRANCH  25  27
ENDBRANCH  23  25
ENDBRANCH   7  23
TORSDOF 6
ENDMDL
MODEL 5
REMARK VINA RESULT:      -9.0      1.124      1.982
REMARK  Name = 
REMARK  6 active torsions:
REMARK  status: ('A' for Active; 'I' for Inactive)
REMARK    1  A    between atoms: N_5  and  C_6
REMARK    2  A    between atoms: C_10  and  S_11
REMARK    3  A    between atoms: S_11  and  N_12
REMARK    4  A    between atoms: N_17  and  C_18
REMARK    5  A    between atoms: C_18  and  N_20
REMARK    6  A    between atoms: N_20  and  C_21
REMARK                            x       y       z     vdW  Elec       q    Type
REMARK                         _______ _______ _______ _____ _____    ______ ____
ROOT
ATOM      1  N   UNL     1       8.125   5.304  19.554  0.00  0.00    +0.000 N 
ATOM      2  C   UNL     1       7.819   6.334  18.742  0.00  0.00    +0.000 A 
ATOM      3  N   UNL     1       8.422   7.489  18.760  0.00  0.00    +0.000 NA
ATOM      4  C   UNL     1       7.875   8.179  17.719  0.00  0.00    +0.000 A 
ATOM      5  N   UNL     1       8.280   9.444  17.480  0.00  0.00    +0.000 N 
ATOM      6  N   UNL     1       7.020   7.468  16.975  0.00  0.00    +0.000 NA
ATOM      7  N   UNL     1       6.859   6.333  17.736  0.00  0.00    +0.000 N 
ATOM      8  H   UNL     1       8.988   5.381  20.085  0.00  0.00    +0.000 HD
ATOM      9  H   UNL     1       7.848   4.351  19.339  0.00  0.00    +0.000 HD
ATOM     10  H   UNL     1       7.996   9.866  16.606  0.00  0.00    +0.000 HD
ENDROOT
BRANCH   5  11
ATOM     11  C   UNL     1       8.935  10.331  18.365  0.00  0.00    +0.000 A 
ATOM     12  C   UNL     1       8.954  10.116  19.755  0.00  0.00    +0.000 A 
ATOM     13  C   UNL     1       9.683  10.939  20.617  0.00  0.00    +0.000 A 
ATOM     14  C   UNL     1      10.435  11.987  20.101  0.00  0.00    +0.000 A 
ATOM     15  C   UNL     1      10.440  12.204  18.721  0.00  0.00    +0.000 A 
ATOM     16  C   UNL     1       9.685  11.399  17.855  0.00  0.00    +0.000 A 
BRANCH  15  17
ATOM     17  S   UNL     1      11.406  13.534  18.071  0.00  0.00    +0.000 S 
ATOM     18  O   UNL     1      12.333  13.014  17.093  0.00  0.00    +0.000 OA
ATOM     19  O   UNL     1      10.545  14.659  17.799  0.00  0.00    +0.000 OA
BRANCH  17  20
ATOM     20  N   UNL     1      12.332  13.969  19.405  0.00  0.00    +0.000 NA
ATOM     21  H   UNL     1      11.767  14.516  20.055  0.00  0.00    +0.000 HD
ATOM     22  H   UNL     1      12.760  13.140  19.819  0.00  0.00    +0.000 HD
ENDBRANCH  17  20
ENDBRANCH  15  17
ENDBRANCH   5  11
BRANCH   7  23
ATOM     23  C   UNL     1       5.797   5.428  17.481  0.00  0.00    +0.000 C 
ATOM     24  S   UNL     1       5.614   4.455  16.114  0.00  0.00    +0.000 S 
BRANCH  23  25
ATOM     25  N   UNL     1       4.836   5.537  18.489  0.00  0.00    +0.000 N 
ATOM     26  H   UNL     1       4.929   6.320  19.135  0.00  0.00    +0.000 HD
BRANCH  25  27
ATOM     27  C   UNL     1       3.770   4.643  18.761  0.00  0.00    +0.000 A 
ATOM     28  C   UNL     1       3.955   3.410  19.399  0.00  0.00    +0.000 A 
ATOM     29  F   UNL     1       5.166   3.039  19.829  0.00  0.00    +0.000 F 
ATOM     30  C   UNL     1       2.871   2.592  19.725  0.00  0.00    +0.000 A 
ATOM     31  C   UNL     1       1.573   2.993  19.414  0.00  0.00    +0.000 A 
ATOM     32  C   UNL     1       1.367   4.223  18.792  0.00  0.00    +0.000 A 
ATOM     33  C   UNL     1       2.460   5.040  18.489  0.00  0.00    +0.000 A 
ATOM     34  F   UNL     1       2.231   6.219  17.889  0.00  0.00    +0.000 F 
ENDBRANCH  25  27
ENDBRANCH  23  25
ENDBRANCH   7  23
TORSDOF 6
ENDMDL
MODEL 6
REMARK VINA RESULT:      -9.0      6.158      8.524
REMARK  Name = 
REMARK  6 active torsions:
REMARK  status: ('A' for Active; 'I' for Inactive)
REMARK    1  A    between atoms: N_5  and  C_6
REMARK    2  A    between atoms: C_10  and  S_11
REMARK    3  A    between atoms: S_11  and  N_12
REMARK    4  A    between atoms: N_17  and  C_18
REMARK    5  A    between atoms: C_18  and  N_20
REMARK    6  A    between atoms: N_20  and  C_21
REMARK                            x       y       z     vdW  Elec       q    Type
REMARK                         _______ _______ _______ _____ _____    ______ ____
ROOT
ATOM      1  N   UNL     1       0.604   8.961  21.361  0.00  0.00    +0.000 N 
ATOM      2  C   UNL     1       1.175   8.913  20.143  0.00  0.00    +0.000 A 
ATOM      3  N   UNL     1       1.818   7.883  19.671  0.00  0.00    +0.000 NA
ATOM      4  C   UNL     1       2.127   8.227  18.389  0.00  0.00    +0.000 A 
ATOM      5  N   UNL     1       2.827   7.362  17.624  0.00  0.00    +0.000 N 
ATOM      6  N   UNL     1       1.613   9.397  17.993  0.00  0.00    +0.000 NA
ATOM      7  N   UNL     1       1.142   9.914  19.177  0.00  0.00    +0.000 N 
ATOM      8  H   UNL     1       0.526   8.081  21.864  0.00  0.00    +0.000 HD
ATOM      9  H   UNL     1      -0.113   9.642  21.592  0.00  0.00    +0.000 HD
ATOM     10  H   UNL     1       2.887   7.561  16.634  0.00  0.00    +0.000 HD
ENDROOT
BRANCH   5  11
ATOM     11  C   UNL     1       3.629   6.277  18.046  0.00  0.00    +0.000 A 
ATOM     12  C   UNL     1       3.095   4.992  18.249  0.00  0.00    +0.000 A 
ATOM     13  C   UNL     1       3.905   3.900  18.570  0.00  0.00    +0.000 A 
ATOM     14  C   UNL     1       5.280   4.067  18.672  0.00  0.00    +0.000 A 
ATOM     15  C   UNL     1       5.829   5.333  18.459  0.00  0.00    +0.000 A 
ATOM     16  C   UNL     1       5.015   6.438  18.165  0.00  0.00    +0.000 A 
BRANCH  15  17
ATOM     17  S   UNL     1       7.580   5.535  18.581  0.00  0.00    +0.000 S 
ATOM     18  O   UNL     1       8.234   4.387  17.997  0.00  0.00    +0.000 OA
ATOM     19  O   UNL     1       7.929   6.889  18.223  0.00  0.00    +0.000 OA
BRANCH  17  20
ATOM     20  N   UNL     1       7.824   5.416  20.240  0.00  0.00    +0.000 NA
ATOM     21  H   UNL     1       8.708   4.944  20.428  0.00  0.00    +0.000 HD
ATOM     22  H   UNL     1       7.741   6.337  20.672  0.00  0.00    +0.000 HD
ENDBRANCH  17  20
ENDBRANCH  15  17
ENDBRANCH   5  11
BRANCH   7  23
ATOM     23  C   UNL     1       0.787  11.283  19.286  0.00  0.00    +0.000 C 
ATOM     24  S   UNL     1       1.211  12.334  20.536  0.00  0.00    +0.000 S 
BRANCH  23  25
ATOM     25  N   UNL     1      -0.081  11.626  18.246  0.00  0.00    +0.000 N 
ATOM     26  H   UNL     1       0.310  12.168  17.476  0.00  0.00    +0.000 HD
BRANCH  25  27
ATOM     27  C   UNL     1      -1.471  11.359  18.163  0.00  0.00    +0.000 A 
ATOM     28  C   UNL     1      -1.994  10.266  17.461  0.00  0.00    +0.000 A 
ATOM     29  F   UNL     1      -1.183   9.383  16.866  0.00  0.00    +0.000 F 
ATOM     30  C   UNL     1      -3.362   9.987  17.469  0.00  0.00    +0.000 A 
ATOM     31  C   UNL     1      -4.240  10.802  18.183  0.00  0.00    +0.000 A 
ATOM     32  C   UNL     1      -3.736  11.886  18.900  0.00  0.00    +0.000 A 
ATOM     33  C   UNL     1      -2.362  12.142  18.898  0.00  0.00    +0.000 A 
ATOM     34  F   UNL     1      -1.905  13.194  19.596  0.00  0.00    +0.000 F 
ENDBRANCH  25  27
ENDBRANCH  23  25
ENDBRANCH   7  23
TORSDOF 6
ENDMDL
MODEL 7
REMARK VINA RESULT:      -9.0      6.384      8.998
REMARK  Name = 
REMARK  6 active torsions:
REMARK  status: ('A' for Active; 'I' for Inactive)
REMARK    1  A    between atoms: N_5  and  C_6
REMARK    2  A    between atoms: C_10  and  S_11
REMARK    3  A    between atoms: S_11  and  N_12
REMARK    4  A    between atoms: N_17  and  C_18
REMARK    5  A    between atoms: C_18  and  N_20
REMARK    6  A    between atoms: N_20  and  C_21
REMARK                            x       y       z     vdW  Elec       q    Type
REMARK                         _______ _______ _______ _____ _____    ______ ____
ROOT
ATOM      1  N   UNL     1       1.850  10.496  17.674  0.00  0.00    +0.000 N 
ATOM      2  C   UNL     1       1.741   9.536  18.612  0.00  0.00    +0.000 A 
ATOM      3  N   UNL     1       2.331   8.376  18.549  0.00  0.00    +0.000 NA
ATOM      4  C   UNL     1       2.037   7.774  19.736  0.00  0.00    +0.000 A 
ATOM      5  N   UNL     1       2.494   6.527  19.975  0.00  0.00    +0.000 N 
ATOM      6  N   UNL     1       1.367   8.550  20.596  0.00  0.00    +0.000 NA
ATOM      7  N   UNL     1       1.032   9.625  19.805  0.00  0.00    +0.000 N 
ATOM      8  H   UNL     1       2.571  10.368  16.970  0.00  0.00    +0.000 HD
ATOM      9  H   UNL     1       1.622  11.467  17.871  0.00  0.00    +0.000 HD
ATOM     10  H   UNL     1       2.416   6.177  20.920  0.00  0.00    +0.000 HD
ENDROOT
BRANCH   5  11
ATOM     11  C   UNL     1       2.938   5.567  19.037  0.00  0.00    +0.000 A 
ATOM     12  C   UNL     1       2.049   4.679  18.404  0.00  0.00    +0.000 A 
ATOM     13  C   UNL     1       2.473   3.798  17.407  0.00  0.00    +0.000 A 
ATOM     14  C   UNL     1       3.802   3.803  17.001  0.00  0.00    +0.000 A 
ATOM     15  C   UNL     1       4.695   4.689  17.608  0.00  0.00    +0.000 A 
ATOM     16  C   UNL     1       4.278   5.555  18.631  0.00  0.00    +0.000 A 
BRANCH  15  17
ATOM     17  S   UNL     1       6.381   4.696  17.080  0.00  0.00    +0.000 S 
ATOM     18  O   UNL     1       7.240   4.496  18.224  0.00  0.00    +0.000 OA
ATOM     19  O   UNL     1       6.506   3.914  15.874  0.00  0.00    +0.000 OA
BRANCH  17  20
ATOM     20  N   UNL     1       6.588   6.299  16.617  0.00  0.00    +0.000 NA
ATOM     21  H   UNL     1       7.269   6.751  17.226  0.00  0.00    +0.000 HD
ATOM     22  H   UNL     1       6.818   6.349  15.623  0.00  0.00    +0.000 HD
ENDBRANCH  17  20
ENDBRANCH  15  17
ENDBRANCH   5  11
BRANCH   7  23
ATOM     23  C   UNL     1       0.049  10.560  20.222  0.00  0.00    +0.000 C 
ATOM     24  S   UNL     1      -0.552  10.752  21.787  0.00  0.00    +0.000 S 
BRANCH  23  25
ATOM     25  N   UNL     1      -0.451  11.241  19.110  0.00  0.00    +0.000 N 
ATOM     26  H   UNL     1       0.148  11.955  18.695  0.00  0.00    +0.000 HD
BRANCH  25  27
ATOM     27  C   UNL     1      -1.732  11.099  18.519  0.00  0.00    +0.000 A 
ATOM     28  C   UNL     1      -2.013  10.144  17.533  0.00  0.00    +0.000 A 
ATOM     29  F   UNL     1      -1.075   9.276  17.136  0.00  0.00    +0.000 F 
ATOM     30  C   UNL     1      -3.306   9.977  17.034  0.00  0.00    +0.000 A 
ATOM     31  C   UNL     1      -4.349  10.770  17.510  0.00  0.00    +0.000 A 
ATOM     32  C   UNL     1      -4.092  11.716  18.501  0.00  0.00    +0.000 A 
ATOM     33  C   UNL     1      -2.796  11.859  19.006  0.00  0.00    +0.000 A 
ATOM     34  F   UNL     1      -2.578  12.779  19.958  0.00  0.00    +0.000 F 
ENDBRANCH  25  27
ENDBRANCH  23  25
ENDBRANCH   7  23
TORSDOF 6
ENDMDL
MODEL 8
REMARK VINA RESULT:      -9.0      6.134      8.090
REMARK  Name = 
REMARK  6 active torsions:
REMARK  status: ('A' for Active; 'I' for Inactive)
REMARK    1  A    between atoms: N_5  and  C_6
REMARK    2  A    between atoms: C_10  and  S_11
REMARK    3  A    between atoms: S_11  and  N_12
REMARK    4  A    between atoms: N_17  and  C_18
REMARK    5  A    between atoms: C_18  and  N_20
REMARK    6  A    between atoms: N_20  and  C_21
REMARK                            x       y       z     vdW  Elec       q    Type
REMARK                         _______ _______ _______ _____ _____    ______ ____
ROOT
ATOM      1  N   UNL     1       2.323   6.156  20.781  0.00  0.00    +0.000 N 
ATOM      2  C   UNL     1       2.245   6.839  19.624  0.00  0.00    +0.000 A 
ATOM      3  N   UNL     1       1.781   8.051  19.514  0.00  0.00    +0.000 NA
ATOM      4  C   UNL     1       1.987   8.383  18.208  0.00  0.00    +0.000 A 
ATOM      5  N   UNL     1       1.586   9.592  17.763  0.00  0.00    +0.000 N 
ATOM      6  N   UNL     1       2.661   7.464  17.506  0.00  0.00    +0.000 NA
ATOM      7  N   UNL     1       2.679   6.399  18.377  0.00  0.00    +0.000 N 
ATOM      8  H   UNL     1       2.170   6.685  21.636  0.00  0.00    +0.000 HD
ATOM      9  H   UNL     1       2.931   5.350  20.890  0.00  0.00    +0.000 HD
ATOM     10  H   UNL     1       1.908   9.881  16.848  0.00  0.00    +0.000 HD
ENDROOT
BRANCH   5  11
ATOM     11  C   UNL     1       0.639  10.465  18.345  0.00  0.00    +0.000 A 
ATOM     12  C   UNL     1       1.025  11.546  19.158  0.00  0.00    +0.000 A 
ATOM     13  C   UNL     1       0.096  12.465  19.652  0.00  0.00    +0.000 A 
ATOM     14  C   UNL     1      -1.246  12.336  19.320  0.00  0.00    +0.000 A 
ATOM     15  C   UNL     1      -1.645  11.278  18.500  0.00  0.00    +0.000 A 
ATOM     16  C   UNL     1      -0.719  10.335  18.027  0.00  0.00    +0.000 A 
BRANCH  15  17
ATOM     17  S   UNL     1      -3.354  11.125  18.074  0.00  0.00    +0.000 S 
ATOM     18  O   UNL     1      -3.678   9.729  17.899  0.00  0.00    +0.000 OA
ATOM     19  O   UNL     1      -4.134  12.000  18.916  0.00  0.00    +0.000 OA
BRANCH  17  20
ATOM     20  N   UNL     1      -3.386  11.808  16.539  0.00  0.00    +0.000 NA
ATOM     21  H   UNL     1      -2.496  11.646  16.068  0.00  0.00    +0.000 HD
ATOM     22  H   UNL     1      -4.199  11.469  16.023  0.00  0.00    +0.000 HD
ENDBRANCH  17  20
ENDBRANCH  15  17
ENDBRANCH   5  11
BRANCH   7  23
ATOM     23  C   UNL     1       3.025   5.098  17.932  0.00  0.00    +0.000 C 
ATOM     24  S   UNL     1       2.173   3.673  18.235  0.00  0.00    +0.000 S 
BRANCH  23  25
ATOM     25  N   UNL     1       4.264   5.138  17.286  0.00  0.00    +0.000 N 
ATOM     26  H   UNL     1       4.320   4.704  16.365  0.00  0.00    +0.000 HD
BRANCH  25  27
ATOM     27  C   UNL     1       5.480   5.663  17.791  0.00  0.00    +0.000 A 
ATOM     28  C   UNL     1       6.098   5.171  18.948  0.00  0.00    +0.000 A 
ATOM     29  F   UNL     1       5.579   4.131  19.611  0.00  0.00    +0.000 F 
ATOM     30  C   UNL     1       7.337   5.657  19.369  0.00  0.00    +0.000 A 
ATOM     31  C   UNL     1       7.985   6.653  18.640  0.00  0.00    +0.000 A 
ATOM     32  C   UNL     1       7.392   7.144  17.478  0.00  0.00    +0.000 A 
ATOM     33  C   UNL     1       6.161   6.636  17.057  0.00  0.00    +0.000 A 
ATOM     34  F   UNL     1       5.613   7.129  15.936  0.00  0.00    +0.000 F 
ENDBRANCH  25  27
ENDBRANCH  23  25
ENDBRANCH   7  23
TORSDOF 6
ENDMDL
MODEL 9
REMARK VINA RESULT:      -9.0      6.717      9.074
REMARK  Name = 
REMARK  6 active torsions:
REMARK  status: ('A' for Active; 'I' for Inactive)
REMARK    1  A    between atoms: N_5  and  C_6
REMARK    2  A    between atoms: C_10  and  S_11
REMARK    3  A    between atoms: S_11  and  N_12
REMARK    4  A    between atoms: N_17  and  C_18
REMARK    5  A    between atoms: C_18  and  N_20
REMARK    6  A    between atoms: N_20  and  C_21
REMARK                            x       y       z     vdW  Elec       q    Type
REMARK                         _______ _______ _______ _____ _____    ______ ____
ROOT
ATOM      1  N   UNL     1       1.862  10.229  17.521  0.00  0.00    +0.000 N 
ATOM      2  C   UNL     1       1.837   9.235  18.429  0.00  0.00    +0.000 A 
ATOM      3  N   UNL     1       2.574   8.163  18.367  0.00  0.00    +0.000 NA
ATOM      4  C   UNL     1       2.307   7.494  19.524  0.00  0.00    +0.000 A 
ATOM      5  N   UNL     1       2.910   6.309  19.755  0.00  0.00    +0.000 N 
ATOM      6  N   UNL     1       1.506   8.152  20.369  0.00  0.00    +0.000 NA
ATOM      7  N   UNL     1       1.070   9.198  19.589  0.00  0.00    +0.000 N 
ATOM      8  H   UNL     1       2.624  10.215  16.849  0.00  0.00    +0.000 HD
ATOM      9  H   UNL     1       1.502  11.156  17.729  0.00  0.00    +0.000 HD
ATOM     10  H   UNL     1       2.837   5.924  20.688  0.00  0.00    +0.000 HD
ENDROOT
BRANCH   5  11
ATOM     11  C   UNL     1       3.516   5.441  18.818  0.00  0.00    +0.000 A 
ATOM     12  C   UNL     1       2.762   4.543  18.041  0.00  0.00    +0.000 A 
ATOM     13  C   UNL     1       3.348   3.757  17.046  0.00  0.00    +0.000 A 
ATOM     14  C   UNL     1       4.709   3.871  16.789  0.00  0.00    +0.000 A 
ATOM     15  C   UNL     1       5.470   4.770  17.540  0.00  0.00    +0.000 A 
ATOM     16  C   UNL     1       4.889   5.539  18.560  0.00  0.00    +0.000 A 
BRANCH  15  17
ATOM     17  S   UNL     1       7.198   4.916  17.201  0.00  0.00    +0.000 S 
ATOM     18  O   UNL     1       7.947   4.580  18.389  0.00  0.00    +0.000 OA
ATOM     19  O   UNL     1       7.482   4.326  15.915  0.00  0.00    +0.000 OA
BRANCH  17  20
ATOM     20  N   UNL     1       7.367   6.576  16.997  0.00  0.00    +0.000 NA
ATOM     21  H   UNL     1       6.641   7.066  17.519  0.00  0.00    +0.000 HD
ATOM     22  H   UNL     1       8.318   6.862  17.235  0.00  0.00    +0.000 HD
ENDBRANCH  17  20
ENDBRANCH  15  17
ENDBRANCH   5  11
BRANCH   7  23
ATOM     23  C   UNL     1      -0.043   9.987  19.980  0.00  0.00    +0.000 C 
ATOM     24  S   UNL     1      -1.353  10.424  19.011  0.00  0.00    +0.000 S 
BRANCH  23  25
ATOM     25  N   UNL     1       0.153  10.461  21.279  0.00  0.00    +0.000 N 
ATOM     26  H   UNL     1       0.567   9.815  21.951  0.00  0.00    +0.000 HD
BRANCH  25  27
ATOM     27  C   UNL     1      -0.216  11.729  21.797  0.00  0.00    +0.000 A 
ATOM     28  C   UNL     1      -1.162  11.888  22.817  0.00  0.00    +0.000 A 
ATOM     29  F   UNL     1      -1.733  10.822  23.391  0.00  0.00    +0.000 F 
ATOM     30  C   UNL     1      -1.439  13.144  23.359  0.00  0.00    +0.000 A 
ATOM     31  C   UNL     1      -0.774  14.274  22.885  0.00  0.00    +0.000 A 
ATOM     32  C   UNL     1       0.181  14.134  21.880  0.00  0.00    +0.000 A 
ATOM     33  C   UNL     1       0.463  12.868  21.360  0.00  0.00    +0.000 A 
ATOM     34  F   UNL     1       1.386  12.763  20.392  0.00  0.00    +0.000 F 
ENDBRANCH  25  27
ENDBRANCH  23  25
ENDBRANCH   7  23
TORSDOF 6
ENDMDL
