MODEL 1
REMARK VINA RESULT:      -4.0      0.000      0.000
REMARK  Name = 
REMARK  4 active torsions:
REMARK  status: ('A' for Active; 'I' for Inactive)
REMARK    1  A    between atoms: N_1  and  C_2
REMARK    2  A    between atoms: C_2  and  N_4
REMARK    3  A    between atoms: N_4  and  C_5
REMARK    4  A    between atoms: C_5  and  C_6
REMARK                            x       y       z     vdW  Elec       q    Type
REMARK                         _______ _______ _______ _____ _____    ______ ____
ROOT
ATOM      1  N   UNL     1       7.043   4.147  16.428  0.00  0.00    +0.000 N 
ATOM      2  H   UNL     1       7.305   3.172  16.444  0.00  0.00    +0.000 HD
ENDROOT
BRANCH   1   3
ATOM      3  C   UNL     1       6.862   4.759  17.634  0.00  0.00    +0.000 C 
ATOM      4  S   UNL     1       7.417   6.249  18.115  0.00  0.00    +0.000 S 
BRANCH   3   5
ATOM      5  N   UNL     1       6.128   4.014  18.500  0.00  0.00    +0.000 N 
ATOM      6  H   UNL     1       6.048   4.334  19.458  0.00  0.00    +0.000 HD
ATOM      7  H   UNL     1       5.582   3.213  18.224  0.00  0.00    +0.000 HD
ENDBRANCH   3   5
ENDBRANCH   1   3
BRANCH   1   8
ATOM      8  C   UNL     1       7.024   4.777  15.121  0.00  0.00    +0.000 C 
BRANCH   8   9
ATOM      9  C   UNL     1       6.121   3.994  14.227  0.00  0.00    +0.000 C 
ATOM     10  C   UNL     1       6.353   3.791  12.926  0.00  0.00    +0.000 C 
ATOM     11 CL   UNL     1       5.316   2.851  11.939  0.00  0.00    +0.000 Cl
ENDBRANCH   8   9
ENDBRANCH   1   8
TORSDOF 4
ENDMDL
MODEL 2
REMARK VINA RESULT:      -3.9      4.422      4.724
REMARK  Name = 
REMARK  4 active torsions:
REMARK  status: ('A' for Active; 'I' for Inactive)
REMARK    1  A    between atoms: N_1  and  C_2
REMARK    2  A    between atoms: C_2  and  N_4
REMARK    3  A    between atoms: N_4  and  C_5
REMARK    4  A    between atoms: C_5  and  C_6
REMARK                            x       y       z     vdW  Elec       q    Type
REMARK                         _______ _______ _______ _____ _____    ______ ____
ROOT
ATOM      1  N   UNL     1       6.300   4.559  18.915  0.00  0.00    +0.000 N 
ATOM      2  H   UNL     1       6.497   4.603  19.905  0.00  0.00    +0.000 HD
ENDROOT
BRANCH   1   3
ATOM      3  C   UNL     1       5.022   4.251  18.552  0.00  0.00    +0.000 C 
ATOM      4  S   UNL     1       3.893   5.247  17.850  0.00  0.00    +0.000 S 
BRANCH   3   5
ATOM      5  N   UNL     1       4.694   2.959  18.814  0.00  0.00    +0.000 N 
ATOM      6  H   UNL     1       4.314   2.738  19.727  0.00  0.00    +0.000 HD
ATOM      7  H   UNL     1       4.717   2.226  18.123  0.00  0.00    +0.000 HD
ENDBRANCH   3   5
ENDBRANCH   1   3
BRANCH   1   8
ATOM      8  C   UNL     1       7.384   4.954  18.035  0.00  0.00    +0.000 C 
BRANCH   8   9
ATOM      9  C   UNL     1       7.766   6.362  18.352  0.00  0.00    +0.000 C 
ATOM     10  C   UNL     1       7.585   7.390  17.515  0.00  0.00    +0.000 C 
ATOM     11 CL   UNL     1       7.998   9.000  17.927  0.00  0.00    +0.000 Cl
ENDBRANCH   8   9
ENDBRANCH   1   8
TORSDOF 4
ENDMDL
MODEL 3
REMARK VINA RESULT:      -3.9      4.179      4.553
REMARK  Name = 
REMARK  4 active torsions:
REMARK  status: ('A' for Active; 'I' for Inactive)
REMARK    1  A    between atoms: N_1  and  C_2
REMARK    2  A    between atoms: C_2  and  N_4
REMARK    3  A    between atoms: N_4  and  C_5
REMARK    4  A    between atoms: C_5  and  C_6
REMARK                            x       y       z     vdW  Elec       q    Type
REMARK                         _______ _______ _______ _____ _____    ______ ____
ROOT
ATOM      1  N   UNL     1       5.563   3.699  18.551  0.00  0.00    +0.000 N 
ATOM      2  H   UNL     1       6.533   3.570  18.800  0.00  0.00    +0.000 HD
ENDROOT
BRANCH   1   3
ATOM      3  C   UNL     1       4.631   3.212  19.420  0.00  0.00    +0.000 C 
ATOM      4  S   UNL     1       3.148   3.858  19.794  0.00  0.00    +0.000 S 
BRANCH   3   5
ATOM      5  N   UNL     1       5.018   2.054  20.016  0.00  0.00    +0.000 N 
ATOM      6  H   UNL     1       4.877   1.959  21.014  0.00  0.00    +0.000 HD
ATOM      7  H   UNL     1       5.349   1.248  19.507  0.00  0.00    +0.000 HD
ENDBRANCH   3   5
ENDBRANCH   1   3
BRANCH   1   8
ATOM      8  C   UNL     1       5.313   4.498  17.366  0.00  0.00    +0.000 C 
BRANCH   8   9
ATOM      9  C   UNL     1       5.885   5.860  17.580  0.00  0.00    +0.000 C 
ATOM     10  C   UNL     1       7.195   6.131  17.553  0.00  0.00    +0.000 C 
ATOM     11 CL   UNL     1       7.815   7.714  17.761  0.00  0.00    +0.000 Cl
ENDBRANCH   8   9
ENDBRANCH   1   8
TORSDOF 4
ENDMDL
MODEL 4
REMARK VINA RESULT:      -3.9      1.680      1.811
REMARK  Name = 
REMARK  4 active torsions:
REMARK  status: ('A' for Active; 'I' for Inactive)
REMARK    1  A    between atoms: N_1  and  C_2
REMARK    2  A    between atoms: C_2  and  N_4
REMARK    3  A    between atoms: N_4  and  C_5
REMARK    4  A    between atoms: C_5  and  C_6
REMARK                            x       y       z     vdW  Elec       q    Type
REMARK                         _______ _______ _______ _____ _____    ______ ____
ROOT
ATOM      1  N   UNL     1       7.176   5.819  15.846  0.00  0.00    +0.000 N 
ATOM      2  H   UNL     1       7.445   6.440  15.097  0.00  0.00    +0.000 HD
ENDROOT
BRANCH   1   3
ATOM      3  C   UNL     1       6.901   6.391  17.054  0.00  0.00    +0.000 C 
ATOM      4  S   UNL     1       6.113   5.712  18.349  0.00  0.00    +0.000 S 
BRANCH   3   5
ATOM      5  N   UNL     1       7.355   7.667  17.151  0.00  0.00    +0.000 N 
ATOM      6  H   UNL     1       6.743   8.417  16.853  0.00  0.00    +0.000 HD
ATOM      7  H   UNL     1       8.228   7.917  17.589  0.00  0.00    +0.000 HD
ENDBRANCH   3   5
ENDBRANCH   1   3
BRANCH   1   8
ATOM      8  C   UNL     1       7.002   4.425  15.484  0.00  0.00    +0.000 C 
BRANCH   8   9
ATOM      9  C   UNL     1       5.951   4.334  14.428  0.00  0.00    +0.000 C 
ATOM     10  C   UNL     1       6.114   3.688  13.268  0.00  0.00    +0.000 C 
ATOM     11 CL   UNL     1       4.871   3.568  12.096  0.00  0.00    +0.000 Cl
ENDBRANCH   8   9
ENDBRANCH   1   8
TORSDOF 4
ENDMDL
MODEL 5
REMARK VINA RESULT:      -3.9      2.386      2.897
REMARK  Name = 
REMARK  4 active torsions:
REMARK  status: ('A' for Active; 'I' for Inactive)
REMARK    1  A    between atoms: N_1  and  C_2
REMARK    2  A    between atoms: C_2  and  N_4
REMARK    3  A    between atoms: N_4  and  C_5
REMARK    4  A    between atoms: C_5  and  C_6
REMARK                            x       y       z     vdW  Elec       q    Type
REMARK                         _______ _______ _______ _____ _____    ______ ____
ROOT
ATOM      1  N   UNL     1       6.234   3.528  14.035  0.00  0.00    +0.000 N 
ATOM      2  H   UNL     1       5.870   2.631  14.322  0.00  0.00    +0.000 HD
ENDROOT
BRANCH   1   3
ATOM      3  C   UNL     1       6.405   4.465  15.012  0.00  0.00    +0.000 C 
ATOM      4  S   UNL     1       5.472   4.713  16.363  0.00  0.00    +0.000 S 
BRANCH   3   5
ATOM      5  N   UNL     1       7.489   5.257  14.801  0.00  0.00    +0.000 N 
ATOM      6  H   UNL     1       8.389   4.812  14.669  0.00  0.00    +0.000 HD
ATOM      7  H   UNL     1       7.434   6.256  14.675  0.00  0.00    +0.000 HD
ENDBRANCH   3   5
ENDBRANCH   1   3
BRANCH   1   8
ATOM      8  C   UNL     1       6.635   3.636  12.646  0.00  0.00    +0.000 C 
BRANCH   8   9
ATOM      9  C   UNL     1       5.565   3.040  11.792  0.00  0.00    +0.000 C 
ATOM     10  C   UNL     1       4.370   3.606  11.592  0.00  0.00    +0.000 C 
ATOM     11 CL   UNL     1       3.180   2.915  10.573  0.00  0.00    +0.000 Cl
ENDBRANCH   8   9
ENDBRANCH   1   8
TORSDOF 4
ENDMDL
MODEL 6
REMARK VINA RESULT:      -3.8      3.176      3.756
REMARK  Name = 
REMARK  4 active torsions:
REMARK  status: ('A' for Active; 'I' for Inactive)
REMARK    1  A    between atoms: N_1  and  C_2
REMARK    2  A    between atoms: C_2  and  N_4
REMARK    3  A    between atoms: N_4  and  C_5
REMARK    4  A    between atoms: C_5  and  C_6
REMARK                            x       y       z     vdW  Elec       q    Type
REMARK                         _______ _______ _______ _____ _____    ______ ____
ROOT
ATOM      1  N   UNL     1       5.265   3.161  19.023  0.00  0.00    +0.000 N 
ATOM      2  H   UNL     1       6.105   2.777  19.430  0.00  0.00    +0.000 HD
ENDROOT
BRANCH   1   3
ATOM      3  C   UNL     1       4.102   2.486  19.256  0.00  0.00    +0.000 C 
ATOM      4  S   UNL     1       2.843   2.933  20.243  0.00  0.00    +0.000 S 
BRANCH   3   5
ATOM      5  N   UNL     1       4.019   1.320  18.564  0.00  0.00    +0.000 N 
ATOM      6  H   UNL     1       3.497   0.556  18.975  0.00  0.00    +0.000 HD
ATOM      7  H   UNL     1       4.366   1.202  17.625  0.00  0.00    +0.000 HD
ENDBRANCH   3   5
ENDBRANCH   1   3
BRANCH   1   8
ATOM      8  C   UNL     1       5.409   4.442  18.358  0.00  0.00    +0.000 C 
BRANCH   8   9
ATOM      9  C   UNL     1       5.255   4.236  16.888  0.00  0.00    +0.000 C 
ATOM     10  C   UNL     1       6.281   4.173  16.032  0.00  0.00    +0.000 C 
ATOM     11 CL   UNL     1       6.070   3.894  14.356  0.00  0.00    +0.000 Cl
ENDBRANCH   8   9
ENDBRANCH   1   8
TORSDOF 4
ENDMDL
MODEL 7
REMARK VINA RESULT:      -3.8      4.332      4.663
REMARK  Name = 
REMARK  4 active torsions:
REMARK  status: ('A' for Active; 'I' for Inactive)
REMARK    1  A    between atoms: N_1  and  C_2
REMARK    2  A    between atoms: C_2  and  N_4
REMARK    3  A    between atoms: N_4  and  C_5
REMARK    4  A    between atoms: C_5  and  C_6
REMARK                            x       y       z     vdW  Elec       q    Type
REMARK                         _______ _______ _______ _____ _____    ______ ____
ROOT
ATOM      1  N   UNL     1       5.867   4.158  17.294  0.00  0.00    +0.000 N 
ATOM      2  H   UNL     1       5.765   4.085  16.292  0.00  0.00    +0.000 HD
ENDROOT
BRANCH   1   3
ATOM      3  C   UNL     1       4.850   3.664  18.057  0.00  0.00    +0.000 C 
ATOM      4  S   UNL     1       3.241   3.548  17.661  0.00  0.00    +0.000 S 
BRANCH   3   5
ATOM      5  N   UNL     1       5.266   3.222  19.272  0.00  0.00    +0.000 N 
ATOM      6  H   UNL     1       6.165   3.539  19.614  0.00  0.00    +0.000 HD
ATOM      7  H   UNL     1       4.692   2.674  19.894  0.00  0.00    +0.000 HD
ENDBRANCH   3   5
ENDBRANCH   1   3
BRANCH   1   8
ATOM      8  C   UNL     1       7.141   4.667  17.766  0.00  0.00    +0.000 C 
BRANCH   8   9
ATOM      9  C   UNL     1       7.211   6.128  17.469  0.00  0.00    +0.000 C 
ATOM     10  C   UNL     1       7.893   7.008  18.211  0.00  0.00    +0.000 C 
ATOM     11 CL   UNL     1       7.986   8.672  17.817  0.00  0.00    +0.000 Cl
ENDBRANCH   8   9
ENDBRANCH   1   8
TORSDOF 4
ENDMDL
MODEL 8
REMARK VINA RESULT:      -3.8      1.701      1.701
REMARK  Name = 
REMARK  4 active torsions:
REMARK  status: ('A' for Active; 'I' for Inactive)
REMARK    1  A    between atoms: N_1  and  C_2
REMARK    2  A    between atoms: C_2  and  N_4
REMARK    3  A    between atoms: N_4  and  C_5
REMARK    4  A    between atoms: C_5  and  C_6
REMARK                            x       y       z     vdW  Elec       q    Type
REMARK                         _______ _______ _______ _____ _____    ______ ____
ROOT
ATOM      1  N   UNL     1       6.292   4.042  17.055  0.00  0.00    +0.000 N 
ATOM      2  H   UNL     1       6.966   3.708  17.729  0.00  0.00    +0.000 HD
ENDROOT
BRANCH   1   3
ATOM      3  C   UNL     1       4.991   4.103  17.460  0.00  0.00    +0.000 C 
ATOM      4  S   UNL     1       4.032   5.450  17.612  0.00  0.00    +0.000 S 
BRANCH   3   5
ATOM      5  N   UNL     1       4.470   2.883  17.755  0.00  0.00    +0.000 N 
ATOM      6  H   UNL     1       4.310   2.234  16.994  0.00  0.00    +0.000 HD
ATOM      7  H   UNL     1       4.322   2.552  18.696  0.00  0.00    +0.000 HD
ENDBRANCH   3   5
ENDBRANCH   1   3
BRANCH   1   8
ATOM      8  C   UNL     1       6.836   4.523  15.799  0.00  0.00    +0.000 C 
BRANCH   8   9
ATOM      9  C   UNL     1       6.009   3.978  14.682  0.00  0.00    +0.000 C 
ATOM     10  C   UNL     1       6.412   3.941  13.406  0.00  0.00    +0.000 C 
ATOM     11 CL   UNL     1       5.454   3.271  12.155  0.00  0.00    +0.000 Cl
ENDBRANCH   8   9
ENDBRANCH   1   8
TORSDOF 4
ENDMDL
MODEL 9
REMARK VINA RESULT:      -3.8      3.403      3.781
REMARK  Name = 
REMARK  4 active torsions:
REMARK  status: ('A' for Active; 'I' for Inactive)
REMARK    1  A    between atoms: N_1  and  C_2
REMARK    2  A    between atoms: C_2  and  N_4
REMARK    3  A    between atoms: N_4  and  C_5
REMARK    4  A    between atoms: C_5  and  C_6
REMARK                            x       y       z     vdW  Elec       q    Type
REMARK                         _______ _______ _______ _____ _____    ______ ____
ROOT
ATOM      1  N   UNL     1       6.585   4.390  18.428  0.00  0.00    +0.000 N 
ATOM      2  H   UNL     1       6.746   3.603  19.040  0.00  0.00    +0.000 HD
ENDROOT
BRANCH   1   3
ATOM      3  C   UNL     1       7.307   5.522  18.672  0.00  0.00    +0.000 C 
ATOM      4  S   UNL     1       7.433   6.877  17.721  0.00  0.00    +0.000 S 
BRANCH   3   5
ATOM      5  N   UNL     1       7.977   5.477  19.853  0.00  0.00    +0.000 N 
ATOM      6  H   UNL     1       8.420   4.606  20.120  0.00  0.00    +0.000 HD
ATOM      7  H   UNL     1       8.139   6.285  20.434  0.00  0.00    +0.000 HD
ENDBRANCH   3   5
ENDBRANCH   1   3
BRANCH   1   8
ATOM      8  C   UNL     1       5.700   4.149  17.304  0.00  0.00    +0.000 C 
BRANCH   8   9
ATOM      9  C   UNL     1       4.303   4.470  17.721  0.00  0.00    +0.000 C 
ATOM     10  C   UNL     1       3.219   3.862  17.227  0.00  0.00    +0.000 C 
ATOM     11 CL   UNL     1       1.632   4.226  17.758  0.00  0.00    +0.000 Cl
ENDBRANCH   8   9
ENDBRANCH   1   8
TORSDOF 4
ENDMDL
