MODEL 1
REMARK VINA RESULT:      -8.4      0.000      0.000
REMARK  Name = 
REMARK  7 active torsions:
REMARK  status: ('A' for Active; 'I' for Inactive)
REMARK    1  A    between atoms: C_1  and  C_2
REMARK    2  A    between atoms: C_5  and  C_6
REMARK    3  A    between atoms: C_6  and  C_8
REMARK    4  A    between atoms: C_8  and  S_9
REMARK    5  A    between atoms: S_9  and  C_10
REMARK    6  A    between atoms: C_12  and  C_13
REMARK    7  A    between atoms: C_13  and  N_14
REMARK                            x       y       z     vdW  Elec       q    Type
REMARK                         _______ _______ _______ _____ _____    ______ ____
ROOT
ATOM      1  C   UNL     1       2.428   4.373  18.446  0.00  0.00    +0.000 A 
ATOM      2  N   UNL     1       2.607   5.652  18.523  0.00  0.00    +0.000 NA
ATOM      3  C   UNL     1       2.310   6.257  19.745  0.00  0.00    +0.000 A 
ATOM      4  C   UNL     1       1.841   5.557  20.798  0.00  0.00    +0.000 A 
ATOM      5  C   UNL     1       1.644   4.108  20.671  0.00  0.00    +0.000 A 
ATOM      6  O   UNL     1       1.212   3.426  21.590  0.00  0.00    +0.000 OA
ATOM      7  N   UNL     1       1.973   3.592  19.463  0.00  0.00    +0.000 N 
ATOM      8  H   UNL     1       1.852   2.606  19.306  0.00  0.00    +0.000 HD
ENDROOT
BRANCH   1   9
ATOM      9  S   UNL     1       2.727   3.385  17.050  0.00  0.00    +0.000 S 
BRANCH   9  10
ATOM     10  C   UNL     1       4.480   3.679  16.735  0.00  0.00    +0.000 C 
BRANCH  10  11
ATOM     11  C   UNL     1       5.243   4.024  18.015  0.00  0.00    +0.000 C 
ATOM     12  O   UNL     1       5.201   3.354  19.046  0.00  0.00    +0.000 OA
BRANCH  11  17
ATOM     13  C   UNL     1       8.464   8.872  17.921  0.00  0.00    +0.000 C 
ATOM     14  C   UNL     1       7.632   7.624  17.933  0.00  0.00    +0.000 A 
ATOM     15  C   UNL     1       6.493   7.500  17.130  0.00  0.00    +0.000 A 
ATOM     16  C   UNL     1       5.728   6.328  17.164  0.00  0.00    +0.000 A 
ATOM     17  C   UNL     1       6.090   5.262  18.001  0.00  0.00    +0.000 A 
ATOM     18  C   UNL     1       7.231   5.388  18.801  0.00  0.00    +0.000 A 
ATOM     19  C   UNL     1       7.993   6.560  18.767  0.00  0.00    +0.000 A 
ENDBRANCH  11  17
ENDBRANCH  10  11
ENDBRANCH   9  10
ENDBRANCH   1   9
BRANCH   3  20
ATOM     20  C   UNL     1       2.458   7.803  19.857  0.00  0.00    +0.000 C 
BRANCH  20  21
ATOM     21  N   UNL     1       1.204   8.592  19.656  0.00  0.00    +0.000 N 
ATOM     22  C   UNL     1       1.066   9.203  18.331  0.00  0.00    +0.000 C 
ATOM     23  C   UNL     1      -0.154  10.058  18.055  0.00  0.00    +0.000 C 
ATOM     24  C   UNL     1      -0.905  10.621  19.232  0.00  0.00    +0.000 C 
ATOM     25  C   UNL     1      -0.436  10.175  20.577  0.00  0.00    +0.000 A 
ATOM     26  C   UNL     1      -1.123  10.755  21.673  0.00  0.00    +0.000 A 
ATOM     27  C   UNL     1      -0.794  10.432  22.976  0.00  0.00    +0.000 A 
ATOM     28  C   UNL     1       0.237   9.531  23.188  0.00  0.00    +0.000 A 
ATOM     29  C   UNL     1       0.916   8.946  22.097  0.00  0.00    +0.000 A 
ATOM     30  C   UNL     1       0.601   9.238  20.752  0.00  0.00    +0.000 A 
ENDBRANCH  20  21
ENDBRANCH   3  20
TORSDOF 6
ENDMDL
MODEL 2
REMARK VINA RESULT:      -8.4      4.231      7.143
REMARK  Name = 
REMARK  7 active torsions:
REMARK  status: ('A' for Active; 'I' for Inactive)
REMARK    1  A    between atoms: C_1  and  C_2
REMARK    2  A    between atoms: C_5  and  C_6
REMARK    3  A    between atoms: C_6  and  C_8
REMARK    4  A    between atoms: C_8  and  S_9
REMARK    5  A    between atoms: S_9  and  C_10
REMARK    6  A    between atoms: C_12  and  C_13
REMARK    7  A    between atoms: C_13  and  N_14
REMARK                            x       y       z     vdW  Elec       q    Type
REMARK                         _______ _______ _______ _____ _____    ______ ____
ROOT
ATOM      1  C   UNL     1       7.515   7.862  17.854  0.00  0.00    +0.000 A 
ATOM      2  N   UNL     1       6.383   7.522  17.330  0.00  0.00    +0.000 NA
ATOM      3  C   UNL     1       5.869   6.277  17.693  0.00  0.00    +0.000 A 
ATOM      4  C   UNL     1       6.522   5.448  18.535  0.00  0.00    +0.000 A 
ATOM      5  C   UNL     1       7.809   5.866  19.104  0.00  0.00    +0.000 A 
ATOM      6  O   UNL     1       8.448   5.150  19.863  0.00  0.00    +0.000 OA
ATOM      7  N   UNL     1       8.230   7.094  18.721  0.00  0.00    +0.000 N 
ATOM      8  H   UNL     1       9.110   7.436  19.066  0.00  0.00    +0.000 HD
ENDROOT
BRANCH   1   9
ATOM      9  S   UNL     1       8.361   9.353  17.574  0.00  0.00    +0.000 S 
BRANCH   9  10
ATOM     10  C   UNL     1       9.049   9.720  19.201  0.00  0.00    +0.000 C 
BRANCH  10  11
ATOM     11  C   UNL     1       9.874  11.009  19.198  0.00  0.00    +0.000 C 
ATOM     12  O   UNL     1      10.703  11.297  18.336  0.00  0.00    +0.000 OA
BRANCH  11  17
ATOM     13  C   UNL     1       9.035  14.813  23.525  0.00  0.00    +0.000 C 
ATOM     14  C   UNL     1       9.263  13.837  22.408  0.00  0.00    +0.000 A 
ATOM     15  C   UNL     1      10.010  14.186  21.277  0.00  0.00    +0.000 A 
ATOM     16  C   UNL     1      10.202  13.260  20.245  0.00  0.00    +0.000 A 
ATOM     17  C   UNL     1       9.651  11.973  20.326  0.00  0.00    +0.000 A 
ATOM     18  C   UNL     1       8.907  11.626  21.460  0.00  0.00    +0.000 A 
ATOM     19  C   UNL     1       8.715  12.553  22.489  0.00  0.00    +0.000 A 
ENDBRANCH  11  17
ENDBRANCH  10  11
ENDBRANCH   9  10
ENDBRANCH   1   9
BRANCH   3  20
ATOM     20  C   UNL     1       4.537   5.809  17.039  0.00  0.00    +0.000 C 
BRANCH  20  21
ATOM     21  N   UNL     1       3.361   5.712  17.958  0.00  0.00    +0.000 N 
ATOM     22  C   UNL     1       3.281   6.767  18.971  0.00  0.00    +0.000 C 
ATOM     23  C   UNL     1       2.145   6.721  19.974  0.00  0.00    +0.000 C 
ATOM     24  C   UNL     1       1.449   5.404  20.192  0.00  0.00    +0.000 C 
ATOM     25  C   UNL     1       1.874   4.286  19.300  0.00  0.00    +0.000 A 
ATOM     26  C   UNL     1       1.242   3.044  19.555  0.00  0.00    +0.000 A 
ATOM     27  C   UNL     1       1.539   1.921  18.804  0.00  0.00    +0.000 A 
ATOM     28  C   UNL     1       2.482   2.038  17.796  0.00  0.00    +0.000 A 
ATOM     29  C   UNL     1       3.105   3.278  17.534  0.00  0.00    +0.000 A 
ATOM     30  C   UNL     1       2.820   4.450  18.268  0.00  0.00    +0.000 A 
ENDBRANCH  20  21
ENDBRANCH   3  20
TORSDOF 6
ENDMDL
MODEL 3
REMARK VINA RESULT:      -8.3      4.182      6.995
REMARK  Name = 
REMARK  7 active torsions:
REMARK  status: ('A' for Active; 'I' for Inactive)
REMARK    1  A    between atoms: C_1  and  C_2
REMARK    2  A    between atoms: C_5  and  C_6
REMARK    3  A    between atoms: C_6  and  C_8
REMARK    4  A    between atoms: C_8  and  S_9
REMARK    5  A    between atoms: S_9  and  C_10
REMARK    6  A    between atoms: C_12  and  C_13
REMARK    7  A    between atoms: C_13  and  N_14
REMARK                            x       y       z     vdW  Elec       q    Type
REMARK                         _______ _______ _______ _____ _____    ______ ____
ROOT
ATOM      1  C   UNL     1       7.534   7.768  17.837  0.00  0.00    +0.000 A 
ATOM      2  N   UNL     1       6.468   7.331  17.249  0.00  0.00    +0.000 NA
ATOM      3  C   UNL     1       6.032   6.054  17.604  0.00  0.00    +0.000 A 
ATOM      4  C   UNL     1       6.692   5.293  18.503  0.00  0.00    +0.000 A 
ATOM      5  C   UNL     1       7.903   5.821  19.144  0.00  0.00    +0.000 A 
ATOM      6  O   UNL     1       8.546   5.171  19.956  0.00  0.00    +0.000 OA
ATOM      7  N   UNL     1       8.250   7.073  18.763  0.00  0.00    +0.000 N 
ATOM      8  H   UNL     1       9.076   7.490  19.156  0.00  0.00    +0.000 HD
ENDROOT
BRANCH   1   9
ATOM      9  S   UNL     1       8.276   9.317  17.580  0.00  0.00    +0.000 S 
BRANCH   9  10
ATOM     10  C   UNL     1       9.014   9.665  19.190  0.00  0.00    +0.000 C 
BRANCH  10  11
ATOM     11  C   UNL     1       9.851  10.947  19.173  0.00  0.00    +0.000 C 
ATOM     12  O   UNL     1      10.685  11.215  18.310  0.00  0.00    +0.000 OA
BRANCH  11  17
ATOM     13  C   UNL     1       9.027  14.814  23.445  0.00  0.00    +0.000 C 
ATOM     14  C   UNL     1       9.251  13.822  22.342  0.00  0.00    +0.000 A 
ATOM     15  C   UNL     1       9.904  14.184  21.159  0.00  0.00    +0.000 A 
ATOM     16  C   UNL     1      10.094  13.243  20.140  0.00  0.00    +0.000 A 
ATOM     17  C   UNL     1       9.634  11.926  20.288  0.00  0.00    +0.000 A 
ATOM     18  C   UNL     1       8.982  11.567  21.473  0.00  0.00    +0.000 A 
ATOM     19  C   UNL     1       8.793  12.509  22.489  0.00  0.00    +0.000 A 
ENDBRANCH  11  17
ENDBRANCH  10  11
ENDBRANCH   9  10
ENDBRANCH   1   9
BRANCH   3  20
ATOM     20  C   UNL     1       4.786   5.470  16.876  0.00  0.00    +0.000 C 
BRANCH  20  21
ATOM     21  N   UNL     1       3.984   4.478  17.656  0.00  0.00    +0.000 N 
ATOM     22  C   UNL     1       3.684   3.233  16.944  0.00  0.00    +0.000 C 
ATOM     23  C   UNL     1       2.836   2.188  17.643  0.00  0.00    +0.000 C 
ATOM     24  C   UNL     1       1.972   2.633  18.793  0.00  0.00    +0.000 C 
ATOM     25  C   UNL     1       2.129   4.057  19.213  0.00  0.00    +0.000 A 
ATOM     26  C   UNL     1       1.271   4.468  20.264  0.00  0.00    +0.000 A 
ATOM     27  C   UNL     1       1.309   5.760  20.755  0.00  0.00    +0.000 A 
ATOM     28  C   UNL     1       2.203   6.652  20.185  0.00  0.00    +0.000 A 
ATOM     29  C   UNL     1       3.064   6.241  19.144  0.00  0.00    +0.000 A 
ATOM     30  C   UNL     1       3.067   4.927  18.625  0.00  0.00    +0.000 A 
ENDBRANCH  20  21
ENDBRANCH   3  20
TORSDOF 6
ENDMDL
MODEL 4
REMARK VINA RESULT:      -8.2      3.433      8.582
REMARK  Name = 
REMARK  7 active torsions:
REMARK  status: ('A' for Active; 'I' for Inactive)
REMARK    1  A    between atoms: C_1  and  C_2
REMARK    2  A    between atoms: C_5  and  C_6
REMARK    3  A    between atoms: C_6  and  C_8
REMARK    4  A    between atoms: C_8  and  S_9
REMARK    5  A    between atoms: S_9  and  C_10
REMARK    6  A    between atoms: C_12  and  C_13
REMARK    7  A    between atoms: C_13  and  N_14
REMARK                            x       y       z     vdW  Elec       q    Type
REMARK                         _______ _______ _______ _____ _____    ______ ____
ROOT
ATOM      1  C   UNL     1       0.738   9.447  20.539  0.00  0.00    +0.000 A 
ATOM      2  N   UNL     1       1.071   8.266  20.950  0.00  0.00    +0.000 NA
ATOM      3  C   UNL     1       1.840   7.491  20.082  0.00  0.00    +0.000 A 
ATOM      4  C   UNL     1       2.209   7.931  18.861  0.00  0.00    +0.000 A 
ATOM      5  C   UNL     1       1.806   9.274  18.426  0.00  0.00    +0.000 A 
ATOM      6  O   UNL     1       2.104   9.719  17.326  0.00  0.00    +0.000 OA
ATOM      7  N   UNL     1       1.081   9.972  19.331  0.00  0.00    +0.000 N 
ATOM      8  H   UNL     1       0.763  10.896  19.092  0.00  0.00    +0.000 HD
ENDROOT
BRANCH   1   9
ATOM      9  S   UNL     1      -0.203  10.606  21.425  0.00  0.00    +0.000 S 
BRANCH   9  10
ATOM     10  C   UNL     1      -0.610  11.824  20.158  0.00  0.00    +0.000 C 
BRANCH  10  11
ATOM     11  C   UNL     1      -2.107  11.841  19.837  0.00  0.00    +0.000 C 
ATOM     12  O   UNL     1      -2.976  12.226  20.619  0.00  0.00    +0.000 OA
BRANCH  11  17
ATOM     13  C   UNL     1      -3.798  10.004  14.579  0.00  0.00    +0.000 C 
ATOM     14  C   UNL     1      -3.374  10.477  15.938  0.00  0.00    +0.000 A 
ATOM     15  C   UNL     1      -4.149  11.387  16.666  0.00  0.00    +0.000 A 
ATOM     16  C   UNL     1      -3.728  11.820  17.929  0.00  0.00    +0.000 A 
ATOM     17  C   UNL     1      -2.528  11.351  18.484  0.00  0.00    +0.000 A 
ATOM     18  C   UNL     1      -1.757  10.440  17.753  0.00  0.00    +0.000 A 
ATOM     19  C   UNL     1      -2.178  10.009  16.492  0.00  0.00    +0.000 A 
ENDBRANCH  11  17
ENDBRANCH  10  11
ENDBRANCH   9  10
ENDBRANCH   1   9
BRANCH   3  20
ATOM     20  C   UNL     1       2.212   6.044  20.518  0.00  0.00    +0.000 C 
BRANCH  20  21
ATOM     21  N   UNL     1       2.149   5.005  19.444  0.00  0.00    +0.000 N 
ATOM     22  C   UNL     1       1.191   3.923  19.688  0.00  0.00    +0.000 C 
ATOM     23  C   UNL     1       1.094   2.802  18.672  0.00  0.00    +0.000 C 
ATOM     24  C   UNL     1       2.257   2.591  17.739  0.00  0.00    +0.000 C 
ATOM     25  C   UNL     1       3.356   3.597  17.829  0.00  0.00    +0.000 A 
ATOM     26  C   UNL     1       4.462   3.352  16.978  0.00  0.00    +0.000 A 
ATOM     27  C   UNL     1       5.551   4.204  16.957  0.00  0.00    +0.000 A 
ATOM     28  C   UNL     1       5.540   5.304  17.800  0.00  0.00    +0.000 A 
ATOM     29  C   UNL     1       4.435   5.553  18.641  0.00  0.00    +0.000 A 
ATOM     30  C   UNL     1       3.297   4.717  18.682  0.00  0.00    +0.000 A 
ENDBRANCH  20  21
ENDBRANCH   3  20
TORSDOF 6
ENDMDL
MODEL 5
REMARK VINA RESULT:      -8.1      3.051      9.156
REMARK  Name = 
REMARK  7 active torsions:
REMARK  status: ('A' for Active; 'I' for Inactive)
REMARK    1  A    between atoms: C_1  and  C_2
REMARK    2  A    between atoms: C_5  and  C_6
REMARK    3  A    between atoms: C_6  and  C_8
REMARK    4  A    between atoms: C_8  and  S_9
REMARK    5  A    between atoms: S_9  and  C_10
REMARK    6  A    between atoms: C_12  and  C_13
REMARK    7  A    between atoms: C_13  and  N_14
REMARK                            x       y       z     vdW  Elec       q    Type
REMARK                         _______ _______ _______ _____ _____    ______ ____
ROOT
ATOM      1  C   UNL     1       1.647   7.693  20.230  0.00  0.00    +0.000 A 
ATOM      2  N   UNL     1       2.152   6.525  19.996  0.00  0.00    +0.000 NA
ATOM      3  C   UNL     1       2.732   6.329  18.743  0.00  0.00    +0.000 A 
ATOM      4  C   UNL     1       2.755   7.296  17.802  0.00  0.00    +0.000 A 
ATOM      5  C   UNL     1       2.165   8.607  18.101  0.00  0.00    +0.000 A 
ATOM      6  O   UNL     1       2.149   9.516  17.282  0.00  0.00    +0.000 OA
ATOM      7  N   UNL     1       1.641   8.726  19.344  0.00  0.00    +0.000 N 
ATOM      8  H   UNL     1       1.211   9.596  19.609  0.00  0.00    +0.000 HD
ENDROOT
BRANCH   1   9
ATOM      9  S   UNL     1       0.877   8.194  21.703  0.00  0.00    +0.000 S 
BRANCH   9  10
ATOM     10  C   UNL     1       0.247   9.830  21.275  0.00  0.00    +0.000 C 
BRANCH  10  11
ATOM     11  C   UNL     1      -0.408  10.525  22.471  0.00  0.00    +0.000 C 
ATOM     12  O   UNL     1      -0.124  10.292  23.645  0.00  0.00    +0.000 OA
BRANCH  11  17
ATOM     13  C   UNL     1      -4.490  14.494  21.257  0.00  0.00    +0.000 C 
ATOM     14  C   UNL     1      -3.430  13.477  21.563  0.00  0.00    +0.000 A 
ATOM     15  C   UNL     1      -2.501  13.081  20.595  0.00  0.00    +0.000 A 
ATOM     16  C   UNL     1      -1.525  12.124  20.902  0.00  0.00    +0.000 A 
ATOM     17  C   UNL     1      -1.463  11.550  22.180  0.00  0.00    +0.000 A 
ATOM     18  C   UNL     1      -2.392  11.951  23.147  0.00  0.00    +0.000 A 
ATOM     19  C   UNL     1      -3.366  12.905  22.838  0.00  0.00    +0.000 A 
ENDBRANCH  11  17
ENDBRANCH  10  11
ENDBRANCH   9  10
ENDBRANCH   1   9
BRANCH   3  20
ATOM     20  C   UNL     1       3.299   4.919  18.405  0.00  0.00    +0.000 C 
BRANCH  20  21
ATOM     21  N   UNL     1       4.788   4.825  18.305  0.00  0.00    +0.000 N 
ATOM     22  C   UNL     1       5.521   5.457  19.405  0.00  0.00    +0.000 C 
ATOM     23  C   UNL     1       7.036   5.448  19.362  0.00  0.00    +0.000 C 
ATOM     24  C   UNL     1       7.704   5.231  18.030  0.00  0.00    +0.000 C 
ATOM     25  C   UNL     1       6.794   4.921  16.888  0.00  0.00    +0.000 A 
ATOM     26  C   UNL     1       7.439   4.769  15.634  0.00  0.00    +0.000 A 
ATOM     27  C   UNL     1       6.719   4.480  14.490  0.00  0.00    +0.000 A 
ATOM     28  C   UNL     1       5.343   4.352  14.595  0.00  0.00    +0.000 A 
ATOM     29  C   UNL     1       4.702   4.495  15.845  0.00  0.00    +0.000 A 
ATOM     30  C   UNL     1       5.401   4.775  17.039  0.00  0.00    +0.000 A 
ENDBRANCH  20  21
ENDBRANCH   3  20
TORSDOF 6
ENDMDL
MODEL 6
REMARK VINA RESULT:      -8.1      3.122      9.205
REMARK  Name = 
REMARK  7 active torsions:
REMARK  status: ('A' for Active; 'I' for Inactive)
REMARK    1  A    between atoms: C_1  and  C_2
REMARK    2  A    between atoms: C_5  and  C_6
REMARK    3  A    between atoms: C_6  and  C_8
REMARK    4  A    between atoms: C_8  and  S_9
REMARK    5  A    between atoms: S_9  and  C_10
REMARK    6  A    between atoms: C_12  and  C_13
REMARK    7  A    between atoms: C_13  and  N_14
REMARK                            x       y       z     vdW  Elec       q    Type
REMARK                         _______ _______ _______ _____ _____    ______ ____
ROOT
ATOM      1  C   UNL     1       1.743   7.820  20.242  0.00  0.00    +0.000 A 
ATOM      2  N   UNL     1       2.223   6.641  20.015  0.00  0.00    +0.000 NA
ATOM      3  C   UNL     1       2.744   6.407  18.742  0.00  0.00    +0.000 A 
ATOM      4  C   UNL     1       2.738   7.351  17.778  0.00  0.00    +0.000 A 
ATOM      5  C   UNL     1       2.178   8.677  18.071  0.00  0.00    +0.000 A 
ATOM      6  O   UNL     1       2.136   9.566  17.232  0.00  0.00    +0.000 OA
ATOM      7  N   UNL     1       1.711   8.832  19.332  0.00  0.00    +0.000 N 
ATOM      8  H   UNL     1       1.304   9.713  19.595  0.00  0.00    +0.000 HD
ENDROOT
BRANCH   1   9
ATOM      9  S   UNL     1       1.046   8.366  21.735  0.00  0.00    +0.000 S 
BRANCH   9  10
ATOM     10  C   UNL     1      -0.332   9.386  21.169  0.00  0.00    +0.000 C 
BRANCH  10  11
ATOM     11  C   UNL     1      -0.094  10.874  21.440  0.00  0.00    +0.000 C 
ATOM     12  O   UNL     1       1.006  11.420  21.376  0.00  0.00    +0.000 OA
BRANCH  11  17
ATOM     13  C   UNL     1      -4.704  14.086  22.962  0.00  0.00    +0.000 C 
ATOM     14  C   UNL     1      -3.521  13.249  22.576  0.00  0.00    +0.000 A 
ATOM     15  C   UNL     1      -2.959  12.328  23.467  0.00  0.00    +0.000 A 
ATOM     16  C   UNL     1      -1.850  11.563  23.087  0.00  0.00    +0.000 A 
ATOM     17  C   UNL     1      -1.285  11.707  21.811  0.00  0.00    +0.000 A 
ATOM     18  C   UNL     1      -1.851  12.627  20.921  0.00  0.00    +0.000 A 
ATOM     19  C   UNL     1      -2.958  13.390  21.303  0.00  0.00    +0.000 A 
ENDBRANCH  11  17
ENDBRANCH  10  11
ENDBRANCH   9  10
ENDBRANCH   1   9
BRANCH   3  20
ATOM     20  C   UNL     1       3.279   4.983  18.414  0.00  0.00    +0.000 C 
BRANCH  20  21
ATOM     21  N   UNL     1       4.765   4.853  18.313  0.00  0.00    +0.000 N 
ATOM     22  C   UNL     1       5.514   5.478  19.407  0.00  0.00    +0.000 C 
ATOM     23  C   UNL     1       7.028   5.434  19.362  0.00  0.00    +0.000 C 
ATOM     24  C   UNL     1       7.689   5.190  18.032  0.00  0.00    +0.000 C 
ATOM     25  C   UNL     1       6.772   4.893  16.893  0.00  0.00    +0.000 A 
ATOM     26  C   UNL     1       7.411   4.716  15.641  0.00  0.00    +0.000 A 
ATOM     27  C   UNL     1       6.683   4.434  14.499  0.00  0.00    +0.000 A 
ATOM     28  C   UNL     1       5.306   4.338  14.607  0.00  0.00    +0.000 A 
ATOM     29  C   UNL     1       4.669   4.505  15.856  0.00  0.00    +0.000 A 
ATOM     30  C   UNL     1       5.376   4.779  17.047  0.00  0.00    +0.000 A 
ENDBRANCH  20  21
ENDBRANCH   3  20
TORSDOF 6
ENDMDL
MODEL 7
REMARK VINA RESULT:      -8.0      2.560      3.598
REMARK  Name = 
REMARK  7 active torsions:
REMARK  status: ('A' for Active; 'I' for Inactive)
REMARK    1  A    between atoms: C_1  and  C_2
REMARK    2  A    between atoms: C_5  and  C_6
REMARK    3  A    between atoms: C_6  and  C_8
REMARK    4  A    between atoms: C_8  and  S_9
REMARK    5  A    between atoms: S_9  and  C_10
REMARK    6  A    between atoms: C_12  and  C_13
REMARK    7  A    between atoms: C_13  and  N_14
REMARK                            x       y       z     vdW  Elec       q    Type
REMARK                         _______ _______ _______ _____ _____    ______ ____
ROOT
ATOM      1  C   UNL     1       5.013   4.816  18.697  0.00  0.00    +0.000 A 
ATOM      2  N   UNL     1       4.380   5.618  19.491  0.00  0.00    +0.000 NA
ATOM      3  C   UNL     1       2.997   5.455  19.579  0.00  0.00    +0.000 A 
ATOM      4  C   UNL     1       2.336   4.523  18.862  0.00  0.00    +0.000 A 
ATOM      5  C   UNL     1       3.088   3.635  17.966  0.00  0.00    +0.000 A 
ATOM      6  O   UNL     1       2.538   2.780  17.285  0.00  0.00    +0.000 OA
ATOM      7  N   UNL     1       4.426   3.841  17.951  0.00  0.00    +0.000 N 
ATOM      8  H   UNL     1       4.998   3.274  17.350  0.00  0.00    +0.000 HD
ENDROOT
BRANCH   1   9
ATOM      9  S   UNL     1       6.726   4.805  18.413  0.00  0.00    +0.000 S 
BRANCH   9  10
ATOM     10  C   UNL     1       6.931   6.147  17.223  0.00  0.00    +0.000 C 
BRANCH  10  11
ATOM     11  C   UNL     1       5.843   6.131  16.147  0.00  0.00    +0.000 C 
ATOM     12  O   UNL     1       4.795   6.771  16.215  0.00  0.00    +0.000 OA
BRANCH  11  17
ATOM     13  C   UNL     1       6.675   2.780  11.460  0.00  0.00    +0.000 C 
ATOM     14  C   UNL     1       6.455   3.634  12.673  0.00  0.00    +0.000 A 
ATOM     15  C   UNL     1       5.249   3.594  13.382  0.00  0.00    +0.000 A 
ATOM     16  C   UNL     1       5.063   4.406  14.507  0.00  0.00    +0.000 A 
ATOM     17  C   UNL     1       6.079   5.271  14.941  0.00  0.00    +0.000 A 
ATOM     18  C   UNL     1       7.285   5.307  14.231  0.00  0.00    +0.000 A 
ATOM     19  C   UNL     1       7.467   4.496  13.107  0.00  0.00    +0.000 A 
ENDBRANCH  11  17
ENDBRANCH  10  11
ENDBRANCH   9  10
ENDBRANCH   1   9
BRANCH   3  20
ATOM     20  C   UNL     1       2.195   6.439  20.480  0.00  0.00    +0.000 C 
BRANCH  20  21
ATOM     21  N   UNL     1       1.667   7.661  19.799  0.00  0.00    +0.000 N 
ATOM     22  C   UNL     1       2.339   8.005  18.543  0.00  0.00    +0.000 C 
ATOM     23  C   UNL     1       1.898   9.255  17.808  0.00  0.00    +0.000 C 
ATOM     24  C   UNL     1       1.158  10.310  18.587  0.00  0.00    +0.000 C 
ATOM     25  C   UNL     1       0.822   9.961  19.999  0.00  0.00    +0.000 A 
ATOM     26  C   UNL     1       0.170  10.985  20.730  0.00  0.00    +0.000 A 
ATOM     27  C   UNL     1      -0.201  10.799  22.049  0.00  0.00    +0.000 A 
ATOM     28  C   UNL     1       0.092   9.584  22.647  0.00  0.00    +0.000 A 
ATOM     29  C   UNL     1       0.733   8.560  21.918  0.00  0.00    +0.000 A 
ATOM     30  C   UNL     1       1.115   8.704  20.565  0.00  0.00    +0.000 A 
ENDBRANCH  20  21
ENDBRANCH   3  20
TORSDOF 6
ENDMDL
MODEL 8
REMARK VINA RESULT:      -7.9      2.765      4.323
REMARK  Name = 
REMARK  7 active torsions:
REMARK  status: ('A' for Active; 'I' for Inactive)
REMARK    1  A    between atoms: C_1  and  C_2
REMARK    2  A    between atoms: C_5  and  C_6
REMARK    3  A    between atoms: C_6  and  C_8
REMARK    4  A    between atoms: C_8  and  S_9
REMARK    5  A    between atoms: S_9  and  C_10
REMARK    6  A    between atoms: C_12  and  C_13
REMARK    7  A    between atoms: C_13  and  N_14
REMARK                            x       y       z     vdW  Elec       q    Type
REMARK                         _______ _______ _______ _____ _____    ______ ____
ROOT
ATOM      1  C   UNL     1       1.375   7.927  20.656  0.00  0.00    +0.000 A 
ATOM      2  N   UNL     1       0.985   8.704  19.698  0.00  0.00    +0.000 NA
ATOM      3  C   UNL     1       0.529   9.972  20.061  0.00  0.00    +0.000 A 
ATOM      4  C   UNL     1       0.474  10.374  21.348  0.00  0.00    +0.000 A 
ATOM      5  C   UNL     1       0.919   9.462  22.408  0.00  0.00    +0.000 A 
ATOM      6  O   UNL     1       0.881   9.771  23.591  0.00  0.00    +0.000 OA
ATOM      7  N   UNL     1       1.366   8.259  21.976  0.00  0.00    +0.000 N 
ATOM      8  H   UNL     1       1.676   7.583  22.652  0.00  0.00    +0.000 HD
ENDROOT
BRANCH   1   9
ATOM      9  S   UNL     1       1.988   6.313  20.473  0.00  0.00    +0.000 S 
BRANCH   9  10
ATOM     10  C   UNL     1       3.016   6.454  18.996  0.00  0.00    +0.000 C 
BRANCH  10  11
ATOM     11  C   UNL     1       3.782   5.162  18.703  0.00  0.00    +0.000 C 
ATOM     12  O   UNL     1       3.817   4.193  19.461  0.00  0.00    +0.000 OA
BRANCH  11  17
ATOM     13  C   UNL     1       6.705   4.781  13.683  0.00  0.00    +0.000 C 
ATOM     14  C   UNL     1       5.959   4.871  14.982  0.00  0.00    +0.000 A 
ATOM     15  C   UNL     1       5.742   3.739  15.776  0.00  0.00    +0.000 A 
ATOM     16  C   UNL     1       5.036   3.847  16.980  0.00  0.00    +0.000 A 
ATOM     17  C   UNL     1       4.538   5.086  17.410  0.00  0.00    +0.000 A 
ATOM     18  C   UNL     1       4.760   6.216  16.614  0.00  0.00    +0.000 A 
ATOM     19  C   UNL     1       5.463   6.106  15.411  0.00  0.00    +0.000 A 
ENDBRANCH  11  17
ENDBRANCH  10  11
ENDBRANCH   9  10
ENDBRANCH   1   9
BRANCH   3  20
ATOM     20  C   UNL     1      -0.002  10.913  18.941  0.00  0.00    +0.000 C 
BRANCH  20  21
ATOM     21  N   UNL     1      -1.422  10.692  18.525  0.00  0.00    +0.000 N 
ATOM     22  C   UNL     1      -1.589  10.113  17.190  0.00  0.00    +0.000 C 
ATOM     23  C   UNL     1      -2.996   9.896  16.668  0.00  0.00    +0.000 C 
ATOM     24  C   UNL     1      -4.113  10.683  17.301  0.00  0.00    +0.000 C 
ATOM     25  C   UNL     1      -3.735  11.522  18.476  0.00  0.00    +0.000 A 
ATOM     26  C   UNL     1      -4.790  12.293  19.025  0.00  0.00    +0.000 A 
ATOM     27  C   UNL     1      -4.583  13.116  20.117  0.00  0.00    +0.000 A 
ATOM     28  C   UNL     1      -3.310  13.177  20.659  0.00  0.00    +0.000 A 
ATOM     29  C   UNL     1      -2.260  12.403  20.118  0.00  0.00    +0.000 A 
ATOM     30  C   UNL     1      -2.433  11.540  19.014  0.00  0.00    +0.000 A 
ENDBRANCH  20  21
ENDBRANCH   3  20
TORSDOF 6
ENDMDL
MODEL 9
REMARK VINA RESULT:      -7.9      3.190      8.581
REMARK  Name = 
REMARK  7 active torsions:
REMARK  status: ('A' for Active; 'I' for Inactive)
REMARK    1  A    between atoms: C_1  and  C_2
REMARK    2  A    between atoms: C_5  and  C_6
REMARK    3  A    between atoms: C_6  and  C_8
REMARK    4  A    between atoms: C_8  and  S_9
REMARK    5  A    between atoms: S_9  and  C_10
REMARK    6  A    between atoms: C_12  and  C_13
REMARK    7  A    between atoms: C_13  and  N_14
REMARK                            x       y       z     vdW  Elec       q    Type
REMARK                         _______ _______ _______ _____ _____    ______ ____
ROOT
ATOM      1  C   UNL     1       1.724   7.835  20.243  0.00  0.00    +0.000 A 
ATOM      2  N   UNL     1       2.201   6.654  20.018  0.00  0.00    +0.000 NA
ATOM      3  C   UNL     1       2.729   6.421  18.747  0.00  0.00    +0.000 A 
ATOM      4  C   UNL     1       2.730   7.366  17.784  0.00  0.00    +0.000 A 
ATOM      5  C   UNL     1       2.172   8.693  18.076  0.00  0.00    +0.000 A 
ATOM      6  O   UNL     1       2.137   9.583  17.237  0.00  0.00    +0.000 OA
ATOM      7  N   UNL     1       1.699   8.848  19.335  0.00  0.00    +0.000 N 
ATOM      8  H   UNL     1       1.294   9.730  19.596  0.00  0.00    +0.000 HD
ENDROOT
BRANCH   1   9
ATOM      9  S   UNL     1       1.021   8.382  21.734  0.00  0.00    +0.000 S 
BRANCH   9  10
ATOM     10  C   UNL     1      -0.291   9.483  21.163  0.00  0.00    +0.000 C 
BRANCH  10  11
ATOM     11  C   UNL     1      -0.305  10.806  21.932  0.00  0.00    +0.000 C 
ATOM     12  O   UNL     1      -0.328  10.891  23.159  0.00  0.00    +0.000 OA
BRANCH  11  17
ATOM     13  C   UNL     1      -0.195  15.690  18.768  0.00  0.00    +0.000 C 
ATOM     14  C   UNL     1      -0.212  14.434  19.587  0.00  0.00    +0.000 A 
ATOM     15  C   UNL     1       0.908  13.598  19.660  0.00  0.00    +0.000 A 
ATOM     16  C   UNL     1       0.866  12.426  20.425  0.00  0.00    +0.000 A 
ATOM     17  C   UNL     1      -0.295  12.071  21.127  0.00  0.00    +0.000 A 
ATOM     18  C   UNL     1      -1.412  12.911  21.054  0.00  0.00    +0.000 A 
ATOM     19  C   UNL     1      -1.369  14.080  20.288  0.00  0.00    +0.000 A 
ENDBRANCH  11  17
ENDBRANCH  10  11
ENDBRANCH   9  10
ENDBRANCH   1   9
BRANCH   3  20
ATOM     20  C   UNL     1       3.261   4.995  18.420  0.00  0.00    +0.000 C 
BRANCH  20  21
ATOM     21  N   UNL     1       4.747   4.863  18.321  0.00  0.00    +0.000 N 
ATOM     22  C   UNL     1       5.496   5.476  19.421  0.00  0.00    +0.000 C 
ATOM     23  C   UNL     1       7.010   5.429  19.378  0.00  0.00    +0.000 C 
ATOM     24  C   UNL     1       7.672   5.195  18.046  0.00  0.00    +0.000 C 
ATOM     25  C   UNL     1       6.756   4.910  16.904  0.00  0.00    +0.000 A 
ATOM     26  C   UNL     1       7.396   4.743  15.650  0.00  0.00    +0.000 A 
ATOM     27  C   UNL     1       6.669   4.473  14.505  0.00  0.00    +0.000 A 
ATOM     28  C   UNL     1       5.291   4.379  14.611  0.00  0.00    +0.000 A 
ATOM     29  C   UNL     1       4.653   4.537  15.860  0.00  0.00    +0.000 A 
ATOM     30  C   UNL     1       5.359   4.799  17.055  0.00  0.00    +0.000 A 
ENDBRANCH  20  21
ENDBRANCH   3  20
TORSDOF 6
ENDMDL
