MODEL 1
REMARK VINA RESULT:      -7.7      0.000      0.000
REMARK  Name = 
REMARK  2 active torsions:
REMARK  status: ('A' for Active; 'I' for Inactive)
REMARK    1  A    between atoms: C_7  and  O_8
REMARK    2  A    between atoms: O_8  and  C_9
REMARK                            x       y       z     vdW  Elec       q    Type
REMARK                         _______ _______ _______ _____ _____    ______ ____
ROOT
ATOM      1  C   UNL     1       2.004   7.415  20.324  0.00  0.00    +0.000 A 
ATOM      2  N   UNL     1       1.449   7.638  21.475  0.00  0.00    +0.000 NA
ATOM      3  C   UNL     1       0.689   8.829  21.620  0.00  0.00    +0.000 A 
ATOM      4  C   UNL     1       0.051   9.076  22.836  0.00  0.00    +0.000 A 
ATOM      5  C   UNL     1      -0.747  10.215  23.002  0.00  0.00    +0.000 A 
ATOM      6  C   UNL     1      -0.902  11.130  21.959  0.00  0.00    +0.000 A 
ATOM      7  C   UNL     1      -0.254  10.921  20.742  0.00  0.00    +0.000 A 
ATOM      8  C   UNL     1       0.528   9.775  20.584  0.00  0.00    +0.000 A 
ATOM      9  N   UNL     1       1.191   9.480  19.384  0.00  0.00    +0.000 N 
ATOM     10  C   UNL     1       1.296  10.172  18.207  0.00  0.00    +0.000 A 
ATOM     11  N   UNL     1       2.038   9.527  17.331  0.00  0.00    +0.000 NA
ATOM     12  C   UNL     1       2.424   8.371  17.963  0.00  0.00    +0.000 A 
ATOM     13  C   UNL     1       1.909   8.326  19.236  0.00  0.00    +0.000 A 
ENDROOT
BRANCH   1  14
ATOM     14  O   UNL     1       2.763   6.304  19.991  0.00  0.00    +0.000 OA
BRANCH  14  21
ATOM     15 BR   UNL     1       3.943   5.102  17.367  0.00  0.00    +0.000 Br
ATOM     16  C   UNL     1       2.579   4.411  18.487  0.00  0.00    +0.000 A 
ATOM     17  C   UNL     1       2.028   3.163  18.181  0.00  0.00    +0.000 A 
ATOM     18  C   UNL     1       1.049   2.610  19.009  0.00  0.00    +0.000 A 
ATOM     19  C   UNL     1       0.618   3.297  20.143  0.00  0.00    +0.000 A 
ATOM     20  C   UNL     1       1.160   4.544  20.450  0.00  0.00    +0.000 A 
ATOM     21  C   UNL     1       2.126   5.105  19.614  0.00  0.00    +0.000 A 
ENDBRANCH  14  21
ENDBRANCH   1  14
TORSDOF 2
ENDMDL
MODEL 2
REMARK VINA RESULT:      -7.7      3.442      5.428
REMARK  Name = 
REMARK  2 active torsions:
REMARK  status: ('A' for Active; 'I' for Inactive)
REMARK    1  A    between atoms: C_7  and  O_8
REMARK    2  A    between atoms: O_8  and  C_9
REMARK                            x       y       z     vdW  Elec       q    Type
REMARK                         _______ _______ _______ _____ _____    ______ ____
ROOT
ATOM      1  C   UNL     1       3.949   4.691  18.327  0.00  0.00    +0.000 A 
ATOM      2  N   UNL     1       3.663   5.892  17.929  0.00  0.00    +0.000 NA
ATOM      3  C   UNL     1       2.806   6.672  18.750  0.00  0.00    +0.000 A 
ATOM      4  C   UNL     1       2.511   7.980  18.365  0.00  0.00    +0.000 A 
ATOM      5  C   UNL     1       1.709   8.796  19.172  0.00  0.00    +0.000 A 
ATOM      6  C   UNL     1       1.177   8.307  20.366  0.00  0.00    +0.000 A 
ATOM      7  C   UNL     1       1.434   6.996  20.763  0.00  0.00    +0.000 A 
ATOM      8  C   UNL     1       2.247   6.196  19.957  0.00  0.00    +0.000 A 
ATOM      9  N   UNL     1       2.572   4.875  20.297  0.00  0.00    +0.000 N 
ATOM     10  C   UNL     1       2.186   4.083  21.345  0.00  0.00    +0.000 A 
ATOM     11  N   UNL     1       2.726   2.884  21.270  0.00  0.00    +0.000 NA
ATOM     12  C   UNL     1       3.496   2.903  20.133  0.00  0.00    +0.000 A 
ATOM     13  C   UNL     1       3.411   4.128  19.518  0.00  0.00    +0.000 A 
ENDROOT
BRANCH   1  14
ATOM     14  O   UNL     1       4.779   3.795  17.672  0.00  0.00    +0.000 OA
BRANCH  14  21
ATOM     15 BR   UNL     1       7.532   5.117  18.296  0.00  0.00    +0.000 Br
ATOM     16  C   UNL     1       6.739   4.753  16.614  0.00  0.00    +0.000 A 
ATOM     17  C   UNL     1       7.466   5.036  15.454  0.00  0.00    +0.000 A 
ATOM     18  C   UNL     1       6.923   4.744  14.200  0.00  0.00    +0.000 A 
ATOM     19  C   UNL     1       5.657   4.165  14.101  0.00  0.00    +0.000 A 
ATOM     20  C   UNL     1       4.928   3.885  15.254  0.00  0.00    +0.000 A 
ATOM     21  C   UNL     1       5.461   4.193  16.505  0.00  0.00    +0.000 A 
ENDBRANCH  14  21
ENDBRANCH   1  14
TORSDOF 2
ENDMDL
MODEL 3
REMARK VINA RESULT:      -7.2      2.476      6.088
REMARK  Name = 
REMARK  2 active torsions:
REMARK  status: ('A' for Active; 'I' for Inactive)
REMARK    1  A    between atoms: C_7  and  O_8
REMARK    2  A    between atoms: O_8  and  C_9
REMARK                            x       y       z     vdW  Elec       q    Type
REMARK                         _______ _______ _______ _____ _____    ______ ____
ROOT
ATOM      1  C   UNL     1       2.500   6.856  19.221  0.00  0.00    +0.000 A 
ATOM      2  N   UNL     1       1.790   5.971  19.850  0.00  0.00    +0.000 NA
ATOM      3  C   UNL     1       1.972   4.608  19.494  0.00  0.00    +0.000 A 
ATOM      4  C   UNL     1       1.248   3.632  20.180  0.00  0.00    +0.000 A 
ATOM      5  C   UNL     1       1.435   2.274  19.891  0.00  0.00    +0.000 A 
ATOM      6  C   UNL     1       2.334   1.878  18.901  0.00  0.00    +0.000 A 
ATOM      7  C   UNL     1       3.051   2.833  18.183  0.00  0.00    +0.000 A 
ATOM      8  C   UNL     1       2.867   4.183  18.488  0.00  0.00    +0.000 A 
ATOM      9  N   UNL     1       3.568   5.204  17.829  0.00  0.00    +0.000 N 
ATOM     10  C   UNL     1       4.464   5.172  16.795  0.00  0.00    +0.000 A 
ATOM     11  N   UNL     1       4.874   6.381  16.471  0.00  0.00    +0.000 NA
ATOM     12  C   UNL     1       4.222   7.227  17.334  0.00  0.00    +0.000 A 
ATOM     13  C   UNL     1       3.408   6.515  18.181  0.00  0.00    +0.000 A 
ENDROOT
BRANCH   1  14
ATOM     14  O   UNL     1       2.474   8.224  19.443  0.00  0.00    +0.000 OA
BRANCH  14  21
ATOM     15 BR   UNL     1       1.197   9.095  22.150  0.00  0.00    +0.000 Br
ATOM     16  C   UNL     1       0.608   9.453  20.385  0.00  0.00    +0.000 A 
ATOM     17  C   UNL     1      -0.514  10.267  20.204  0.00  0.00    +0.000 A 
ATOM     18  C   UNL     1      -0.950  10.580  18.914  0.00  0.00    +0.000 A 
ATOM     19  C   UNL     1      -0.266  10.085  17.803  0.00  0.00    +0.000 A 
ATOM     20  C   UNL     1       0.850   9.270  17.979  0.00  0.00    +0.000 A 
ATOM     21  C   UNL     1       1.275   8.943  19.266  0.00  0.00    +0.000 A 
ENDBRANCH  14  21
ENDBRANCH   1  14
TORSDOF 2
ENDMDL
MODEL 4
REMARK VINA RESULT:      -7.2      0.907      1.006
REMARK  Name = 
REMARK  2 active torsions:
REMARK  status: ('A' for Active; 'I' for Inactive)
REMARK    1  A    between atoms: C_7  and  O_8
REMARK    2  A    between atoms: O_8  and  C_9
REMARK                            x       y       z     vdW  Elec       q    Type
REMARK                         _______ _______ _______ _____ _____    ______ ____
ROOT
ATOM      1  C   UNL     1       1.919   7.391  20.205  0.00  0.00    +0.000 A 
ATOM      2  N   UNL     1       1.345   7.574  21.354  0.00  0.00    +0.000 NA
ATOM      3  C   UNL     1       0.648   8.795  21.556  0.00  0.00    +0.000 A 
ATOM      4  C   UNL     1      -0.009   9.002  22.769  0.00  0.00    +0.000 A 
ATOM      5  C   UNL     1      -0.747  10.172  22.987  0.00  0.00    +0.000 A 
ATOM      6  C   UNL     1      -0.822  11.157  22.001  0.00  0.00    +0.000 A 
ATOM      7  C   UNL     1      -0.153  10.987  20.790  0.00  0.00    +0.000 A 
ATOM      8  C   UNL     1       0.568   9.810  20.578  0.00  0.00    +0.000 A 
ATOM      9  N   UNL     1       1.248   9.553  19.378  0.00  0.00    +0.000 N 
ATOM     10  C   UNL     1       1.423  10.310  18.251  0.00  0.00    +0.000 A 
ATOM     11  N   UNL     1       2.152   9.679  17.353  0.00  0.00    +0.000 NA
ATOM     12  C   UNL     1       2.456   8.466  17.920  0.00  0.00    +0.000 A 
ATOM     13  C   UNL     1       1.904   8.372  19.174  0.00  0.00    +0.000 A 
ENDROOT
BRANCH   1  14
ATOM     14  O   UNL     1       2.624   6.262  19.820  0.00  0.00    +0.000 OA
BRANCH  14  21
ATOM     15 BR   UNL     1       1.481   4.689  17.383  0.00  0.00    +0.000 Br
ATOM     16  C   UNL     1       1.659   4.129  19.185  0.00  0.00    +0.000 A 
ATOM     17  C   UNL     1       1.304   2.820  19.519  0.00  0.00    +0.000 A 
ATOM     18  C   UNL     1       1.460   2.366  20.831  0.00  0.00    +0.000 A 
ATOM     19  C   UNL     1       1.973   3.216  21.811  0.00  0.00    +0.000 A 
ATOM     20  C   UNL     1       2.325   4.524  21.484  0.00  0.00    +0.000 A 
ATOM     21  C   UNL     1       2.153   4.983  20.178  0.00  0.00    +0.000 A 
ENDBRANCH  14  21
ENDBRANCH   1  14
TORSDOF 2
ENDMDL
MODEL 5
REMARK VINA RESULT:      -7.1      3.448      5.642
REMARK  Name = 
REMARK  2 active torsions:
REMARK  status: ('A' for Active; 'I' for Inactive)
REMARK    1  A    between atoms: C_7  and  O_8
REMARK    2  A    between atoms: O_8  and  C_9
REMARK                            x       y       z     vdW  Elec       q    Type
REMARK                         _______ _______ _______ _____ _____    ______ ____
ROOT
ATOM      1  C   UNL     1       3.901   5.957  17.808  0.00  0.00    +0.000 A 
ATOM      2  N   UNL     1       4.150   4.753  18.223  0.00  0.00    +0.000 NA
ATOM      3  C   UNL     1       3.474   4.306  19.390  0.00  0.00    +0.000 A 
ATOM      4  C   UNL     1       3.695   3.003  19.838  0.00  0.00    +0.000 A 
ATOM      5  C   UNL     1       3.011   2.510  20.957  0.00  0.00    +0.000 A 
ATOM      6  C   UNL     1       2.111   3.321  21.651  0.00  0.00    +0.000 A 
ATOM      7  C   UNL     1       1.891   4.635  21.241  0.00  0.00    +0.000 A 
ATOM      8  C   UNL     1       2.568   5.111  20.116  0.00  0.00    +0.000 A 
ATOM      9  N   UNL     1       2.384   6.412  19.625  0.00  0.00    +0.000 N 
ATOM     10  C   UNL     1       1.635   7.461  20.086  0.00  0.00    +0.000 A 
ATOM     11  N   UNL     1       1.764   8.523  19.316  0.00  0.00    +0.000 NA
ATOM     12  C   UNL     1       2.625   8.143  18.316  0.00  0.00    +0.000 A 
ATOM     13  C   UNL     1       3.020   6.839  18.492  0.00  0.00    +0.000 A 
ENDROOT
BRANCH   1  14
ATOM     14  O   UNL     1       4.447   6.556  16.684  0.00  0.00    +0.000 OA
BRANCH  14  21
ATOM     15 BR   UNL     1       7.416   6.925  17.562  0.00  0.00    +0.000 Br
ATOM     16  C   UNL     1       6.710   5.854  16.167  0.00  0.00    +0.000 A 
ATOM     17  C   UNL     1       7.583   5.046  15.433  0.00  0.00    +0.000 A 
ATOM     18  C   UNL     1       7.088   4.217  14.425  0.00  0.00    +0.000 A 
ATOM     19  C   UNL     1       5.721   4.189  14.148  0.00  0.00    +0.000 A 
ATOM     20  C   UNL     1       4.847   4.995  14.873  0.00  0.00    +0.000 A 
ATOM     21  C   UNL     1       5.342   5.837  15.869  0.00  0.00    +0.000 A 
ENDBRANCH  14  21
ENDBRANCH   1  14
TORSDOF 2
ENDMDL
MODEL 6
REMARK VINA RESULT:      -7.0      2.817      6.707
REMARK  Name = 
REMARK  2 active torsions:
REMARK  status: ('A' for Active; 'I' for Inactive)
REMARK    1  A    between atoms: C_7  and  O_8
REMARK    2  A    between atoms: O_8  and  C_9
REMARK                            x       y       z     vdW  Elec       q    Type
REMARK                         _______ _______ _______ _____ _____    ______ ____
ROOT
ATOM      1  C   UNL     1       2.639   6.891  19.398  0.00  0.00    +0.000 A 
ATOM      2  N   UNL     1       3.481   7.215  18.466  0.00  0.00    +0.000 NA
ATOM      3  C   UNL     1       3.993   6.171  17.650  0.00  0.00    +0.000 A 
ATOM      4  C   UNL     1       4.872   6.495  16.616  0.00  0.00    +0.000 A 
ATOM      5  C   UNL     1       5.360   5.501  15.759  0.00  0.00    +0.000 A 
ATOM      6  C   UNL     1       4.989   4.168  15.937  0.00  0.00    +0.000 A 
ATOM      7  C   UNL     1       4.132   3.812  16.978  0.00  0.00    +0.000 A 
ATOM      8  C   UNL     1       3.641   4.814  17.817  0.00  0.00    +0.000 A 
ATOM      9  N   UNL     1       2.756   4.542  18.871  0.00  0.00    +0.000 N 
ATOM     10  C   UNL     1       2.243   3.366  19.349  0.00  0.00    +0.000 A 
ATOM     11  N   UNL     1       1.448   3.568  20.380  0.00  0.00    +0.000 NA
ATOM     12  C   UNL     1       1.443   4.927  20.573  0.00  0.00    +0.000 A 
ATOM     13  C   UNL     1       2.248   5.546  19.648  0.00  0.00    +0.000 A 
ENDROOT
BRANCH   1  14
ATOM     14  O   UNL     1       2.023   7.769  20.276  0.00  0.00    +0.000 OA
BRANCH  14  21
ATOM     15 BR   UNL     1       0.491   9.254  22.549  0.00  0.00    +0.000 Br
ATOM     16  C   UNL     1       0.447   9.567  20.681  0.00  0.00    +0.000 A 
ATOM     17  C   UNL     1      -0.311  10.638  20.198  0.00  0.00    +0.000 A 
ATOM     18  C   UNL     1      -0.332  10.917  18.829  0.00  0.00    +0.000 A 
ATOM     19  C   UNL     1       0.403  10.133  17.941  0.00  0.00    +0.000 A 
ATOM     20  C   UNL     1       1.156   9.062  18.417  0.00  0.00    +0.000 A 
ATOM     21  C   UNL     1       1.165   8.771  19.781  0.00  0.00    +0.000 A 
ENDBRANCH  14  21
ENDBRANCH   1  14
TORSDOF 2
ENDMDL
MODEL 7
REMARK VINA RESULT:      -7.0      1.794      3.271
REMARK  Name = 
REMARK  2 active torsions:
REMARK  status: ('A' for Active; 'I' for Inactive)
REMARK    1  A    between atoms: C_7  and  O_8
REMARK    2  A    between atoms: O_8  and  C_9
REMARK                            x       y       z     vdW  Elec       q    Type
REMARK                         _______ _______ _______ _____ _____    ______ ____
ROOT
ATOM      1  C   UNL     1       1.204   8.872  20.145  0.00  0.00    +0.000 A 
ATOM      2  N   UNL     1       0.695   9.266  19.019  0.00  0.00    +0.000 NA
ATOM      3  C   UNL     1      -0.332  10.247  19.069  0.00  0.00    +0.000 A 
ATOM      4  C   UNL     1      -0.873  10.717  17.871  0.00  0.00    +0.000 A 
ATOM      5  C   UNL     1      -1.852  11.717  17.877  0.00  0.00    +0.000 A 
ATOM      6  C   UNL     1      -2.316  12.247  19.082  0.00  0.00    +0.000 A 
ATOM      7  C   UNL     1      -1.813  11.778  20.294  0.00  0.00    +0.000 A 
ATOM      8  C   UNL     1      -0.826  10.789  20.275  0.00  0.00    +0.000 A 
ATOM      9  N   UNL     1      -0.251  10.282  21.450  0.00  0.00    +0.000 N 
ATOM     10  C   UNL     1      -0.506  10.534  22.771  0.00  0.00    +0.000 A 
ATOM     11  N   UNL     1       0.269   9.817  23.559  0.00  0.00    +0.000 NA
ATOM     12  C   UNL     1       1.059   9.076  22.714  0.00  0.00    +0.000 A 
ATOM     13  C   UNL     1       0.750   9.351  21.405  0.00  0.00    +0.000 A 
ENDROOT
BRANCH   1  14
ATOM     14  O   UNL     1       2.222   7.942  20.293  0.00  0.00    +0.000 OA
BRANCH  14  21
ATOM     15 BR   UNL     1       3.566   7.310  17.552  0.00  0.00    +0.000 Br
ATOM     16  C   UNL     1       2.608   6.151  18.706  0.00  0.00    +0.000 A 
ATOM     17  C   UNL     1       2.509   4.798  18.366  0.00  0.00    +0.000 A 
ATOM     18  C   UNL     1       1.842   3.912  19.215  0.00  0.00    +0.000 A 
ATOM     19  C   UNL     1       1.277   4.371  20.405  0.00  0.00    +0.000 A 
ATOM     20  C   UNL     1       1.369   5.718  20.746  0.00  0.00    +0.000 A 
ATOM     21  C   UNL     1       2.019   6.608  19.890  0.00  0.00    +0.000 A 
ENDBRANCH  14  21
ENDBRANCH   1  14
TORSDOF 2
ENDMDL
MODEL 8
REMARK VINA RESULT:      -7.0      5.026      7.397
REMARK  Name = 
REMARK  2 active torsions:
REMARK  status: ('A' for Active; 'I' for Inactive)
REMARK    1  A    between atoms: C_7  and  O_8
REMARK    2  A    between atoms: O_8  and  C_9
REMARK                            x       y       z     vdW  Elec       q    Type
REMARK                         _______ _______ _______ _____ _____    ______ ____
ROOT
ATOM      1  C   UNL     1       5.378   4.023  17.756  0.00  0.00    +0.000 A 
ATOM      2  N   UNL     1       5.075   3.504  16.607  0.00  0.00    +0.000 NA
ATOM      3  C   UNL     1       5.763   3.989  15.463  0.00  0.00    +0.000 A 
ATOM      4  C   UNL     1       5.483   3.424  14.218  0.00  0.00    +0.000 A 
ATOM      5  C   UNL     1       6.175   3.842  13.075  0.00  0.00    +0.000 A 
ATOM      6  C   UNL     1       7.143   4.843  13.159  0.00  0.00    +0.000 A 
ATOM      7  C   UNL     1       7.424   5.444  14.385  0.00  0.00    +0.000 A 
ATOM      8  C   UNL     1       6.738   5.009  15.521  0.00  0.00    +0.000 A 
ATOM      9  N   UNL     1       6.980   5.545  16.795  0.00  0.00    +0.000 N 
ATOM     10  C   UNL     1       7.803   6.554  17.216  0.00  0.00    +0.000 A 
ATOM     11  N   UNL     1       7.710   6.744  18.516  0.00  0.00    +0.000 NA
ATOM     12  C   UNL     1       6.795   5.818  18.953  0.00  0.00    +0.000 A 
ATOM     13  C   UNL     1       6.332   5.068  17.900  0.00  0.00    +0.000 A 
ENDROOT
BRANCH   1  14
ATOM     14  O   UNL     1       4.829   3.665  18.977  0.00  0.00    +0.000 OA
BRANCH  14  21
ATOM     15 BR   UNL     1       2.956   6.115  19.432  0.00  0.00    +0.000 Br
ATOM     16  C   UNL     1       2.497   4.291  19.204  0.00  0.00    +0.000 A 
ATOM     17  C   UNL     1       1.145   3.938  19.164  0.00  0.00    +0.000 A 
ATOM     18  C   UNL     1       0.776   2.607  18.959  0.00  0.00    +0.000 A 
ATOM     19  C   UNL     1       1.753   1.625  18.792  0.00  0.00    +0.000 A 
ATOM     20  C   UNL     1       3.101   1.971  18.836  0.00  0.00    +0.000 A 
ATOM     21  C   UNL     1       3.472   3.297  19.058  0.00  0.00    +0.000 A 
ENDBRANCH  14  21
ENDBRANCH   1  14
TORSDOF 2
ENDMDL
MODEL 9
REMARK VINA RESULT:      -6.9      2.491      5.887
REMARK  Name = 
REMARK  2 active torsions:
REMARK  status: ('A' for Active; 'I' for Inactive)
REMARK    1  A    between atoms: C_7  and  O_8
REMARK    2  A    between atoms: O_8  and  C_9
REMARK                            x       y       z     vdW  Elec       q    Type
REMARK                         _______ _______ _______ _____ _____    ______ ____
ROOT
ATOM      1  C   UNL     1       2.196   7.101  19.512  0.00  0.00    +0.000 A 
ATOM      2  N   UNL     1       1.779   6.251  20.399  0.00  0.00    +0.000 NA
ATOM      3  C   UNL     1       2.371   4.960  20.404  0.00  0.00    +0.000 A 
ATOM      4  C   UNL     1       1.967   4.038  21.371  0.00  0.00    +0.000 A 
ATOM      5  C   UNL     1       2.562   2.772  21.439  0.00  0.00    +0.000 A 
ATOM      6  C   UNL     1       3.555   2.407  20.529  0.00  0.00    +0.000 A 
ATOM      7  C   UNL     1       3.959   3.298  19.537  0.00  0.00    +0.000 A 
ATOM      8  C   UNL     1       3.369   4.563  19.487  0.00  0.00    +0.000 A 
ATOM      9  N   UNL     1       3.736   5.525  18.535  0.00  0.00    +0.000 N 
ATOM     10  C   UNL     1       4.616   5.480  17.488  0.00  0.00    +0.000 A 
ATOM     11  N   UNL     1       4.645   6.621  16.830  0.00  0.00    +0.000 NA
ATOM     12  C   UNL     1       3.753   7.437  17.481  0.00  0.00    +0.000 A 
ATOM     13  C   UNL     1       3.181   6.775  18.539  0.00  0.00    +0.000 A 
ENDROOT
BRANCH   1  14
ATOM     14  O   UNL     1       1.752   8.406  19.367  0.00  0.00    +0.000 OA
BRANCH  14  21
ATOM     15 BR   UNL     1      -0.499  10.335  18.403  0.00  0.00    +0.000 Br
ATOM     16  C   UNL     1       0.027   9.908  20.173  0.00  0.00    +0.000 A 
ATOM     17  C   UNL     1      -0.695  10.453  21.238  0.00  0.00    +0.000 A 
ATOM     18  C   UNL     1      -0.356  10.126  22.553  0.00  0.00    +0.000 A 
ATOM     19  C   UNL     1       0.702   9.254  22.808  0.00  0.00    +0.000 A 
ATOM     20  C   UNL     1       1.428   8.711  21.750  0.00  0.00    +0.000 A 
ATOM     21  C   UNL     1       1.101   9.050  20.437  0.00  0.00    +0.000 A 
ENDBRANCH  14  21
ENDBRANCH   1  14
TORSDOF 2
ENDMDL
