MODEL 1
REMARK VINA RESULT:      -8.4      0.000      0.000
REMARK  Name = 
REMARK  8 active torsions:
REMARK  status: ('A' for Active; 'I' for Inactive)
REMARK    1  A    between atoms: C_2  and  C_20
REMARK    2  A    between atoms: N_3  and  C_4
REMARK    3  A    between atoms: N_7  and  C_8
REMARK    4  A    between atoms: C_8  and  C_9
REMARK    5  A    between atoms: C_12  and  N_13
REMARK    6  A    between atoms: C_24  and  N_25
REMARK    7  A    between atoms: C_28  and  O_29
REMARK    8  A    between atoms: C_30  and  O_31
REMARK                            x       y       z     vdW  Elec       q    Type
REMARK                         _______ _______ _______ _____ _____    ______ ____
ROOT
ATOM      1  O   UNL     1       0.110   9.442  17.529  0.00  0.00    +0.000 OA
ATOM      2  C   UNL     1       1.106   9.638  18.227  0.00  0.00    +0.000 C 
ATOM      3  N   UNL     1       1.472  10.886  18.690  0.00  0.00    +0.000 N 
ATOM      4  H   UNL     1       2.399  10.973  19.108  0.00  0.00    +0.000 HD
ENDROOT
BRANCH   2   5
ATOM      5  C   UNL     1       1.977   8.498  18.675  0.00  0.00    +0.000 A 
ATOM      6  C   UNL     1       2.910   7.962  17.867  0.00  0.00    +0.000 A 
ATOM      7  C   UNL     1       3.611   6.753  18.305  0.00  0.00    +0.000 A 
ATOM      8  C   UNL     1       4.776   6.268  17.698  0.00  0.00    +0.000 A 
ATOM      9  C   UNL     1       5.322   5.032  18.114  0.00  0.00    +0.000 A 
ATOM     10  C   UNL     1       4.683   4.261  19.101  0.00  0.00    +0.000 A 
ATOM     11  C   UNL     1       3.525   4.760  19.698  0.00  0.00    +0.000 A 
ATOM     12  C   UNL     1       3.038   6.015  19.341  0.00  0.00    +0.000 A 
ATOM     13  O   UNL     1       1.978   6.542  20.090  0.00  0.00    +0.000 OA
ATOM     14  C   UNL     1       1.823   7.915  20.020  0.00  0.00    +0.000 A 
ATOM     15  O   UNL     1       1.482   8.584  20.987  0.00  0.00    +0.000 OA
BRANCH   9  16
ATOM     16  N   UNL     1       6.563   4.565  17.502  0.00  0.00    +0.000 N 
ATOM     17  O   UNL     1       6.582   4.416  16.273  0.00  0.00    +0.000 OA
ATOM     18  O   UNL     1       7.528   4.354  18.252  0.00  0.00    +0.000 OA
ENDBRANCH   9  16
BRANCH  10  19
ATOM     19  O   UNL     1       5.099   3.041  19.564  0.00  0.00    +0.000 OA
ATOM     20  H   UNL     1       5.996   2.840  19.214  0.00  0.00    +0.000 HD
ENDBRANCH  10  19
BRANCH  11  21
ATOM     21  O   UNL     1       2.871   4.011  20.636  0.00  0.00    +0.000 OA
ATOM     22  H   UNL     1       2.601   4.638  21.337  0.00  0.00    +0.000 HD
ENDBRANCH  11  21
ENDBRANCH   2   5
BRANCH   3  23
ATOM     23  C   UNL     1       0.783  12.135  18.338  0.00  0.00    +0.000 C 
ATOM     24  C   UNL     1       1.277  13.316  19.172  0.00  0.00    +0.000 C 
ATOM     25  C   UNL     1       0.870  13.175  20.646  0.00  0.00    +0.000 C 
ATOM     26  N   UNL     1      -0.582  12.987  20.857  0.00  0.00    +0.000 NA
ATOM     27  C   UNL     1      -1.125  11.919  20.003  0.00  0.00    +0.000 C 
ATOM     28  C   UNL     1      -0.735  12.052  18.529  0.00  0.00    +0.000 C 
BRANCH  26  29
ATOM     29  C   UNL     1      -0.816  12.673  22.291  0.00  0.00    +0.000 C 
BRANCH  29  30
ATOM     30  C   UNL     1      -2.198  13.011  22.828  0.00  0.00    +0.000 A 
ATOM     31  C   UNL     1      -2.796  14.253  22.532  0.00  0.00    +0.000 A 
ATOM     32  C   UNL     1      -4.097  14.543  22.950  0.00  0.00    +0.000 A 
ATOM     33  C   UNL     1      -4.829  13.578  23.653  0.00  0.00    +0.000 A 
ATOM     34  C   UNL     1      -4.244  12.344  23.971  0.00  0.00    +0.000 A 
ATOM     35  C   UNL     1      -2.928  12.077  23.578  0.00  0.00    +0.000 A 
BRANCH  33  36
ATOM     36  N   UNL     1      -6.217  13.847  24.045  0.00  0.00    +0.000 N 
ATOM     37  O   UNL     1      -6.926  12.878  24.361  0.00  0.00    +0.000 OA
ATOM     38  O   UNL     1      -6.600  15.024  24.046  0.00  0.00    +0.000 OA
ENDBRANCH  33  36
ENDBRANCH  29  30
ENDBRANCH  26  29
ENDBRANCH   3  23
TORSDOF 8
ENDMDL
MODEL 2
REMARK VINA RESULT:      -8.3      1.107      1.344
REMARK  Name = 
REMARK  8 active torsions:
REMARK  status: ('A' for Active; 'I' for Inactive)
REMARK    1  A    between atoms: C_2  and  C_20
REMARK    2  A    between atoms: N_3  and  C_4
REMARK    3  A    between atoms: N_7  and  C_8
REMARK    4  A    between atoms: C_8  and  C_9
REMARK    5  A    between atoms: C_12  and  N_13
REMARK    6  A    between atoms: C_24  and  N_25
REMARK    7  A    between atoms: C_28  and  O_29
REMARK    8  A    between atoms: C_30  and  O_31
REMARK                            x       y       z     vdW  Elec       q    Type
REMARK                         _______ _______ _______ _____ _____    ______ ____
ROOT
ATOM      1  O   UNL     1      -0.808  10.097  17.657  0.00  0.00    +0.000 OA
ATOM      2  C   UNL     1       0.219  10.382  18.274  0.00  0.00    +0.000 C 
ATOM      3  N   UNL     1       0.545  11.672  18.646  0.00  0.00    +0.000 N 
ATOM      4  H   UNL     1       1.492  11.829  18.995  0.00  0.00    +0.000 HD
ENDROOT
BRANCH   2   5
ATOM      5  C   UNL     1       1.178   9.315  18.720  0.00  0.00    +0.000 A 
ATOM      6  C   UNL     1       1.965   8.661  17.845  0.00  0.00    +0.000 A 
ATOM      7  C   UNL     1       2.757   7.526  18.321  0.00  0.00    +0.000 A 
ATOM      8  C   UNL     1       3.805   6.950  17.592  0.00  0.00    +0.000 A 
ATOM      9  C   UNL     1       4.442   5.786  18.079  0.00  0.00    +0.000 A 
ATOM     10  C   UNL     1       4.004   5.171  19.265  0.00  0.00    +0.000 A 
ATOM     11  C   UNL     1       2.961   5.759  19.981  0.00  0.00    +0.000 A 
ATOM     12  C   UNL     1       2.392   6.950  19.538  0.00  0.00    +0.000 A 
ATOM     13  O   UNL     1       1.472   7.588  20.381  0.00  0.00    +0.000 OA
ATOM     14  C   UNL     1       1.279   8.937  20.141  0.00  0.00    +0.000 A 
ATOM     15  O   UNL     1       1.101   9.742  21.046  0.00  0.00    +0.000 OA
BRANCH   9  16
ATOM     16  N   UNL     1       5.564   5.227  17.328  0.00  0.00    +0.000 N 
ATOM     17  O   UNL     1       6.557   5.945  17.153  0.00  0.00    +0.000 OA
ATOM     18  O   UNL     1       5.455   4.061  16.919  0.00  0.00    +0.000 OA
ENDBRANCH   9  16
BRANCH  10  19
ATOM     19  O   UNL     1       4.521   4.030  19.818  0.00  0.00    +0.000 OA
ATOM     20  H   UNL     1       5.367   4.235  20.277  0.00  0.00    +0.000 HD
ENDBRANCH  10  19
BRANCH  11  21
ATOM     21  O   UNL     1       2.499   5.159  21.119  0.00  0.00    +0.000 OA
ATOM     22  H   UNL     1       2.085   5.871  21.646  0.00  0.00    +0.000 HD
ENDBRANCH  11  21
ENDBRANCH   2   5
BRANCH   3  23
ATOM     23  C   UNL     1      -0.234  12.862  18.278  0.00  0.00    +0.000 C 
ATOM     24  C   UNL     1       0.274  14.119  18.985  0.00  0.00    +0.000 C 
ATOM     25  C   UNL     1       0.007  14.063  20.496  0.00  0.00    +0.000 C 
ATOM     26  N   UNL     1      -1.409  13.827  20.851  0.00  0.00    +0.000 NA
ATOM     27  C   UNL     1      -1.972  12.680  20.122  0.00  0.00    +0.000 C 
ATOM     28  C   UNL     1      -1.723  12.727  18.613  0.00  0.00    +0.000 C 
BRANCH  26  29
ATOM     29  C   UNL     1      -1.499  13.604  22.318  0.00  0.00    +0.000 C 
BRANCH  29  30
ATOM     30  C   UNL     1      -2.901  13.427  22.879  0.00  0.00    +0.000 A 
ATOM     31  C   UNL     1      -3.935  14.311  22.511  0.00  0.00    +0.000 A 
ATOM     32  C   UNL     1      -5.246  14.110  22.952  0.00  0.00    +0.000 A 
ATOM     33  C   UNL     1      -5.543  13.001  23.754  0.00  0.00    +0.000 A 
ATOM     34  C   UNL     1      -4.523  12.122  24.145  0.00  0.00    +0.000 A 
ATOM     35  C   UNL     1      -3.209  12.351  23.725  0.00  0.00    +0.000 A 
BRANCH  33  36
ATOM     36  N   UNL     1      -6.924  12.746  24.177  0.00  0.00    +0.000 N 
ATOM     37  O   UNL     1      -7.588  13.709  24.594  0.00  0.00    +0.000 OA
ATOM     38  O   UNL     1      -7.352  11.588  24.087  0.00  0.00    +0.000 OA
ENDBRANCH  33  36
ENDBRANCH  29  30
ENDBRANCH  26  29
ENDBRANCH   3  23
TORSDOF 8
ENDMDL
MODEL 3
REMARK VINA RESULT:      -8.3      3.297     10.584
REMARK  Name = 
REMARK  8 active torsions:
REMARK  status: ('A' for Active; 'I' for Inactive)
REMARK    1  A    between atoms: C_2  and  C_20
REMARK    2  A    between atoms: N_3  and  C_4
REMARK    3  A    between atoms: N_7  and  C_8
REMARK    4  A    between atoms: C_8  and  C_9
REMARK    5  A    between atoms: C_12  and  N_13
REMARK    6  A    between atoms: C_24  and  N_25
REMARK    7  A    between atoms: C_28  and  O_29
REMARK    8  A    between atoms: C_30  and  O_31
REMARK                            x       y       z     vdW  Elec       q    Type
REMARK                         _______ _______ _______ _____ _____    ______ ____
ROOT
ATOM      1  O   UNL     1       2.222   5.098  21.749  0.00  0.00    +0.000 OA
ATOM      2  C   UNL     1       1.954   5.545  20.633  0.00  0.00    +0.000 C 
ATOM      3  N   UNL     1       1.798   4.748  19.516  0.00  0.00    +0.000 N 
ATOM      4  H   UNL     1       1.753   5.220  18.612  0.00  0.00    +0.000 HD
ENDROOT
BRANCH   2   5
ATOM      5  C   UNL     1       1.723   7.014  20.420  0.00  0.00    +0.000 A 
ATOM      6  C   UNL     1       1.092   7.771  21.337  0.00  0.00    +0.000 A 
ATOM      7  C   UNL     1       0.758   9.155  20.999  0.00  0.00    +0.000 A 
ATOM      8  C   UNL     1       0.363  10.112  21.942  0.00  0.00    +0.000 A 
ATOM      9  C   UNL     1      -0.050  11.394  21.512  0.00  0.00    +0.000 A 
ATOM     10  C   UNL     1      -0.114  11.705  20.143  0.00  0.00    +0.000 A 
ATOM     11  C   UNL     1       0.285  10.742  19.215  0.00  0.00    +0.000 A 
ATOM     12  C   UNL     1       0.768   9.510  19.649  0.00  0.00    +0.000 A 
ATOM     13  O   UNL     1       1.317   8.649  18.690  0.00  0.00    +0.000 OA
ATOM     14  C   UNL     1       2.170   7.675  19.181  0.00  0.00    +0.000 A 
ATOM     15  O   UNL     1       3.171   7.318  18.574  0.00  0.00    +0.000 OA
BRANCH   9  16
ATOM     16  N   UNL     1      -0.414  12.393  22.513  0.00  0.00    +0.000 N 
ATOM     17  O   UNL     1      -1.231  12.068  23.385  0.00  0.00    +0.000 OA
ATOM     18  O   UNL     1       0.127  13.506  22.434  0.00  0.00    +0.000 OA
ENDBRANCH   9  16
BRANCH  10  19
ATOM     19  O   UNL     1      -0.524  12.896  19.605  0.00  0.00    +0.000 OA
ATOM     20  H   UNL     1       0.260  13.439  19.362  0.00  0.00    +0.000 HD
ENDBRANCH  10  19
BRANCH  11  21
ATOM     21  O   UNL     1       0.200  11.014  17.878  0.00  0.00    +0.000 OA
ATOM     22  H   UNL     1      -0.458  11.732  17.794  0.00  0.00    +0.000 HD
ENDBRANCH  11  21
ENDBRANCH   2   5
BRANCH   3  23
ATOM     23  C   UNL     1       2.017   3.295  19.498  0.00  0.00    +0.000 C 
ATOM     24  C   UNL     1       3.462   2.931  19.840  0.00  0.00    +0.000 C 
ATOM     25  C   UNL     1       4.432   3.376  18.736  0.00  0.00    +0.000 C 
ATOM     26  N   UNL     1       4.093   2.865  17.391  0.00  0.00    +0.000 NA
ATOM     27  C   UNL     1       2.682   3.109  17.053  0.00  0.00    +0.000 C 
ATOM     28  C   UNL     1       1.703   2.661  18.139  0.00  0.00    +0.000 C 
BRANCH  26  29
ATOM     29  C   UNL     1       4.986   3.518  16.397  0.00  0.00    +0.000 C 
BRANCH  29  30
ATOM     30  C   UNL     1       5.721   4.759  16.880  0.00  0.00    +0.000 A 
ATOM     31  C   UNL     1       6.858   4.641  17.704  0.00  0.00    +0.000 A 
ATOM     32  C   UNL     1       7.591   5.768  18.085  0.00  0.00    +0.000 A 
ATOM     33  C   UNL     1       7.205   7.033  17.623  0.00  0.00    +0.000 A 
ATOM     34  C   UNL     1       6.065   7.170  16.818  0.00  0.00    +0.000 A 
ATOM     35  C   UNL     1       5.320   6.039  16.470  0.00  0.00    +0.000 A 
BRANCH  33  36
ATOM     36  N   UNL     1       7.999   8.217  17.968  0.00  0.00    +0.000 N 
ATOM     37  O   UNL     1       7.831   9.243  17.288  0.00  0.00    +0.000 OA
ATOM     38  O   UNL     1       8.786   8.129  18.919  0.00  0.00    +0.000 OA
ENDBRANCH  33  36
ENDBRANCH  29  30
ENDBRANCH  26  29
ENDBRANCH   3  23
TORSDOF 8
ENDMDL
MODEL 4
REMARK VINA RESULT:      -8.3      3.258      5.464
REMARK  Name = 
REMARK  8 active torsions:
REMARK  status: ('A' for Active; 'I' for Inactive)
REMARK    1  A    between atoms: C_2  and  C_20
REMARK    2  A    between atoms: N_3  and  C_4
REMARK    3  A    between atoms: N_7  and  C_8
REMARK    4  A    between atoms: C_8  and  C_9
REMARK    5  A    between atoms: C_12  and  N_13
REMARK    6  A    between atoms: C_24  and  N_25
REMARK    7  A    between atoms: C_28  and  O_29
REMARK    8  A    between atoms: C_30  and  O_31
REMARK                            x       y       z     vdW  Elec       q    Type
REMARK                         _______ _______ _______ _____ _____    ______ ____
ROOT
ATOM      1  O   UNL     1       1.001  10.243  21.873  0.00  0.00    +0.000 OA
ATOM      2  C   UNL     1       1.097  10.106  20.653  0.00  0.00    +0.000 C 
ATOM      3  N   UNL     1       0.942  11.148  19.760  0.00  0.00    +0.000 N 
ATOM      4  H   UNL     1       0.864  10.904  18.772  0.00  0.00    +0.000 HD
ENDROOT
BRANCH   2   5
ATOM      5  C   UNL     1       1.447   8.777  20.047  0.00  0.00    +0.000 A 
ATOM      6  C   UNL     1       1.545   7.662  20.794  0.00  0.00    +0.000 A 
ATOM      7  C   UNL     1       2.046   6.436  20.170  0.00  0.00    +0.000 A 
ATOM      8  C   UNL     1       1.933   5.167  20.750  0.00  0.00    +0.000 A 
ATOM      9  C   UNL     1       2.545   4.054  20.130  0.00  0.00    +0.000 A 
ATOM     10  C   UNL     1       3.307   4.214  18.959  0.00  0.00    +0.000 A 
ATOM     11  C   UNL     1       3.407   5.485  18.392  0.00  0.00    +0.000 A 
ATOM     12  C   UNL     1       2.735   6.562  18.963  0.00  0.00    +0.000 A 
ATOM     13  O   UNL     1       2.726   7.774  18.261  0.00  0.00    +0.000 OA
ATOM     14  C   UNL     1       1.714   8.654  18.602  0.00  0.00    +0.000 A 
ATOM     15  O   UNL     1       1.151   9.356  17.772  0.00  0.00    +0.000 OA
BRANCH   9  16
ATOM     16  N   UNL     1       2.377   2.731  20.725  0.00  0.00    +0.000 N 
ATOM     17  O   UNL     1       2.771   2.564  21.887  0.00  0.00    +0.000 OA
ATOM     18  O   UNL     1       1.840   1.855  20.030  0.00  0.00    +0.000 OA
ENDBRANCH   9  16
BRANCH  10  19
ATOM     19  O   UNL     1       3.968   3.222  18.286  0.00  0.00    +0.000 OA
ATOM     20  H   UNL     1       3.681   2.342  18.623  0.00  0.00    +0.000 HD
ENDBRANCH  10  19
BRANCH  11  21
ATOM     21  O   UNL     1       4.170   5.668  17.272  0.00  0.00    +0.000 OA
ATOM     22  H   UNL     1       3.699   5.204  16.551  0.00  0.00    +0.000 HD
ENDBRANCH  11  21
ENDBRANCH   2   5
BRANCH   3  23
ATOM     23  C   UNL     1       0.560  12.514  20.139  0.00  0.00    +0.000 C 
ATOM     24  C   UNL     1      -0.427  12.529  21.306  0.00  0.00    +0.000 C 
ATOM     25  C   UNL     1      -1.793  11.958  20.896  0.00  0.00    +0.000 C 
ATOM     26  N   UNL     1      -2.398  12.622  19.722  0.00  0.00    +0.000 NA
ATOM     27  C   UNL     1      -1.451  12.717  18.599  0.00  0.00    +0.000 C 
ATOM     28  C   UNL     1      -0.089  13.294  18.991  0.00  0.00    +0.000 C 
BRANCH  26  29
ATOM     29  C   UNL     1      -3.607  11.858  19.317  0.00  0.00    +0.000 C 
BRANCH  29  30
ATOM     30  C   UNL     1      -3.591  11.287  17.907  0.00  0.00    +0.000 A 
ATOM     31  C   UNL     1      -4.479  11.776  16.928  0.00  0.00    +0.000 A 
ATOM     32  C   UNL     1      -4.419  11.320  15.609  0.00  0.00    +0.000 A 
ATOM     33  C   UNL     1      -3.446  10.379  15.247  0.00  0.00    +0.000 A 
ATOM     34  C   UNL     1      -2.567   9.869  16.212  0.00  0.00    +0.000 A 
ATOM     35  C   UNL     1      -2.658  10.308  17.537  0.00  0.00    +0.000 A 
BRANCH  33  36
ATOM     36  N   UNL     1      -3.333   9.935  13.853  0.00  0.00    +0.000 N 
ATOM     37  O   UNL     1      -4.362   9.948  13.158  0.00  0.00    +0.000 OA
ATOM     38  O   UNL     1      -2.219   9.579  13.447  0.00  0.00    +0.000 OA
ENDBRANCH  33  36
ENDBRANCH  29  30
ENDBRANCH  26  29
ENDBRANCH   3  23
TORSDOF 8
ENDMDL
MODEL 5
REMARK VINA RESULT:      -8.2      1.419      1.675
REMARK  Name = 
REMARK  8 active torsions:
REMARK  status: ('A' for Active; 'I' for Inactive)
REMARK    1  A    between atoms: C_2  and  C_20
REMARK    2  A    between atoms: N_3  and  C_4
REMARK    3  A    between atoms: N_7  and  C_8
REMARK    4  A    between atoms: C_8  and  C_9
REMARK    5  A    between atoms: C_12  and  N_13
REMARK    6  A    between atoms: C_24  and  N_25
REMARK    7  A    between atoms: C_28  and  O_29
REMARK    8  A    between atoms: C_30  and  O_31
REMARK                            x       y       z     vdW  Elec       q    Type
REMARK                         _______ _______ _______ _____ _____    ______ ____
ROOT
ATOM      1  O   UNL     1       0.343   9.209  17.233  0.00  0.00    +0.000 OA
ATOM      2  C   UNL     1       1.218   9.408  18.076  0.00  0.00    +0.000 C 
ATOM      3  N   UNL     1       1.422  10.633  18.681  0.00  0.00    +0.000 N 
ATOM      4  H   UNL     1       2.276  10.743  19.229  0.00  0.00    +0.000 HD
ENDROOT
BRANCH   2   5
ATOM      5  C   UNL     1       2.108   8.293  18.549  0.00  0.00    +0.000 A 
ATOM      6  C   UNL     1       3.092   7.797  17.777  0.00  0.00    +0.000 A 
ATOM      7  C   UNL     1       3.815   6.609  18.233  0.00  0.00    +0.000 A 
ATOM      8  C   UNL     1       5.020   6.169  17.672  0.00  0.00    +0.000 A 
ATOM      9  C   UNL     1       5.590   4.948  18.099  0.00  0.00    +0.000 A 
ATOM     10  C   UNL     1       4.937   4.146  19.050  0.00  0.00    +0.000 A 
ATOM     11  C   UNL     1       3.738   4.599  19.602  0.00  0.00    +0.000 A 
ATOM     12  C   UNL     1       3.224   5.840  19.236  0.00  0.00    +0.000 A 
ATOM     13  O   UNL     1       2.116   6.323  19.945  0.00  0.00    +0.000 OA
ATOM     14  C   UNL     1       1.917   7.691  19.881  0.00  0.00    +0.000 A 
ATOM     15  O   UNL     1       1.513   8.338  20.839  0.00  0.00    +0.000 OA
BRANCH   9  16
ATOM     16  N   UNL     1       6.871   4.530  17.535  0.00  0.00    +0.000 N 
ATOM     17  O   UNL     1       6.929   4.332  16.315  0.00  0.00    +0.000 OA
ATOM     18  O   UNL     1       7.827   4.407  18.316  0.00  0.00    +0.000 OA
ENDBRANCH   9  16
BRANCH  10  19
ATOM     19  O   UNL     1       5.374   2.935  19.519  0.00  0.00    +0.000 OA
ATOM     20  H   UNL     1       4.731   2.231  19.274  0.00  0.00    +0.000 HD
ENDBRANCH  10  19
BRANCH  11  21
ATOM     21  O   UNL     1       3.071   3.818  20.505  0.00  0.00    +0.000 OA
ATOM     22  H   UNL     1       2.885   4.396  21.271  0.00  0.00    +0.000 HD
ENDBRANCH  11  21
ENDBRANCH   2   5
BRANCH   3  23
ATOM     23  C   UNL     1       0.691  11.859  18.336  0.00  0.00    +0.000 C 
ATOM     24  C   UNL     1       1.220  13.074  19.096  0.00  0.00    +0.000 C 
ATOM     25  C   UNL     1       0.914  12.977  20.598  0.00  0.00    +0.000 C 
ATOM     26  N   UNL     1      -0.517  12.776  20.911  0.00  0.00    +0.000 NA
ATOM     27  C   UNL     1      -1.098  11.672  20.131  0.00  0.00    +0.000 C 
ATOM     28  C   UNL     1      -0.810  11.761  18.630  0.00  0.00    +0.000 C 
BRANCH  26  29
ATOM     29  C   UNL     1      -0.650  12.507  22.367  0.00  0.00    +0.000 C 
BRANCH  29  30
ATOM     30  C   UNL     1      -1.381  13.569  23.175  0.00  0.00    +0.000 A 
ATOM     31  C   UNL     1      -0.759  14.798  23.468  0.00  0.00    +0.000 A 
ATOM     32  C   UNL     1      -1.449  15.813  24.136  0.00  0.00    +0.000 A 
ATOM     33  C   UNL     1      -2.788  15.616  24.500  0.00  0.00    +0.000 A 
ATOM     34  C   UNL     1      -3.416  14.391  24.232  0.00  0.00    +0.000 A 
ATOM     35  C   UNL     1      -2.706  13.371  23.592  0.00  0.00    +0.000 A 
BRANCH  33  36
ATOM     36  N   UNL     1      -3.542  16.694  25.149  0.00  0.00    +0.000 N 
ATOM     37  O   UNL     1      -2.896  17.603  25.694  0.00  0.00    +0.000 OA
ATOM     38  O   UNL     1      -4.778  16.639  25.111  0.00  0.00    +0.000 OA
ENDBRANCH  33  36
ENDBRANCH  29  30
ENDBRANCH  26  29
ENDBRANCH   3  23
TORSDOF 8
ENDMDL
MODEL 6
REMARK VINA RESULT:      -8.2      0.926      1.228
REMARK  Name = 
REMARK  8 active torsions:
REMARK  status: ('A' for Active; 'I' for Inactive)
REMARK    1  A    between atoms: C_2  and  C_20
REMARK    2  A    between atoms: N_3  and  C_4
REMARK    3  A    between atoms: N_7  and  C_8
REMARK    4  A    between atoms: C_8  and  C_9
REMARK    5  A    between atoms: C_12  and  N_13
REMARK    6  A    between atoms: C_24  and  N_25
REMARK    7  A    between atoms: C_28  and  O_29
REMARK    8  A    between atoms: C_30  and  O_31
REMARK                            x       y       z     vdW  Elec       q    Type
REMARK                         _______ _______ _______ _____ _____    ______ ____
ROOT
ATOM      1  O   UNL     1      -0.483   9.985  17.828  0.00  0.00    +0.000 OA
ATOM      2  C   UNL     1       0.542  10.150  18.491  0.00  0.00    +0.000 C 
ATOM      3  N   UNL     1       0.974  11.389  18.921  0.00  0.00    +0.000 N 
ATOM      4  H   UNL     1       1.917  11.443  19.307  0.00  0.00    +0.000 HD
ENDROOT
BRANCH   2   5
ATOM      5  C   UNL     1       1.380   8.982  18.928  0.00  0.00    +0.000 A 
ATOM      6  C   UNL     1       2.141   8.292  18.059  0.00  0.00    +0.000 A 
ATOM      7  C   UNL     1       2.805   7.071  18.517  0.00  0.00    +0.000 A 
ATOM      8  C   UNL     1       3.828   6.429  17.808  0.00  0.00    +0.000 A 
ATOM      9  C   UNL     1       4.334   5.193  18.270  0.00  0.00    +0.000 A 
ATOM     10  C   UNL     1       3.790   4.575  19.409  0.00  0.00    +0.000 A 
ATOM     11  C   UNL     1       2.774   5.229  20.107  0.00  0.00    +0.000 A 
ATOM     12  C   UNL     1       2.336   6.484  19.693  0.00  0.00    +0.000 A 
ATOM     13  O   UNL     1       1.441   7.171  20.524  0.00  0.00    +0.000 OA
ATOM     14  C   UNL     1       1.382   8.541  20.335  0.00  0.00    +0.000 A 
ATOM     15  O   UNL     1       1.238   9.323  21.266  0.00  0.00    +0.000 OA
BRANCH   9  16
ATOM     16  N   UNL     1       5.432   4.562  17.542  0.00  0.00    +0.000 N 
ATOM     17  O   UNL     1       5.216   4.181  16.384  0.00  0.00    +0.000 OA
ATOM     18  O   UNL     1       6.520   4.454  18.128  0.00  0.00    +0.000 OA
ENDBRANCH   9  16
BRANCH  10  19
ATOM     19  O   UNL     1       4.175   3.370  19.934  0.00  0.00    +0.000 OA
ATOM     20  H   UNL     1       4.558   3.504  20.831  0.00  0.00    +0.000 HD
ENDBRANCH  10  19
BRANCH  11  21
ATOM     21  O   UNL     1       2.210   4.631  21.199  0.00  0.00    +0.000 OA
ATOM     22  H   UNL     1       2.360   5.243  21.946  0.00  0.00    +0.000 HD
ENDBRANCH  11  21
ENDBRANCH   2   5
BRANCH   3  23
ATOM     23  C   UNL     1       0.325  12.660  18.572  0.00  0.00    +0.000 C 
ATOM     24  C   UNL     1       0.789  13.805  19.470  0.00  0.00    +0.000 C 
ATOM     25  C   UNL     1       0.296  13.625  20.914  0.00  0.00    +0.000 C 
ATOM     26  N   UNL     1      -1.168  13.455  21.036  0.00  0.00    +0.000 NA
ATOM     27  C   UNL     1      -1.677  12.424  20.118  0.00  0.00    +0.000 C 
ATOM     28  C   UNL     1      -1.203  12.597  18.674  0.00  0.00    +0.000 C 
BRANCH  26  29
ATOM     29  C   UNL     1      -1.487  13.100  22.444  0.00  0.00    +0.000 C 
BRANCH  29  30
ATOM     30  C   UNL     1      -2.966  13.032  22.792  0.00  0.00    +0.000 A 
ATOM     31  C   UNL     1      -3.408  12.263  23.887  0.00  0.00    +0.000 A 
ATOM     32  C   UNL     1      -4.752  12.258  24.269  0.00  0.00    +0.000 A 
ATOM     33  C   UNL     1      -5.673  13.047  23.567  0.00  0.00    +0.000 A 
ATOM     34  C   UNL     1      -5.254  13.804  22.464  0.00  0.00    +0.000 A 
ATOM     35  C   UNL     1      -3.912  13.775  22.070  0.00  0.00    +0.000 A 
BRANCH  33  36
ATOM     36  N   UNL     1      -7.076  13.097  23.993  0.00  0.00    +0.000 N 
ATOM     37  O   UNL     1      -7.716  12.033  23.995  0.00  0.00    +0.000 OA
ATOM     38  O   UNL     1      -7.538  14.193  24.332  0.00  0.00    +0.000 OA
ENDBRANCH  33  36
ENDBRANCH  29  30
ENDBRANCH  26  29
ENDBRANCH   3  23
TORSDOF 8
ENDMDL
MODEL 7
REMARK VINA RESULT:      -8.1      3.655      6.170
REMARK  Name = 
REMARK  8 active torsions:
REMARK  status: ('A' for Active; 'I' for Inactive)
REMARK    1  A    between atoms: C_2  and  C_20
REMARK    2  A    between atoms: N_3  and  C_4
REMARK    3  A    between atoms: N_7  and  C_8
REMARK    4  A    between atoms: C_8  and  C_9
REMARK    5  A    between atoms: C_12  and  N_13
REMARK    6  A    between atoms: C_24  and  N_25
REMARK    7  A    between atoms: C_28  and  O_29
REMARK    8  A    between atoms: C_30  and  O_31
REMARK                            x       y       z     vdW  Elec       q    Type
REMARK                         _______ _______ _______ _____ _____    ______ ____
ROOT
ATOM      1  O   UNL     1       1.216   8.789  21.882  0.00  0.00    +0.000 OA
ATOM      2  C   UNL     1       1.149   8.846  20.654  0.00  0.00    +0.000 C 
ATOM      3  N   UNL     1       0.509   9.866  19.977  0.00  0.00    +0.000 N 
ATOM      4  H   UNL     1       0.356   9.734  18.976  0.00  0.00    +0.000 HD
ENDROOT
BRANCH   2   5
ATOM      5  C   UNL     1       1.821   7.816  19.790  0.00  0.00    +0.000 A 
ATOM      6  C   UNL     1       2.180   6.613  20.275  0.00  0.00    +0.000 A 
ATOM      7  C   UNL     1       2.972   5.719  19.428  0.00  0.00    +0.000 A 
ATOM      8  C   UNL     1       3.167   4.360  19.701  0.00  0.00    +0.000 A 
ATOM      9  C   UNL     1       4.039   3.598  18.891  0.00  0.00    +0.000 A 
ATOM     10  C   UNL     1       4.751   4.201  17.839  0.00  0.00    +0.000 A 
ATOM     11  C   UNL     1       4.544   5.556  17.578  0.00  0.00    +0.000 A 
ATOM     12  C   UNL     1       3.622   6.281  18.329  0.00  0.00    +0.000 A 
ATOM     13  O   UNL     1       3.325   7.586  17.916  0.00  0.00    +0.000 OA
ATOM     14  C   UNL     1       2.125   8.099  18.376  0.00  0.00    +0.000 A 
ATOM     15  O   UNL     1       1.417   8.823  17.688  0.00  0.00    +0.000 OA
BRANCH   9  16
ATOM     16  N   UNL     1       4.193   2.171  19.163  0.00  0.00    +0.000 N 
ATOM     17  O   UNL     1       3.707   1.372  18.351  0.00  0.00    +0.000 OA
ATOM     18  O   UNL     1       4.809   1.847  20.189  0.00  0.00    +0.000 OA
ENDBRANCH   9  16
BRANCH  10  19
ATOM     19  O   UNL     1       5.642   3.577  17.007  0.00  0.00    +0.000 OA
ATOM     20  H   UNL     1       6.420   3.267  17.525  0.00  0.00    +0.000 HD
ENDBRANCH  10  19
BRANCH  11  21
ATOM     21  O   UNL     1       5.250   6.169  16.581  0.00  0.00    +0.000 OA
ATOM     22  H   UNL     1       4.594   6.407  15.897  0.00  0.00    +0.000 HD
ENDBRANCH  11  21
ENDBRANCH   2   5
BRANCH   3  23
ATOM     23  C   UNL     1      -0.242  10.948  20.628  0.00  0.00    +0.000 C 
ATOM     24  C   UNL     1      -1.123  11.709  19.638  0.00  0.00    +0.000 C 
ATOM     25  C   UNL     1      -0.280  12.514  18.637  0.00  0.00    +0.000 C 
ATOM     26  N   UNL     1       0.683  13.443  19.266  0.00  0.00    +0.000 NA
ATOM     27  C   UNL     1       1.492  12.775  20.298  0.00  0.00    +0.000 C 
ATOM     28  C   UNL     1       0.665  11.978  21.309  0.00  0.00    +0.000 C 
BRANCH  26  29
ATOM     29  C   UNL     1       1.558  14.009  18.206  0.00  0.00    +0.000 C 
BRANCH  29  30
ATOM     30  C   UNL     1       2.709  14.878  18.688  0.00  0.00    +0.000 A 
ATOM     31  C   UNL     1       4.042  14.522  18.402  0.00  0.00    +0.000 A 
ATOM     32  C   UNL     1       5.104  15.354  18.767  0.00  0.00    +0.000 A 
ATOM     33  C   UNL     1       4.839  16.572  19.406  0.00  0.00    +0.000 A 
ATOM     34  C   UNL     1       3.520  16.934  19.714  0.00  0.00    +0.000 A 
ATOM     35  C   UNL     1       2.468  16.078  19.374  0.00  0.00    +0.000 A 
BRANCH  33  36
ATOM     36  N   UNL     1       5.940  17.482  19.741  0.00  0.00    +0.000 N 
ATOM     37  O   UNL     1       7.099  17.050  19.636  0.00  0.00    +0.000 OA
ATOM     38  O   UNL     1       5.652  18.630  20.102  0.00  0.00    +0.000 OA
ENDBRANCH  33  36
ENDBRANCH  29  30
ENDBRANCH  26  29
ENDBRANCH   3  23
TORSDOF 8
ENDMDL
MODEL 8
REMARK VINA RESULT:      -8.1      3.907      6.466
REMARK  Name = 
REMARK  8 active torsions:
REMARK  status: ('A' for Active; 'I' for Inactive)
REMARK    1  A    between atoms: C_2  and  C_20
REMARK    2  A    between atoms: N_3  and  C_4
REMARK    3  A    between atoms: N_7  and  C_8
REMARK    4  A    between atoms: C_8  and  C_9
REMARK    5  A    between atoms: C_12  and  N_13
REMARK    6  A    between atoms: C_24  and  N_25
REMARK    7  A    between atoms: C_28  and  O_29
REMARK    8  A    between atoms: C_30  and  O_31
REMARK                            x       y       z     vdW  Elec       q    Type
REMARK                         _______ _______ _______ _____ _____    ______ ____
ROOT
ATOM      1  O   UNL     1       0.247   9.439  17.604  0.00  0.00    +0.000 OA
ATOM      2  C   UNL     1       1.209   9.579  18.360  0.00  0.00    +0.000 C 
ATOM      3  N   UNL     1       1.541  10.785  18.947  0.00  0.00    +0.000 N 
ATOM      4  H   UNL     1       2.448  10.840  19.411  0.00  0.00    +0.000 HD
ENDROOT
BRANCH   2   5
ATOM      5  C   UNL     1       2.073   8.411  18.742  0.00  0.00    +0.000 A 
ATOM      6  C   UNL     1       3.012   7.923  17.910  0.00  0.00    +0.000 A 
ATOM      7  C   UNL     1       3.706   6.688  18.276  0.00  0.00    +0.000 A 
ATOM      8  C   UNL     1       4.874   6.238  17.649  0.00  0.00    +0.000 A 
ATOM      9  C   UNL     1       5.414   4.977  17.991  0.00  0.00    +0.000 A 
ATOM     10  C   UNL     1       4.765   4.147  18.922  0.00  0.00    +0.000 A 
ATOM     11  C   UNL     1       3.604   4.611  19.541  0.00  0.00    +0.000 A 
ATOM     12  C   UNL     1       3.122   5.887  19.259  0.00  0.00    +0.000 A 
ATOM     13  O   UNL     1       2.058   6.370  20.032  0.00  0.00    +0.000 OA
ATOM     14  C   UNL     1       1.907   7.745  20.047  0.00  0.00    +0.000 A 
ATOM     15  O   UNL     1       1.560   8.353  21.051  0.00  0.00    +0.000 OA
BRANCH   9  16
ATOM     16  N   UNL     1       6.659   4.545  17.360  0.00  0.00    +0.000 N 
ATOM     17  O   UNL     1       7.647   4.375  18.086  0.00  0.00    +0.000 OA
ATOM     18  O   UNL     1       6.646   4.367  16.133  0.00  0.00    +0.000 OA
ENDBRANCH   9  16
BRANCH  10  19
ATOM     19  O   UNL     1       5.173   2.899  19.311  0.00  0.00    +0.000 OA
ATOM     20  H   UNL     1       4.391   2.350  19.545  0.00  0.00    +0.000 HD
ENDBRANCH  10  19
BRANCH  11  21
ATOM     21  O   UNL     1       2.940   3.807  20.424  0.00  0.00    +0.000 OA
ATOM     22  H   UNL     1       3.538   3.053  20.599  0.00  0.00    +0.000 HD
ENDBRANCH  11  21
ENDBRANCH   2   5
BRANCH   3  23
ATOM     23  C   UNL     1       0.852  12.054  18.678  0.00  0.00    +0.000 C 
ATOM     24  C   UNL     1       1.796  13.104  18.094  0.00  0.00    +0.000 C 
ATOM     25  C   UNL     1       2.838  13.562  19.125  0.00  0.00    +0.000 C 
ATOM     26  N   UNL     1       2.258  14.060  20.391  0.00  0.00    +0.000 NA
ATOM     27  C   UNL     1       1.269  13.123  20.945  0.00  0.00    +0.000 C 
ATOM     28  C   UNL     1       0.218  12.666  19.931  0.00  0.00    +0.000 C 
BRANCH  26  29
ATOM     29  C   UNL     1       3.361  14.286  21.361  0.00  0.00    +0.000 C 
BRANCH  29  30
ATOM     30  C   UNL     1       4.538  15.104  20.852  0.00  0.00    +0.000 A 
ATOM     31  C   UNL     1       5.860  14.677  21.087  0.00  0.00    +0.000 A 
ATOM     32  C   UNL     1       6.947  15.374  20.553  0.00  0.00    +0.000 A 
ATOM     33  C   UNL     1       6.720  16.501  19.753  0.00  0.00    +0.000 A 
ATOM     34  C   UNL     1       5.412  16.949  19.524  0.00  0.00    +0.000 A 
ATOM     35  C   UNL     1       4.333  16.263  20.090  0.00  0.00    +0.000 A 
BRANCH  33  36
ATOM     36  N   UNL     1       7.850  17.207  19.138  0.00  0.00    +0.000 N 
ATOM     37  O   UNL     1       8.996  16.853  19.459  0.00  0.00    +0.000 OA
ATOM     38  O   UNL     1       7.597  18.110  18.330  0.00  0.00    +0.000 OA
ENDBRANCH  33  36
ENDBRANCH  29  30
ENDBRANCH  26  29
ENDBRANCH   3  23
TORSDOF 8
ENDMDL
MODEL 9
REMARK VINA RESULT:      -8.0      4.298      7.343
REMARK  Name = 
REMARK  8 active torsions:
REMARK  status: ('A' for Active; 'I' for Inactive)
REMARK    1  A    between atoms: C_2  and  C_20
REMARK    2  A    between atoms: N_3  and  C_4
REMARK    3  A    between atoms: N_7  and  C_8
REMARK    4  A    between atoms: C_8  and  C_9
REMARK    5  A    between atoms: C_12  and  N_13
REMARK    6  A    between atoms: C_24  and  N_25
REMARK    7  A    between atoms: C_28  and  O_29
REMARK    8  A    between atoms: C_30  and  O_31
REMARK                            x       y       z     vdW  Elec       q    Type
REMARK                         _______ _______ _______ _____ _____    ______ ____
ROOT
ATOM      1  O   UNL     1      -0.062  10.143  21.890  0.00  0.00    +0.000 OA
ATOM      2  C   UNL     1       0.628  10.179  20.871  0.00  0.00    +0.000 C 
ATOM      3  N   UNL     1       1.042  11.356  20.278  0.00  0.00    +0.000 N 
ATOM      4  H   UNL     1       1.457  11.286  19.348  0.00  0.00    +0.000 HD
ENDROOT
BRANCH   2   5
ATOM      5  C   UNL     1       1.121   8.916  20.222  0.00  0.00    +0.000 A 
ATOM      6  C   UNL     1       1.281   7.778  20.921  0.00  0.00    +0.000 A 
ATOM      7  C   UNL     1       1.915   6.632  20.267  0.00  0.00    +0.000 A 
ATOM      8  C   UNL     1       1.888   5.330  20.781  0.00  0.00    +0.000 A 
ATOM      9  C   UNL     1       2.622   4.306  20.141  0.00  0.00    +0.000 A 
ATOM     10  C   UNL     1       3.419   4.589  19.018  0.00  0.00    +0.000 A 
ATOM     11  C   UNL     1       3.433   5.891  18.515  0.00  0.00    +0.000 A 
ATOM     12  C   UNL     1       2.644   6.877  19.102  0.00  0.00    +0.000 A 
ATOM     13  O   UNL     1       2.562   8.117  18.457  0.00  0.00    +0.000 OA
ATOM     14  C   UNL     1       1.462   8.890  18.788  0.00  0.00    +0.000 A 
ATOM     15  O   UNL     1       0.878   9.582  17.965  0.00  0.00    +0.000 OA
BRANCH   9  16
ATOM     16  N   UNL     1       2.543   2.945  20.665  0.00  0.00    +0.000 N 
ATOM     17  O   UNL     1       2.596   2.009  19.856  0.00  0.00    +0.000 OA
ATOM     18  O   UNL     1       2.437   2.810  21.894  0.00  0.00    +0.000 OA
ENDBRANCH   9  16
BRANCH  10  19
ATOM     19  O   UNL     1       4.194   3.691  18.333  0.00  0.00    +0.000 OA
ATOM     20  H   UNL     1       4.892   3.333  18.927  0.00  0.00    +0.000 HD
ENDBRANCH  10  19
BRANCH  11  21
ATOM     21  O   UNL     1       4.227   6.194  17.444  0.00  0.00    +0.000 OA
ATOM     22  H   UNL     1       5.117   5.855  17.668  0.00  0.00    +0.000 HD
ENDBRANCH  11  21
ENDBRANCH   2   5
BRANCH   3  23
ATOM     23  C   UNL     1       0.641  12.695  20.729  0.00  0.00    +0.000 C 
ATOM     24  C   UNL     1      -0.038  13.493  19.617  0.00  0.00    +0.000 C 
ATOM     25  C   UNL     1       0.950  13.856  18.498  0.00  0.00    +0.000 C 
ATOM     26  N   UNL     1       2.154  14.576  18.966  0.00  0.00    +0.000 NA
ATOM     27  C   UNL     1       2.793  13.893  20.102  0.00  0.00    +0.000 C 
ATOM     28  C   UNL     1       1.822  13.535  21.229  0.00  0.00    +0.000 C 
BRANCH  26  29
ATOM     29  C   UNL     1       3.106  14.694  17.830  0.00  0.00    +0.000 C 
BRANCH  29  30
ATOM     30  C   UNL     1       4.458  15.308  18.158  0.00  0.00    +0.000 A 
ATOM     31  C   UNL     1       5.650  14.635  17.822  0.00  0.00    +0.000 A 
ATOM     32  C   UNL     1       6.897  15.225  18.042  0.00  0.00    +0.000 A 
ATOM     33  C   UNL     1       6.966  16.515  18.583  0.00  0.00    +0.000 A 
ATOM     34  C   UNL     1       5.791  17.192  18.940  0.00  0.00    +0.000 A 
ATOM     35  C   UNL     1       4.549  16.578  18.746  0.00  0.00    +0.000 A 
BRANCH  33  36
ATOM     36  N   UNL     1       8.266  17.170  18.764  0.00  0.00    +0.000 N 
ATOM     37  O   UNL     1       8.270  18.353  19.139  0.00  0.00    +0.000 OA
ATOM     38  O   UNL     1       9.285  16.504  18.540  0.00  0.00    +0.000 OA
ENDBRANCH  33  36
ENDBRANCH  29  30
ENDBRANCH  26  29
ENDBRANCH   3  23
TORSDOF 8
ENDMDL
