MODEL 1
REMARK VINA RESULT:      -8.4      0.000      0.000
REMARK  Name = 
REMARK  11 active torsions:
REMARK  status: ('A' for Active; 'I' for Inactive)
REMARK    1  A    between atoms: C_1  and  C_2
REMARK    2  A    between atoms: C_3  and  C_4
REMARK    3  A    between atoms: N_6  and  C_7
REMARK    4  A    between atoms: C_7  and  C_8
REMARK    5  A    between atoms: C_8  and  C_9
REMARK    6  A    between atoms: C_9  and  N_10
REMARK    7  A    between atoms: C_13  and  C_14
REMARK    8  A    between atoms: C_14  and  N_15
REMARK    9  A    between atoms: C_16  and  C_18
REMARK   10  A    between atoms: C_24  and  O_25
REMARK   11  A    between atoms: O_25  and  C_26
REMARK                            x       y       z     vdW  Elec       q    Type
REMARK                         _______ _______ _______ _____ _____    ______ ____
ROOT
ATOM      1  C   UNL     1       2.163   4.607  21.410  0.00  0.00    +0.000 C 
ENDROOT
BRANCH   1   5
ATOM      2  N   UNL     1       2.498   2.922  18.107  0.00  0.00    +0.000 NA
ATOM      3  C   UNL     1       3.324   2.607  19.285  0.00  0.00    +0.000 C 
ATOM      4  C   UNL     1       2.459   2.237  20.495  0.00  0.00    +0.000 C 
ATOM      5  C   UNL     1       1.469   3.350  20.855  0.00  0.00    +0.000 C 
ATOM      6  C   UNL     1       0.650   3.682  19.600  0.00  0.00    +0.000 C 
ATOM      7  C   UNL     1       1.539   4.006  18.394  0.00  0.00    +0.000 C 
BRANCH   2   8
ATOM      8  C   UNL     1       3.295   3.251  16.907  0.00  0.00    +0.000 C 
BRANCH   8   9
ATOM      9  C   UNL     1       4.655   3.903  17.204  0.00  0.00    +0.000 C 
BRANCH   9  10
ATOM     10  C   UNL     1       4.727   5.330  16.655  0.00  0.00    +0.000 C 
BRANCH  10  13
ATOM     11  C   UNL     1       6.966   6.285  16.973  0.00  0.00    +0.000 C 
ATOM     12  O   UNL     1       7.418   5.730  15.978  0.00  0.00    +0.000 OA
ATOM     13  N   UNL     1       5.668   6.145  17.401  0.00  0.00    +0.000 N 
ATOM     14  H   UNL     1       5.333   6.673  18.195  0.00  0.00    +0.000 HD
BRANCH  11  17
ATOM     15  C   UNL     1       8.544   9.499  18.395  0.00  0.00    +0.000 C 
ATOM     16  C   UNL     1       7.762   8.505  17.603  0.00  0.00    +0.000 C 
ATOM     17  C   UNL     1       7.783   7.181  17.829  0.00  0.00    +0.000 C 
ENDBRANCH  11  17
ENDBRANCH  10  13
ENDBRANCH   9  10
ENDBRANCH   8   9
ENDBRANCH   2   8
ENDBRANCH   1   5
BRANCH   1  18
ATOM     18  N   UNL     1       1.808   5.803  20.680  0.00  0.00    +0.000 N 
ATOM     19  C   UNL     1       2.714   6.461  19.870  0.00  0.00    +0.000 C 
ATOM     20  O   UNL     1       3.869   6.072  19.715  0.00  0.00    +0.000 OA
ATOM     21  H   UNL     1       0.851   6.141  20.649  0.00  0.00    +0.000 HD
BRANCH  19  22
ATOM     22  C   UNL     1       2.178   7.658  19.203  0.00  0.00    +0.000 A 
ATOM     23  N   UNL     1       2.275   7.821  17.864  0.00  0.00    +0.000 NA
ATOM     24  N   UNL     1       1.692   9.012  17.644  0.00  0.00    +0.000 N 
ATOM     25  C   UNL     1       1.229   9.636  18.767  0.00  0.00    +0.000 A 
ATOM     26  C   UNL     1       0.598  10.870  18.943  0.00  0.00    +0.000 A 
ATOM     27  C   UNL     1       0.255  11.237  20.250  0.00  0.00    +0.000 A 
ATOM     28  C   UNL     1       0.527  10.400  21.334  0.00  0.00    +0.000 A 
ATOM     29  C   UNL     1       1.161   9.163  21.124  0.00  0.00    +0.000 A 
ATOM     30  C   UNL     1       1.523   8.774  19.816  0.00  0.00    +0.000 A 
ATOM     31  H   UNL     1       1.654   9.360  16.693  0.00  0.00    +0.000 HD
BRANCH  28  32
ATOM     32  O   UNL     1       0.233  10.679  22.644  0.00  0.00    +0.000 OA
ATOM     33  C   UNL     1      -0.585   9.740  23.333  0.00  0.00    +0.000 C 
ENDBRANCH  28  32
ENDBRANCH  19  22
ENDBRANCH   1  18
TORSDOF 9
ENDMDL
MODEL 2
REMARK VINA RESULT:      -7.8      3.196      4.761
REMARK  Name = 
REMARK  11 active torsions:
REMARK  status: ('A' for Active; 'I' for Inactive)
REMARK    1  A    between atoms: C_1  and  C_2
REMARK    2  A    between atoms: C_3  and  C_4
REMARK    3  A    between atoms: N_6  and  C_7
REMARK    4  A    between atoms: C_7  and  C_8
REMARK    5  A    between atoms: C_8  and  C_9
REMARK    6  A    between atoms: C_9  and  N_10
REMARK    7  A    between atoms: C_13  and  C_14
REMARK    8  A    between atoms: C_14  and  N_15
REMARK    9  A    between atoms: C_16  and  C_18
REMARK   10  A    between atoms: C_24  and  O_25
REMARK   11  A    between atoms: O_25  and  C_26
REMARK                            x       y       z     vdW  Elec       q    Type
REMARK                         _______ _______ _______ _____ _____    ______ ____
ROOT
ATOM      1  C   UNL     1       2.314   7.971  19.193  0.00  0.00    +0.000 C 
ENDROOT
BRANCH   1   5
ATOM      2  N   UNL     1       4.517   5.118  18.265  0.00  0.00    +0.000 NA
ATOM      3  C   UNL     1       3.207   4.972  18.922  0.00  0.00    +0.000 C 
ATOM      4  C   UNL     1       2.096   5.660  18.119  0.00  0.00    +0.000 C 
ATOM      5  C   UNL     1       2.388   7.148  17.894  0.00  0.00    +0.000 C 
ATOM      6  C   UNL     1       3.774   7.268  17.245  0.00  0.00    +0.000 C 
ATOM      7  C   UNL     1       4.857   6.536  18.044  0.00  0.00    +0.000 C 
BRANCH   2   8
ATOM      8  C   UNL     1       5.611   4.438  18.991  0.00  0.00    +0.000 C 
BRANCH   8   9
ATOM      9  C   UNL     1       7.002   5.052  18.766  0.00  0.00    +0.000 C 
BRANCH   9  10
ATOM     10  C   UNL     1       7.759   4.337  17.644  0.00  0.00    +0.000 C 
BRANCH  10  13
ATOM     11  C   UNL     1       6.916   5.106  15.471  0.00  0.00    +0.000 C 
ATOM     12  O   UNL     1       7.561   6.147  15.512  0.00  0.00    +0.000 OA
ATOM     13  N   UNL     1       6.929   4.160  16.466  0.00  0.00    +0.000 N 
ATOM     14  H   UNL     1       6.423   3.292  16.353  0.00  0.00    +0.000 HD
BRANCH  11  17
ATOM     15  C   UNL     1       5.547   3.229  12.396  0.00  0.00    +0.000 C 
ATOM     16  C   UNL     1       6.346   3.678  13.574  0.00  0.00    +0.000 C 
ATOM     17  C   UNL     1       6.044   4.752  14.323  0.00  0.00    +0.000 C 
ENDBRANCH  11  17
ENDBRANCH  10  13
ENDBRANCH   9  10
ENDBRANCH   8   9
ENDBRANCH   2   8
ENDBRANCH   1   5
BRANCH   1  18
ATOM     18  N   UNL     1       1.244   8.942  19.173  0.00  0.00    +0.000 N 
ATOM     19  C   UNL     1       0.658   9.409  20.334  0.00  0.00    +0.000 C 
ATOM     20  O   UNL     1       1.010   9.035  21.450  0.00  0.00    +0.000 OA
ATOM     21  H   UNL     1       0.959   9.398  18.311  0.00  0.00    +0.000 HD
BRANCH  19  22
ATOM     22  C   UNL     1      -0.413  10.396  20.122  0.00  0.00    +0.000 A 
ATOM     23  N   UNL     1      -0.716  11.319  21.062  0.00  0.00    +0.000 NA
ATOM     24  N   UNL     1      -1.728  12.013  20.515  0.00  0.00    +0.000 N 
ATOM     25  C   UNL     1      -2.105  11.587  19.272  0.00  0.00    +0.000 A 
ATOM     26  C   UNL     1      -3.110  12.031  18.411  0.00  0.00    +0.000 A 
ATOM     27  C   UNL     1      -3.255  11.360  17.190  0.00  0.00    +0.000 A 
ATOM     28  C   UNL     1      -2.424  10.293  16.846  0.00  0.00    +0.000 A 
ATOM     29  C   UNL     1      -1.419   9.870  17.734  0.00  0.00    +0.000 A 
ATOM     30  C   UNL     1      -1.258  10.526  18.973  0.00  0.00    +0.000 A 
ATOM     31  H   UNL     1      -2.139  12.768  21.050  0.00  0.00    +0.000 HD
BRANCH  28  32
ATOM     32  O   UNL     1      -2.497   9.576  15.679  0.00  0.00    +0.000 OA
ATOM     33  C   UNL     1      -3.224  10.166  14.607  0.00  0.00    +0.000 C 
ENDBRANCH  28  32
ENDBRANCH  19  22
ENDBRANCH   1  18
TORSDOF 9
ENDMDL
MODEL 3
REMARK VINA RESULT:      -7.8      3.347      4.639
REMARK  Name = 
REMARK  11 active torsions:
REMARK  status: ('A' for Active; 'I' for Inactive)
REMARK    1  A    between atoms: C_1  and  C_2
REMARK    2  A    between atoms: C_3  and  C_4
REMARK    3  A    between atoms: N_6  and  C_7
REMARK    4  A    between atoms: C_7  and  C_8
REMARK    5  A    between atoms: C_8  and  C_9
REMARK    6  A    between atoms: C_9  and  N_10
REMARK    7  A    between atoms: C_13  and  C_14
REMARK    8  A    between atoms: C_14  and  N_15
REMARK    9  A    between atoms: C_16  and  C_18
REMARK   10  A    between atoms: C_24  and  O_25
REMARK   11  A    between atoms: O_25  and  C_26
REMARK                            x       y       z     vdW  Elec       q    Type
REMARK                         _______ _______ _______ _____ _____    ______ ____
ROOT
ATOM      1  C   UNL     1       2.560   7.323  18.713  0.00  0.00    +0.000 C 
ENDROOT
BRANCH   1   5
ATOM      2  N   UNL     1       4.324   4.078  18.258  0.00  0.00    +0.000 NA
ATOM      3  C   UNL     1       4.610   5.030  19.344  0.00  0.00    +0.000 C 
ATOM      4  C   UNL     1       3.348   5.360  20.150  0.00  0.00    +0.000 C 
ATOM      5  C   UNL     1       2.232   5.923  19.263  0.00  0.00    +0.000 C 
ATOM      6  C   UNL     1       1.984   4.928  18.121  0.00  0.00    +0.000 C 
ATOM      7  C   UNL     1       3.269   4.582  17.360  0.00  0.00    +0.000 C 
BRANCH   2   8
ATOM      8  C   UNL     1       5.523   3.706  17.478  0.00  0.00    +0.000 C 
BRANCH   8   9
ATOM      9  C   UNL     1       6.583   4.815  17.370  0.00  0.00    +0.000 C 
BRANCH   9  10
ATOM     10  C   UNL     1       6.329   5.719  16.160  0.00  0.00    +0.000 C 
BRANCH  10  13
ATOM     11  C   UNL     1       6.950   4.842  13.953  0.00  0.00    +0.000 C 
ATOM     12  O   UNL     1       8.045   5.393  13.966  0.00  0.00    +0.000 OA
ATOM     13  N   UNL     1       6.030   4.948  14.967  0.00  0.00    +0.000 N 
ATOM     14  H   UNL     1       5.167   4.424  14.931  0.00  0.00    +0.000 HD
BRANCH  11  17
ATOM     15  C   UNL     1       4.616   2.976  11.521  0.00  0.00    +0.000 C 
ATOM     16  C   UNL     1       5.184   3.814  12.617  0.00  0.00    +0.000 C 
ATOM     17  C   UNL     1       6.500   3.988  12.826  0.00  0.00    +0.000 C 
ENDBRANCH  11  17
ENDBRANCH  10  13
ENDBRANCH   9  10
ENDBRANCH   8   9
ENDBRANCH   2   8
ENDBRANCH   1   5
BRANCH   1  18
ATOM     18  N   UNL     1       1.522   8.287  19.000  0.00  0.00    +0.000 N 
ATOM     19  C   UNL     1       1.503   9.538  18.413  0.00  0.00    +0.000 C 
ATOM     20  O   UNL     1       2.357   9.906  17.610  0.00  0.00    +0.000 OA
ATOM     21  H   UNL     1       0.711   8.041  19.560  0.00  0.00    +0.000 HD
BRANCH  19  22
ATOM     22  C   UNL     1       0.372  10.386  18.821  0.00  0.00    +0.000 A 
ATOM     23  N   UNL     1       0.451  11.193  19.904  0.00  0.00    +0.000 NA
ATOM     24  N   UNL     1      -0.757  11.781  19.952  0.00  0.00    +0.000 N 
ATOM     25  C   UNL     1      -1.619  11.395  18.965  0.00  0.00    +0.000 A 
ATOM     26  C   UNL     1      -2.941  11.760  18.701  0.00  0.00    +0.000 A 
ATOM     27  C   UNL     1      -3.567  11.162  17.600  0.00  0.00    +0.000 A 
ATOM     28  C   UNL     1      -2.893  10.242  16.795  0.00  0.00    +0.000 A 
ATOM     29  C   UNL     1      -1.561   9.897  17.085  0.00  0.00    +0.000 A 
ATOM     30  C   UNL     1      -0.912  10.481  18.194  0.00  0.00    +0.000 A 
ATOM     31  H   UNL     1      -0.943  12.436  20.702  0.00  0.00    +0.000 HD
BRANCH  28  32
ATOM     32  O   UNL     1      -3.426   9.604  15.704  0.00  0.00    +0.000 OA
ATOM     33  C   UNL     1      -3.822  10.425  14.610  0.00  0.00    +0.000 C 
ENDBRANCH  28  32
ENDBRANCH  19  22
ENDBRANCH   1  18
TORSDOF 9
ENDMDL
MODEL 4
REMARK VINA RESULT:      -7.8      1.962      6.982
REMARK  Name = 
REMARK  11 active torsions:
REMARK  status: ('A' for Active; 'I' for Inactive)
REMARK    1  A    between atoms: C_1  and  C_2
REMARK    2  A    between atoms: C_3  and  C_4
REMARK    3  A    between atoms: N_6  and  C_7
REMARK    4  A    between atoms: C_7  and  C_8
REMARK    5  A    between atoms: C_8  and  C_9
REMARK    6  A    between atoms: C_9  and  N_10
REMARK    7  A    between atoms: C_13  and  C_14
REMARK    8  A    between atoms: C_14  and  N_15
REMARK    9  A    between atoms: C_16  and  C_18
REMARK   10  A    between atoms: C_24  and  O_25
REMARK   11  A    between atoms: O_25  and  C_26
REMARK                            x       y       z     vdW  Elec       q    Type
REMARK                         _______ _______ _______ _____ _____    ______ ____
ROOT
ATOM      1  C   UNL     1       2.605   1.766  19.077  0.00  0.00    +0.000 C 
ENDROOT
BRANCH   1   5
ATOM      2  N   UNL     1       1.568   5.280  19.734  0.00  0.00    +0.000 NA
ATOM      3  C   UNL     1       1.623   4.671  18.395  0.00  0.00    +0.000 C 
ATOM      4  C   UNL     1       0.780   3.392  18.324  0.00  0.00    +0.000 C 
ATOM      5  C   UNL     1       1.215   2.359  19.369  0.00  0.00    +0.000 C 
ATOM      6  C   UNL     1       1.183   3.034  20.748  0.00  0.00    +0.000 C 
ATOM      7  C   UNL     1       1.998   4.332  20.779  0.00  0.00    +0.000 C 
BRANCH   2   8
ATOM      8  C   UNL     1       2.341   6.535  19.836  0.00  0.00    +0.000 C 
BRANCH   8   9
ATOM      9  C   UNL     1       2.711   7.167  18.484  0.00  0.00    +0.000 C 
BRANCH   9  10
ATOM     10  C   UNL     1       1.946   8.472  18.245  0.00  0.00    +0.000 C 
BRANCH  10  13
ATOM     11  C   UNL     1       0.408   9.971  19.433  0.00  0.00    +0.000 C 
ATOM     12  O   UNL     1       0.013  10.497  18.399  0.00  0.00    +0.000 OA
ATOM     13  N   UNL     1       1.361   8.983  19.471  0.00  0.00    +0.000 N 
ATOM     14  H   UNL     1       1.607   8.544  20.347  0.00  0.00    +0.000 HD
BRANCH  11  17
ATOM     15  C   UNL     1      -0.462   9.765  23.181  0.00  0.00    +0.000 C 
ATOM     16  C   UNL     1       0.024   9.494  21.796  0.00  0.00    +0.000 C 
ATOM     17  C   UNL     1      -0.111  10.351  20.770  0.00  0.00    +0.000 C 
ENDBRANCH  11  17
ENDBRANCH  10  13
ENDBRANCH   9  10
ENDBRANCH   8   9
ENDBRANCH   2   8
ENDBRANCH   1   5
BRANCH   1  18
ATOM     18  N   UNL     1       3.569   2.775  18.702  0.00  0.00    +0.000 N 
ATOM     19  C   UNL     1       4.743   2.964  19.407  0.00  0.00    +0.000 C 
ATOM     20  O   UNL     1       5.043   2.287  20.387  0.00  0.00    +0.000 OA
ATOM     21  H   UNL     1       3.471   3.309  17.842  0.00  0.00    +0.000 HD
BRANCH  19  22
ATOM     22  C   UNL     1       5.606   4.034  18.880  0.00  0.00    +0.000 A 
ATOM     23  N   UNL     1       6.303   4.847  19.706  0.00  0.00    +0.000 NA
ATOM     24  N   UNL     1       6.945   5.678  18.868  0.00  0.00    +0.000 N 
ATOM     25  C   UNL     1       6.698   5.455  17.542  0.00  0.00    +0.000 A 
ATOM     26  C   UNL     1       7.153   6.110  16.396  0.00  0.00    +0.000 A 
ATOM     27  C   UNL     1       6.694   5.640  15.160  0.00  0.00    +0.000 A 
ATOM     28  C   UNL     1       5.819   4.555  15.077  0.00  0.00    +0.000 A 
ATOM     29  C   UNL     1       5.381   3.914  16.249  0.00  0.00    +0.000 A 
ATOM     30  C   UNL     1       5.825   4.375  17.507  0.00  0.00    +0.000 A 
ATOM     31  H   UNL     1       7.536   6.399  19.264  0.00  0.00    +0.000 HD
BRANCH  28  32
ATOM     32  O   UNL     1       5.315   4.032  13.914  0.00  0.00    +0.000 OA
ATOM     33  C   UNL     1       6.259   3.633  12.926  0.00  0.00    +0.000 C 
ENDBRANCH  28  32
ENDBRANCH  19  22
ENDBRANCH   1  18
TORSDOF 9
ENDMDL
MODEL 5
REMARK VINA RESULT:      -7.8      1.129      1.247
REMARK  Name = 
REMARK  11 active torsions:
REMARK  status: ('A' for Active; 'I' for Inactive)
REMARK    1  A    between atoms: C_1  and  C_2
REMARK    2  A    between atoms: C_3  and  C_4
REMARK    3  A    between atoms: N_6  and  C_7
REMARK    4  A    between atoms: C_7  and  C_8
REMARK    5  A    between atoms: C_8  and  C_9
REMARK    6  A    between atoms: C_9  and  N_10
REMARK    7  A    between atoms: C_13  and  C_14
REMARK    8  A    between atoms: C_14  and  N_15
REMARK    9  A    between atoms: C_16  and  C_18
REMARK   10  A    between atoms: C_24  and  O_25
REMARK   11  A    between atoms: O_25  and  C_26
REMARK                            x       y       z     vdW  Elec       q    Type
REMARK                         _______ _______ _______ _____ _____    ______ ____
ROOT
ATOM      1  C   UNL     1       2.440   3.720  20.535  0.00  0.00    +0.000 C 
ENDROOT
BRANCH   1   5
ATOM      2  N   UNL     1       3.558   3.270  17.014  0.00  0.00    +0.000 NA
ATOM      3  C   UNL     1       4.290   2.761  18.185  0.00  0.00    +0.000 C 
ATOM      4  C   UNL     1       3.401   1.866  19.058  0.00  0.00    +0.000 C 
ATOM      5  C   UNL     1       2.138   2.596  19.528  0.00  0.00    +0.000 C 
ATOM      6  C   UNL     1       1.418   3.147  18.288  0.00  0.00    +0.000 C 
ATOM      7  C   UNL     1       2.340   4.001  17.411  0.00  0.00    +0.000 C 
BRANCH   2   8
ATOM      8  C   UNL     1       4.389   4.109  16.126  0.00  0.00    +0.000 C 
BRANCH   8   9
ATOM      9  C   UNL     1       5.812   3.576  15.892  0.00  0.00    +0.000 C 
BRANCH   9  10
ATOM     10  C   UNL     1       6.681   4.596  15.153  0.00  0.00    +0.000 C 
BRANCH  10  13
ATOM     11  C   UNL     1       7.193   6.089  17.034  0.00  0.00    +0.000 C 
ATOM     12  O   UNL     1       7.724   5.198  17.686  0.00  0.00    +0.000 OA
ATOM     13  N   UNL     1       6.638   5.899  15.792  0.00  0.00    +0.000 N 
ATOM     14  H   UNL     1       6.265   6.683  15.273  0.00  0.00    +0.000 HD
BRANCH  11  17
ATOM     15  C   UNL     1       8.239   9.628  18.141  0.00  0.00    +0.000 C 
ATOM     16  C   UNL     1       8.214   8.217  17.655  0.00  0.00    +0.000 C 
ATOM     17  C   UNL     1       7.095   7.487  17.523  0.00  0.00    +0.000 C 
ENDBRANCH  11  17
ENDBRANCH  10  13
ENDBRANCH   9  10
ENDBRANCH   8   9
ENDBRANCH   2   8
ENDBRANCH   1   5
BRANCH   1  18
ATOM     18  N   UNL     1       2.084   5.027  20.030  0.00  0.00    +0.000 N 
ATOM     19  C   UNL     1       3.040   5.957  19.670  0.00  0.00    +0.000 C 
ATOM     20  O   UNL     1       4.245   5.733  19.750  0.00  0.00    +0.000 OA
ATOM     21  H   UNL     1       1.120   5.269  19.818  0.00  0.00    +0.000 HD
BRANCH  19  22
ATOM     22  C   UNL     1       2.495   7.231  19.174  0.00  0.00    +0.000 A 
ATOM     23  N   UNL     1       2.796   7.693  17.939  0.00  0.00    +0.000 NA
ATOM     24  N   UNL     1       2.132   8.859  17.863  0.00  0.00    +0.000 N 
ATOM     25  C   UNL     1       1.421   9.184  18.984  0.00  0.00    +0.000 A 
ATOM     26  C   UNL     1       0.639  10.300  19.289  0.00  0.00    +0.000 A 
ATOM     27  C   UNL     1       0.044  10.344  20.556  0.00  0.00    +0.000 A 
ATOM     28  C   UNL     1       0.222   9.310  21.476  0.00  0.00    +0.000 A 
ATOM     29  C   UNL     1       1.013   8.197  21.139  0.00  0.00    +0.000 A 
ATOM     30  C   UNL     1       1.629   8.134  19.870  0.00  0.00    +0.000 A 
ATOM     31  H   UNL     1       2.215   9.405  17.015  0.00  0.00    +0.000 HD
BRANCH  28  32
ATOM     32  O   UNL     1      -0.316   9.270  22.737  0.00  0.00    +0.000 OA
ATOM     33  C   UNL     1      -0.957  10.454  23.199  0.00  0.00    +0.000 C 
ENDBRANCH  28  32
ENDBRANCH  19  22
ENDBRANCH   1  18
TORSDOF 9
ENDMDL
MODEL 6
REMARK VINA RESULT:      -7.6      3.275      4.506
REMARK  Name = 
REMARK  11 active torsions:
REMARK  status: ('A' for Active; 'I' for Inactive)
REMARK    1  A    between atoms: C_1  and  C_2
REMARK    2  A    between atoms: C_3  and  C_4
REMARK    3  A    between atoms: N_6  and  C_7
REMARK    4  A    between atoms: C_7  and  C_8
REMARK    5  A    between atoms: C_8  and  C_9
REMARK    6  A    between atoms: C_9  and  N_10
REMARK    7  A    between atoms: C_13  and  C_14
REMARK    8  A    between atoms: C_14  and  N_15
REMARK    9  A    between atoms: C_16  and  C_18
REMARK   10  A    between atoms: C_24  and  O_25
REMARK   11  A    between atoms: O_25  and  C_26
REMARK                            x       y       z     vdW  Elec       q    Type
REMARK                         _______ _______ _______ _____ _____    ______ ____
ROOT
ATOM      1  C   UNL     1       2.481   5.300  18.909  0.00  0.00    +0.000 C 
ENDROOT
BRANCH   1   5
ATOM      2  N   UNL     1       5.485   3.921  17.197  0.00  0.00    +0.000 NA
ATOM      3  C   UNL     1       5.114   5.346  17.197  0.00  0.00    +0.000 C 
ATOM      4  C   UNL     1       4.955   5.885  18.624  0.00  0.00    +0.000 C 
ATOM      5  C   UNL     1       3.916   5.091  19.425  0.00  0.00    +0.000 C 
ATOM      6  C   UNL     1       4.309   3.607  19.374  0.00  0.00    +0.000 C 
ATOM      7  C   UNL     1       4.504   3.106  17.939  0.00  0.00    +0.000 C 
BRANCH   2   8
ATOM      8  C   UNL     1       5.682   3.370  15.840  0.00  0.00    +0.000 C 
BRANCH   8   9
ATOM      9  C   UNL     1       5.490   4.388  14.704  0.00  0.00    +0.000 C 
BRANCH   9  10
ATOM     10  C   UNL     1       5.874   3.796  13.346  0.00  0.00    +0.000 C 
BRANCH  10  13
ATOM     11  C   UNL     1       4.556   2.940  11.460  0.00  0.00    +0.000 C 
ATOM     12  O   UNL     1       5.219   1.913  11.374  0.00  0.00    +0.000 OA
ATOM     13  N   UNL     1       4.800   3.931  12.379  0.00  0.00    +0.000 N 
ATOM     14  H   UNL     1       4.185   4.731  12.444  0.00  0.00    +0.000 HD
BRANCH  11  17
ATOM     15  C   UNL     1       2.270   4.755   8.945  0.00  0.00    +0.000 C 
ATOM     16  C   UNL     1       3.378   4.364   9.865  0.00  0.00    +0.000 C 
ATOM     17  C   UNL     1       3.401   3.222  10.571  0.00  0.00    +0.000 C 
ENDBRANCH  11  17
ENDBRANCH  10  13
ENDBRANCH   9  10
ENDBRANCH   8   9
ENDBRANCH   2   8
ENDBRANCH   1   5
BRANCH   1  18
ATOM     18  N   UNL     1       2.209   6.678  18.572  0.00  0.00    +0.000 N 
ATOM     19  C   UNL     1       1.830   7.604  19.526  0.00  0.00    +0.000 C 
ATOM     20  O   UNL     1       1.707   7.318  20.714  0.00  0.00    +0.000 OA
ATOM     21  H   UNL     1       2.393   7.042  17.641  0.00  0.00    +0.000 HD
BRANCH  19  22
ATOM     22  C   UNL     1       1.598   8.959  19.002  0.00  0.00    +0.000 A 
ATOM     23  N   UNL     1       2.049   9.329  17.781  0.00  0.00    +0.000 NA
ATOM     24  N   UNL     1       1.658  10.610  17.671  0.00  0.00    +0.000 N 
ATOM     25  C   UNL     1       0.985  11.096  18.756  0.00  0.00    +0.000 A 
ATOM     26  C   UNL     1       0.451  12.359  19.020  0.00  0.00    +0.000 A 
ATOM     27  C   UNL     1      -0.178  12.547  20.257  0.00  0.00    +0.000 A 
ATOM     28  C   UNL     1      -0.272  11.511  21.187  0.00  0.00    +0.000 A 
ATOM     29  C   UNL     1       0.273  10.249  20.891  0.00  0.00    +0.000 A 
ATOM     30  C   UNL     1       0.918  10.038  19.653  0.00  0.00    +0.000 A 
ATOM     31  H   UNL     1       1.896  11.114  16.825  0.00  0.00    +0.000 HD
BRANCH  28  32
ATOM     32  O   UNL     1      -0.862  11.605  22.421  0.00  0.00    +0.000 OA
ATOM     33  C   UNL     1      -0.949  10.407  23.186  0.00  0.00    +0.000 C 
ENDBRANCH  28  32
ENDBRANCH  19  22
ENDBRANCH   1  18
TORSDOF 9
ENDMDL
MODEL 7
REMARK VINA RESULT:      -7.5      2.235      3.231
REMARK  Name = 
REMARK  11 active torsions:
REMARK  status: ('A' for Active; 'I' for Inactive)
REMARK    1  A    between atoms: C_1  and  C_2
REMARK    2  A    between atoms: C_3  and  C_4
REMARK    3  A    between atoms: N_6  and  C_7
REMARK    4  A    between atoms: C_7  and  C_8
REMARK    5  A    between atoms: C_8  and  C_9
REMARK    6  A    between atoms: C_9  and  N_10
REMARK    7  A    between atoms: C_13  and  C_14
REMARK    8  A    between atoms: C_14  and  N_15
REMARK    9  A    between atoms: C_16  and  C_18
REMARK   10  A    between atoms: C_24  and  O_25
REMARK   11  A    between atoms: O_25  and  C_26
REMARK                            x       y       z     vdW  Elec       q    Type
REMARK                         _______ _______ _______ _____ _____    ______ ____
ROOT
ATOM      1  C   UNL     1       2.547   5.980  20.760  0.00  0.00    +0.000 C 
ENDROOT
BRANCH   1   5
ATOM      2  N   UNL     1       3.472   3.505  18.138  0.00  0.00    +0.000 NA
ATOM      3  C   UNL     1       3.917   3.430  19.540  0.00  0.00    +0.000 C 
ATOM      4  C   UNL     1       2.729   3.441  20.509  0.00  0.00    +0.000 C 
ATOM      5  C   UNL     1       1.847   4.681  20.322  0.00  0.00    +0.000 C 
ATOM      6  C   UNL     1       1.431   4.751  18.846  0.00  0.00    +0.000 C 
ATOM      7  C   UNL     1       2.635   4.695  17.899  0.00  0.00    +0.000 C 
BRANCH   2   8
ATOM      8  C   UNL     1       4.587   3.463  17.170  0.00  0.00    +0.000 C 
BRANCH   8   9
ATOM      9  C   UNL     1       5.600   4.611  17.312  0.00  0.00    +0.000 C 
BRANCH   9  10
ATOM     10  C   UNL     1       5.563   5.546  16.101  0.00  0.00    +0.000 C 
BRANCH  10  13
ATOM     11  C   UNL     1       6.776   4.796  14.103  0.00  0.00    +0.000 C 
ATOM     12  O   UNL     1       7.795   5.405  14.408  0.00  0.00    +0.000 OA
ATOM     13  N   UNL     1       5.625   4.809  14.852  0.00  0.00    +0.000 N 
ATOM     14  H   UNL     1       4.834   4.240  14.583  0.00  0.00    +0.000 HD
BRANCH  11  17
ATOM     15  C   UNL     1       5.329   2.441  11.418  0.00  0.00    +0.000 C 
ATOM     16  C   UNL     1       5.539   3.308  12.615  0.00  0.00    +0.000 C 
ATOM     17  C   UNL     1       6.680   3.965  12.877  0.00  0.00    +0.000 C 
ENDBRANCH  11  17
ENDBRANCH  10  13
ENDBRANCH   9  10
ENDBRANCH   8   9
ENDBRANCH   2   8
ENDBRANCH   1   5
BRANCH   1  18
ATOM     18  N   UNL     1       2.113   7.127  19.997  0.00  0.00    +0.000 N 
ATOM     19  C   UNL     1       1.440   8.183  20.581  0.00  0.00    +0.000 C 
ATOM     20  O   UNL     1       1.174   8.216  21.780  0.00  0.00    +0.000 OA
ATOM     21  H   UNL     1       2.383   7.250  19.025  0.00  0.00    +0.000 HD
BRANCH  19  22
ATOM     22  C   UNL     1       1.078   9.265  19.652  0.00  0.00    +0.000 A 
ATOM     23  N   UNL     1       1.499   9.259  18.367  0.00  0.00    +0.000 NA
ATOM     24  N   UNL     1       0.984  10.391  17.857  0.00  0.00    +0.000 N 
ATOM     25  C   UNL     1       0.258  11.136  18.742  0.00  0.00    +0.000 A 
ATOM     26  C   UNL     1      -0.400  12.359  18.595  0.00  0.00    +0.000 A 
ATOM     27  C   UNL     1      -1.054  12.878  19.720  0.00  0.00    +0.000 A 
ATOM     28  C   UNL     1      -1.052  12.196  20.938  0.00  0.00    +0.000 A 
ATOM     29  C   UNL     1      -0.382  10.965  21.054  0.00  0.00    +0.000 A 
ATOM     30  C   UNL     1       0.289  10.426  19.935  0.00  0.00    +0.000 A 
ATOM     31  H   UNL     1       1.178  10.613  16.888  0.00  0.00    +0.000 HD
BRANCH  28  32
ATOM     32  O   UNL     1      -1.659  12.629  22.089  0.00  0.00    +0.000 OA
ATOM     33  C   UNL     1      -1.890  11.654  23.100  0.00  0.00    +0.000 C 
ENDBRANCH  28  32
ENDBRANCH  19  22
ENDBRANCH   1  18
TORSDOF 9
ENDMDL
MODEL 8
REMARK VINA RESULT:      -7.5      3.158      9.568
REMARK  Name = 
REMARK  11 active torsions:
REMARK  status: ('A' for Active; 'I' for Inactive)
REMARK    1  A    between atoms: C_1  and  C_2
REMARK    2  A    between atoms: C_3  and  C_4
REMARK    3  A    between atoms: N_6  and  C_7
REMARK    4  A    between atoms: C_7  and  C_8
REMARK    5  A    between atoms: C_8  and  C_9
REMARK    6  A    between atoms: C_9  and  N_10
REMARK    7  A    between atoms: C_13  and  C_14
REMARK    8  A    between atoms: C_14  and  N_15
REMARK    9  A    between atoms: C_16  and  C_18
REMARK   10  A    between atoms: C_24  and  O_25
REMARK   11  A    between atoms: O_25  and  C_26
REMARK                            x       y       z     vdW  Elec       q    Type
REMARK                         _______ _______ _______ _____ _____    ______ ____
ROOT
ATOM      1  C   UNL     1       1.720   8.747  19.018  0.00  0.00    +0.000 C 
ENDROOT
BRANCH   1   5
ATOM      2  N   UNL     1      -0.630  11.581  19.566  0.00  0.00    +0.000 NA
ATOM      3  C   UNL     1       0.816  11.641  19.837  0.00  0.00    +0.000 C 
ATOM      4  C   UNL     1       1.637  11.269  18.597  0.00  0.00    +0.000 C 
ATOM      5  C   UNL     1       1.277   9.875  18.069  0.00  0.00    +0.000 C 
ATOM      6  C   UNL     1      -0.239   9.832  17.832  0.00  0.00    +0.000 C 
ATOM      7  C   UNL     1      -1.034  10.251  19.074  0.00  0.00    +0.000 C 
BRANCH   2   8
ATOM      8  C   UNL     1      -1.457  11.967  20.728  0.00  0.00    +0.000 C 
BRANCH   8   9
ATOM      9  C   UNL     1      -0.912  11.493  22.085  0.00  0.00    +0.000 C 
BRANCH   9  10
ATOM     10  C   UNL     1      -1.861  11.857  23.231  0.00  0.00    +0.000 C 
BRANCH  10  13
ATOM     11  C   UNL     1      -4.174  12.594  23.592  0.00  0.00    +0.000 C 
ATOM     12  O   UNL     1      -4.143  12.333  24.789  0.00  0.00    +0.000 OA
ATOM     13  N   UNL     1      -3.119  12.386  22.737  0.00  0.00    +0.000 N 
ATOM     14  H   UNL     1      -3.180  12.674  21.770  0.00  0.00    +0.000 HD
BRANCH  11  17
ATOM     15  C   UNL     1      -6.884  13.272  20.937  0.00  0.00    +0.000 C 
ATOM     16  C   UNL     1      -5.707  12.759  21.699  0.00  0.00    +0.000 C 
ATOM     17  C   UNL     1      -5.371  13.173  22.932  0.00  0.00    +0.000 C 
ENDBRANCH  11  17
ENDBRANCH  10  13
ENDBRANCH   9  10
ENDBRANCH   8   9
ENDBRANCH   2   8
ENDBRANCH   1   5
BRANCH   1  18
ATOM     18  N   UNL     1       2.298   7.625  18.314  0.00  0.00    +0.000 N 
ATOM     19  C   UNL     1       2.557   6.422  18.942  0.00  0.00    +0.000 C 
ATOM     20  O   UNL     1       2.308   6.227  20.129  0.00  0.00    +0.000 OA
ATOM     21  H   UNL     1       2.434   7.645  17.307  0.00  0.00    +0.000 HD
BRANCH  19  22
ATOM     22  C   UNL     1       3.143   5.393  18.069  0.00  0.00    +0.000 A 
ATOM     23  N   UNL     1       2.492   4.237  17.807  0.00  0.00    +0.000 NA
ATOM     24  N   UNL     1       3.335   3.570  17.000  0.00  0.00    +0.000 N 
ATOM     25  C   UNL     1       4.503   4.226  16.730  0.00  0.00    +0.000 A 
ATOM     26  C   UNL     1       5.613   3.856  15.967  0.00  0.00    +0.000 A 
ATOM     27  C   UNL     1       6.679   4.762  15.899  0.00  0.00    +0.000 A 
ATOM     28  C   UNL     1       6.630   5.990  16.562  0.00  0.00    +0.000 A 
ATOM     29  C   UNL     1       5.497   6.335  17.320  0.00  0.00    +0.000 A 
ATOM     30  C   UNL     1       4.414   5.435  17.409  0.00  0.00    +0.000 A 
ATOM     31  H   UNL     1       3.062   2.651  16.673  0.00  0.00    +0.000 HD
BRANCH  28  32
ATOM     32  O   UNL     1       7.625   6.933  16.556  0.00  0.00    +0.000 OA
ATOM     33  C   UNL     1       7.757   7.737  17.724  0.00  0.00    +0.000 C 
ENDBRANCH  28  32
ENDBRANCH  19  22
ENDBRANCH   1  18
TORSDOF 9
ENDMDL
MODEL 9
REMARK VINA RESULT:      -7.5      2.486      3.423
REMARK  Name = 
REMARK  11 active torsions:
REMARK  status: ('A' for Active; 'I' for Inactive)
REMARK    1  A    between atoms: C_1  and  C_2
REMARK    2  A    between atoms: C_3  and  C_4
REMARK    3  A    between atoms: N_6  and  C_7
REMARK    4  A    between atoms: C_7  and  C_8
REMARK    5  A    between atoms: C_8  and  C_9
REMARK    6  A    between atoms: C_9  and  N_10
REMARK    7  A    between atoms: C_13  and  C_14
REMARK    8  A    between atoms: C_14  and  N_15
REMARK    9  A    between atoms: C_16  and  C_18
REMARK   10  A    between atoms: C_24  and  O_25
REMARK   11  A    between atoms: O_25  and  C_26
REMARK                            x       y       z     vdW  Elec       q    Type
REMARK                         _______ _______ _______ _____ _____    ______ ____
ROOT
ATOM      1  C   UNL     1       2.022   6.528  20.923  0.00  0.00    +0.000 C 
ENDROOT
BRANCH   1   5
ATOM      2  N   UNL     1       4.086   4.492  18.590  0.00  0.00    +0.000 NA
ATOM      3  C   UNL     1       3.513   3.982  19.846  0.00  0.00    +0.000 C 
ATOM      4  C   UNL     1       1.994   4.187  19.894  0.00  0.00    +0.000 C 
ATOM      5  C   UNL     1       1.607   5.660  19.722  0.00  0.00    +0.000 C 
ATOM      6  C   UNL     1       2.251   6.172  18.425  0.00  0.00    +0.000 C 
ATOM      7  C   UNL     1       3.761   5.916  18.384  0.00  0.00    +0.000 C 
BRANCH   2   8
ATOM      8  C   UNL     1       5.546   4.283  18.488  0.00  0.00    +0.000 C 
BRANCH   8   9
ATOM      9  C   UNL     1       6.392   5.307  19.262  0.00  0.00    +0.000 C 
BRANCH   9  10
ATOM     10  C   UNL     1       7.704   5.615  18.536  0.00  0.00    +0.000 C 
BRANCH  10  13
ATOM     11  C   UNL     1       8.192   7.991  18.156  0.00  0.00    +0.000 C 
ATOM     12  O   UNL     1       7.682   7.988  17.042  0.00  0.00    +0.000 OA
ATOM     13  N   UNL     1       8.269   6.882  18.963  0.00  0.00    +0.000 N 
ATOM     14  H   UNL     1       8.647   6.956  19.898  0.00  0.00    +0.000 HD
BRANCH  11  17
ATOM     15  C   UNL     1       9.328  11.649  18.573  0.00  0.00    +0.000 C 
ATOM     16  C   UNL     1       8.761  10.363  18.070  0.00  0.00    +0.000 C 
ATOM     17  C   UNL     1       8.784   9.210  18.759  0.00  0.00    +0.000 C 
ENDBRANCH  11  17
ENDBRANCH  10  13
ENDBRANCH   9  10
ENDBRANCH   8   9
ENDBRANCH   2   8
ENDBRANCH   1   5
BRANCH   1  18
ATOM     18  N   UNL     1       1.818   7.939  20.684  0.00  0.00    +0.000 N 
ATOM     19  C   UNL     1       0.683   8.598  21.118  0.00  0.00    +0.000 C 
ATOM     20  O   UNL     1      -0.215   8.033  21.736  0.00  0.00    +0.000 OA
ATOM     21  H   UNL     1       2.549   8.520  20.284  0.00  0.00    +0.000 HD
BRANCH  19  22
ATOM     22  C   UNL     1       0.647  10.031  20.788  0.00  0.00    +0.000 A 
ATOM     23  N   UNL     1       1.457  10.918  21.411  0.00  0.00    +0.000 NA
ATOM     24  N   UNL     1       1.127  12.096  20.855  0.00  0.00    +0.000 N 
ATOM     25  C   UNL     1       0.142  12.026  19.911  0.00  0.00    +0.000 A 
ATOM     26  C   UNL     1      -0.474  13.018  19.146  0.00  0.00    +0.000 A 
ATOM     27  C   UNL     1      -1.482  12.617  18.261  0.00  0.00    +0.000 A 
ATOM     28  C   UNL     1      -1.853  11.276  18.145  0.00  0.00    +0.000 A 
ATOM     29  C   UNL     1      -1.212  10.299  18.927  0.00  0.00    +0.000 A 
ATOM     30  C   UNL     1      -0.197  10.681  19.832  0.00  0.00    +0.000 A 
ATOM     31  H   UNL     1       1.605  12.930  21.177  0.00  0.00    +0.000 HD
BRANCH  28  32
ATOM     32  O   UNL     1      -2.829  10.793  17.311  0.00  0.00    +0.000 OA
ATOM     33  C   UNL     1      -2.405   9.953  16.243  0.00  0.00    +0.000 C 
ENDBRANCH  28  32
ENDBRANCH  19  22
ENDBRANCH   1  18
TORSDOF 9
ENDMDL
