MODEL 1
REMARK VINA RESULT:      -7.8      0.000      0.000
REMARK  Name = 
REMARK  3 active torsions:
REMARK  status: ('A' for Active; 'I' for Inactive)
REMARK    1  A    between atoms: O_1  and  C_2
REMARK    2  A    between atoms: C_7  and  N_8
REMARK    3  A    between atoms: C_11  and  C_12
REMARK                            x       y       z     vdW  Elec       q    Type
REMARK                         _______ _______ _______ _____ _____    ______ ____
ROOT
ATOM      1  N   UNL     1       3.259   2.107  19.176  0.00  0.00    +0.000 NA
ATOM      2  C   UNL     1       4.452   2.907  19.410  0.00  0.00    +0.000 C 
ATOM      3  C   UNL     1       4.348   4.349  18.933  0.00  0.00    +0.000 C 
ATOM      4  C   UNL     1       3.867   4.481  17.484  0.00  0.00    +0.000 C 
ATOM      5  C   UNL     1       2.832   3.424  17.050  0.00  0.00    +0.000 C 
ATOM      6  C   UNL     1       2.942   2.064  17.747  0.00  0.00    +0.000 C 
ENDROOT
BRANCH   1  12
ATOM      7  C   UNL     1       2.411   2.740  21.521  0.00  0.00    +0.000 C 
ATOM      8  C   UNL     1       2.454   4.280  21.613  0.00  0.00    +0.000 C 
ATOM      9  C   UNL     1       1.469   4.972  20.713  0.00  0.00    +0.000 C 
ATOM     10  C   UNL     1       0.699   4.324  19.827  0.00  0.00    +0.000 C 
ATOM     11  C   UNL     1       0.786   2.847  19.595  0.00  0.00    +0.000 C 
ATOM     12  C   UNL     1       2.096   2.184  20.096  0.00  0.00    +0.000 C 
BRANCH   7  13
ATOM     13  O   UNL     1       1.422   2.231  22.445  0.00  0.00    +0.000 OA
ATOM     14  H   UNL     1       0.671   2.848  22.459  0.00  0.00    +0.000 HD
ENDBRANCH   7  13
ENDBRANCH   1  12
BRANCH   4  15
ATOM     15  C   UNL     1       5.051   4.612  16.538  0.00  0.00    +0.000 A 
ATOM     16  C   UNL     1       6.264   5.188  16.938  0.00  0.00    +0.000 A 
ATOM     17  C   UNL     1       7.330   5.282  16.044  0.00  0.00    +0.000 A 
ATOM     18  C   UNL     1       7.194   4.811  14.739  0.00  0.00    +0.000 A 
ATOM     19  C   UNL     1       5.985   4.264  14.322  0.00  0.00    +0.000 A 
ATOM     20  C   UNL     1       4.918   4.170  15.216  0.00  0.00    +0.000 A 
ENDBRANCH   4  15
TORSDOF 3
ENDMDL
MODEL 2
REMARK VINA RESULT:      -7.8      0.158      1.106
REMARK  Name = 
REMARK  3 active torsions:
REMARK  status: ('A' for Active; 'I' for Inactive)
REMARK    1  A    between atoms: O_1  and  C_2
REMARK    2  A    between atoms: C_7  and  N_8
REMARK    3  A    between atoms: C_11  and  C_12
REMARK                            x       y       z     vdW  Elec       q    Type
REMARK                         _______ _______ _______ _____ _____    ______ ____
ROOT
ATOM      1  N   UNL     1       3.127   2.056  19.132  0.00  0.00    +0.000 NA
ATOM      2  C   UNL     1       4.385   2.749  19.365  0.00  0.00    +0.000 C 
ATOM      3  C   UNL     1       4.380   4.217  18.961  0.00  0.00    +0.000 C 
ATOM      4  C   UNL     1       3.868   4.458  17.536  0.00  0.00    +0.000 C 
ATOM      5  C   UNL     1       2.742   3.506  17.088  0.00  0.00    +0.000 C 
ATOM      6  C   UNL     1       2.766   2.108  17.715  0.00  0.00    +0.000 C 
ENDROOT
BRANCH   1  12
ATOM      7  C   UNL     1       2.388   2.709  21.509  0.00  0.00    +0.000 C 
ATOM      8  C   UNL     1       2.498   4.245  21.606  0.00  0.00    +0.000 C 
ATOM      9  C   UNL     1       1.511   4.982  20.744  0.00  0.00    +0.000 C 
ATOM     10  C   UNL     1       0.685   4.372  19.883  0.00  0.00    +0.000 C 
ATOM     11  C   UNL     1       0.703   2.893  19.642  0.00  0.00    +0.000 C 
ATOM     12  C   UNL     1       2.001   2.175  20.093  0.00  0.00    +0.000 C 
BRANCH   7  13
ATOM     13  O   UNL     1       1.413   2.236  22.465  0.00  0.00    +0.000 OA
ATOM     14  H   UNL     1       0.966   3.007  22.853  0.00  0.00    +0.000 HD
ENDBRANCH   7  13
ENDBRANCH   1  12
BRANCH   4  15
ATOM     15  C   UNL     1       5.030   4.545  16.559  0.00  0.00    +0.000 A 
ATOM     16  C   UNL     1       4.873   4.297  15.189  0.00  0.00    +0.000 A 
ATOM     17  C   UNL     1       5.962   4.395  14.324  0.00  0.00    +0.000 A 
ATOM     18  C   UNL     1       7.222   4.732  14.818  0.00  0.00    +0.000 A 
ATOM     19  C   UNL     1       7.396   4.951  16.180  0.00  0.00    +0.000 A 
ATOM     20  C   UNL     1       6.307   4.853  17.046  0.00  0.00    +0.000 A 
ENDBRANCH   4  15
TORSDOF 3
ENDMDL
MODEL 3
REMARK VINA RESULT:      -7.2      2.882      6.353
REMARK  Name = 
REMARK  3 active torsions:
REMARK  status: ('A' for Active; 'I' for Inactive)
REMARK    1  A    between atoms: O_1  and  C_2
REMARK    2  A    between atoms: C_7  and  N_8
REMARK    3  A    between atoms: C_11  and  C_12
REMARK                            x       y       z     vdW  Elec       q    Type
REMARK                         _______ _______ _______ _____ _____    ______ ____
ROOT
ATOM      1  N   UNL     1       4.904   6.422  18.117  0.00  0.00    +0.000 NA
ATOM      2  C   UNL     1       5.301   5.489  19.162  0.00  0.00    +0.000 C 
ATOM      3  C   UNL     1       5.024   4.027  18.840  0.00  0.00    +0.000 C 
ATOM      4  C   UNL     1       3.588   3.764  18.376  0.00  0.00    +0.000 C 
ATOM      5  C   UNL     1       2.966   4.895  17.534  0.00  0.00    +0.000 C 
ATOM      6  C   UNL     1       3.471   6.308  17.844  0.00  0.00    +0.000 C 
ENDROOT
BRANCH   1  12
ATOM      7  C   UNL     1       7.234   6.123  17.067  0.00  0.00    +0.000 C 
ATOM      8  C   UNL     1       7.394   4.621  16.753  0.00  0.00    +0.000 C 
ATOM      9  C   UNL     1       6.481   4.125  15.667  0.00  0.00    +0.000 C 
ATOM     10  C   UNL     1       5.534   4.882  15.097  0.00  0.00    +0.000 C 
ATOM     11  C   UNL     1       5.242   6.287  15.528  0.00  0.00    +0.000 C 
ATOM     12  C   UNL     1       5.773   6.660  16.937  0.00  0.00    +0.000 C 
BRANCH   7  13
ATOM     13  O   UNL     1       8.089   6.891  16.190  0.00  0.00    +0.000 OA
ATOM     14  H   UNL     1       8.068   7.819  16.478  0.00  0.00    +0.000 HD
ENDBRANCH   7  13
ENDBRANCH   1  12
BRANCH   4  15
ATOM     15  C   UNL     1       2.724   3.316  19.545  0.00  0.00    +0.000 A 
ATOM     16  C   UNL     1       1.334   3.495  19.557  0.00  0.00    +0.000 A 
ATOM     17  C   UNL     1       0.575   3.063  20.644  0.00  0.00    +0.000 A 
ATOM     18  C   UNL     1       1.196   2.458  21.736  0.00  0.00    +0.000 A 
ATOM     19  C   UNL     1       2.578   2.303  21.749  0.00  0.00    +0.000 A 
ATOM     20  C   UNL     1       3.338   2.735  20.662  0.00  0.00    +0.000 A 
ENDBRANCH   4  15
TORSDOF 3
ENDMDL
MODEL 4
REMARK VINA RESULT:      -7.2      2.896      6.298
REMARK  Name = 
REMARK  3 active torsions:
REMARK  status: ('A' for Active; 'I' for Inactive)
REMARK    1  A    between atoms: O_1  and  C_2
REMARK    2  A    between atoms: C_7  and  N_8
REMARK    3  A    between atoms: C_11  and  C_12
REMARK                            x       y       z     vdW  Elec       q    Type
REMARK                         _______ _______ _______ _____ _____    ______ ____
ROOT
ATOM      1  N   UNL     1       4.959   6.423  18.140  0.00  0.00    +0.000 NA
ATOM      2  C   UNL     1       5.371   5.469  19.160  0.00  0.00    +0.000 C 
ATOM      3  C   UNL     1       5.069   4.016  18.822  0.00  0.00    +0.000 C 
ATOM      4  C   UNL     1       3.619   3.775  18.390  0.00  0.00    +0.000 C 
ATOM      5  C   UNL     1       2.990   4.926  17.581  0.00  0.00    +0.000 C 
ATOM      6  C   UNL     1       3.519   6.328  17.899  0.00  0.00    +0.000 C 
ENDROOT
BRANCH   1  12
ATOM      7  C   UNL     1       7.262   6.122  17.031  0.00  0.00    +0.000 C 
ATOM      8  C   UNL     1       7.406   4.623  16.697  0.00  0.00    +0.000 C 
ATOM      9  C   UNL     1       6.465   4.144  15.627  0.00  0.00    +0.000 C 
ATOM     10  C   UNL     1       5.509   4.914  15.088  0.00  0.00    +0.000 C 
ATOM     11  C   UNL     1       5.236   6.315  15.542  0.00  0.00    +0.000 C 
ATOM     12  C   UNL     1       5.801   6.669  16.942  0.00  0.00    +0.000 C 
BRANCH   7  13
ATOM     13  O   UNL     1       8.101   6.895  16.143  0.00  0.00    +0.000 OA
ATOM     14  H   UNL     1       8.656   6.280  15.635  0.00  0.00    +0.000 HD
ENDBRANCH   7  13
ENDBRANCH   1  12
BRANCH   4  15
ATOM     15  C   UNL     1       2.779   3.320  19.573  0.00  0.00    +0.000 A 
ATOM     16  C   UNL     1       3.348   2.724  20.707  0.00  0.00    +0.000 A 
ATOM     17  C   UNL     1       2.545   2.328  21.775  0.00  0.00    +0.000 A 
ATOM     18  C   UNL     1       1.163   2.511  21.720  0.00  0.00    +0.000 A 
ATOM     19  C   UNL     1       0.584   3.073  20.587  0.00  0.00    +0.000 A 
ATOM     20  C   UNL     1       1.387   3.470  19.518  0.00  0.00    +0.000 A 
ENDBRANCH   4  15
TORSDOF 3
ENDMDL
MODEL 5
REMARK VINA RESULT:      -7.1      1.862      3.440
REMARK  Name = 
REMARK  3 active torsions:
REMARK  status: ('A' for Active; 'I' for Inactive)
REMARK    1  A    between atoms: O_1  and  C_2
REMARK    2  A    between atoms: C_7  and  N_8
REMARK    3  A    between atoms: C_11  and  C_12
REMARK                            x       y       z     vdW  Elec       q    Type
REMARK                         _______ _______ _______ _____ _____    ______ ____
ROOT
ATOM      1  N   UNL     1       3.831   5.367  17.381  0.00  0.00    +0.000 NA
ATOM      2  C   UNL     1       3.957   4.128  16.628  0.00  0.00    +0.000 C 
ATOM      3  C   UNL     1       5.376   3.582  16.545  0.00  0.00    +0.000 C 
ATOM      4  C   UNL     1       6.405   4.620  16.084  0.00  0.00    +0.000 C 
ATOM      5  C   UNL     1       6.133   6.056  16.572  0.00  0.00    +0.000 C 
ATOM      6  C   UNL     1       4.660   6.416  16.786  0.00  0.00    +0.000 C 
ENDROOT
BRANCH   1  12
ATOM      7  C   UNL     1       2.333   5.499  19.469  0.00  0.00    +0.000 C 
ATOM      8  C   UNL     1       1.526   4.185  19.525  0.00  0.00    +0.000 C 
ATOM      9  C   UNL     1       2.364   2.968  19.802  0.00  0.00    +0.000 C 
ATOM     10  C   UNL     1       3.701   2.996  19.881  0.00  0.00    +0.000 C 
ATOM     11  C   UNL     1       4.508   4.234  19.638  0.00  0.00    +0.000 C 
ATOM     12  C   UNL     1       3.766   5.355  18.864  0.00  0.00    +0.000 C 
BRANCH   7  13
ATOM     13  O   UNL     1       2.445   6.051  20.800  0.00  0.00    +0.000 OA
ATOM     14  H   UNL     1       1.599   6.472  21.029  0.00  0.00    +0.000 HD
ENDBRANCH   7  13
ENDBRANCH   1  12
BRANCH   4  15
ATOM     15  C   UNL     1       6.640   4.509  14.586  0.00  0.00    +0.000 A 
ATOM     16  C   UNL     1       5.940   3.595  13.787  0.00  0.00    +0.000 A 
ATOM     17  C   UNL     1       6.177   3.530  12.415  0.00  0.00    +0.000 A 
ATOM     18  C   UNL     1       7.123   4.369  11.826  0.00  0.00    +0.000 A 
ATOM     19  C   UNL     1       7.845   5.259  12.613  0.00  0.00    +0.000 A 
ATOM     20  C   UNL     1       7.608   5.325  13.986  0.00  0.00    +0.000 A 
ENDBRANCH   4  15
TORSDOF 3
ENDMDL
MODEL 6
REMARK VINA RESULT:      -7.0      1.802      3.232
REMARK  Name = 
REMARK  3 active torsions:
REMARK  status: ('A' for Active; 'I' for Inactive)
REMARK    1  A    between atoms: O_1  and  C_2
REMARK    2  A    between atoms: C_7  and  N_8
REMARK    3  A    between atoms: C_11  and  C_12
REMARK                            x       y       z     vdW  Elec       q    Type
REMARK                         _______ _______ _______ _____ _____    ______ ____
ROOT
ATOM      1  N   UNL     1       3.844   5.160  17.425  0.00  0.00    +0.000 NA
ATOM      2  C   UNL     1       4.021   3.948  16.638  0.00  0.00    +0.000 C 
ATOM      3  C   UNL     1       5.461   3.463  16.543  0.00  0.00    +0.000 C 
ATOM      4  C   UNL     1       6.448   4.554  16.113  0.00  0.00    +0.000 C 
ATOM      5  C   UNL     1       6.117   5.964  16.640  0.00  0.00    +0.000 C 
ATOM      6  C   UNL     1       4.630   6.258  16.861  0.00  0.00    +0.000 C 
ENDROOT
BRANCH   1  12
ATOM      7  C   UNL     1       2.361   5.342  19.520  0.00  0.00    +0.000 C 
ATOM      8  C   UNL     1       1.452   4.094  19.535  0.00  0.00    +0.000 C 
ATOM      9  C   UNL     1       2.190   2.806  19.769  0.00  0.00    +0.000 C 
ATOM     10  C   UNL     1       3.526   2.725  19.846  0.00  0.00    +0.000 C 
ATOM     11  C   UNL     1       4.429   3.903  19.642  0.00  0.00    +0.000 C 
ATOM     12  C   UNL     1       3.778   5.104  18.907  0.00  0.00    +0.000 C 
BRANCH   7  13
ATOM     13  O   UNL     1       2.517   5.838  20.868  0.00  0.00    +0.000 OA
ATOM     14  H   UNL     1       1.672   6.226  21.151  0.00  0.00    +0.000 HD
ENDBRANCH   7  13
ENDBRANCH   1  12
BRANCH   4  15
ATOM     15  C   UNL     1       6.688   4.495  14.613  0.00  0.00    +0.000 A 
ATOM     16  C   UNL     1       7.598   5.345  13.969  0.00  0.00    +0.000 A 
ATOM     17  C   UNL     1       7.796   5.254  12.592  0.00  0.00    +0.000 A 
ATOM     18  C   UNL     1       7.082   4.321  11.840  0.00  0.00    +0.000 A 
ATOM     19  C   UNL     1       6.154   3.493  12.464  0.00  0.00    +0.000 A 
ATOM     20  C   UNL     1       5.955   3.584  13.842  0.00  0.00    +0.000 A 
ENDBRANCH   4  15
TORSDOF 3
ENDMDL
MODEL 7
REMARK VINA RESULT:      -7.0      2.049      3.484
REMARK  Name = 
REMARK  3 active torsions:
REMARK  status: ('A' for Active; 'I' for Inactive)
REMARK    1  A    between atoms: O_1  and  C_2
REMARK    2  A    between atoms: C_7  and  N_8
REMARK    3  A    between atoms: C_11  and  C_12
REMARK                            x       y       z     vdW  Elec       q    Type
REMARK                         _______ _______ _______ _____ _____    ______ ____
ROOT
ATOM      1  N   UNL     1       5.103   5.871  17.904  0.00  0.00    +0.000 NA
ATOM      2  C   UNL     1       4.386   5.693  16.650  0.00  0.00    +0.000 C 
ATOM      3  C   UNL     1       4.562   4.321  16.013  0.00  0.00    +0.000 C 
ATOM      4  C   UNL     1       6.026   3.889  15.883  0.00  0.00    +0.000 C 
ATOM      5  C   UNL     1       6.939   4.353  17.034  0.00  0.00    +0.000 C 
ATOM      6  C   UNL     1       6.539   5.670  17.708  0.00  0.00    +0.000 C 
ENDROOT
BRANCH   1  12
ATOM      7  C   UNL     1       3.032   5.669  19.418  0.00  0.00    +0.000 C 
ATOM      8  C   UNL     1       2.062   4.691  18.721  0.00  0.00    +0.000 C 
ATOM      9  C   UNL     1       2.562   3.275  18.662  0.00  0.00    +0.000 C 
ATOM     10  C   UNL     1       3.784   2.907  19.073  0.00  0.00    +0.000 C 
ATOM     11  C   UNL     1       4.805   3.882  19.574  0.00  0.00    +0.000 C 
ATOM     12  C   UNL     1       4.545   5.359  19.181  0.00  0.00    +0.000 C 
BRANCH   7  13
ATOM     13  O   UNL     1       2.776   5.667  20.840  0.00  0.00    +0.000 OA
ATOM     14  H   UNL     1       2.080   6.320  21.027  0.00  0.00    +0.000 HD
ENDBRANCH   7  13
ENDBRANCH   1  12
BRANCH   4  15
ATOM     15  C   UNL     1       6.559   4.222  14.498  0.00  0.00    +0.000 A 
ATOM     16  C   UNL     1       7.524   5.217  14.290  0.00  0.00    +0.000 A 
ATOM     17  C   UNL     1       7.994   5.488  13.005  0.00  0.00    +0.000 A 
ATOM     18  C   UNL     1       7.499   4.776  11.913  0.00  0.00    +0.000 A 
ATOM     19  C   UNL     1       6.519   3.808  12.104  0.00  0.00    +0.000 A 
ATOM     20  C   UNL     1       6.049   3.537  13.389  0.00  0.00    +0.000 A 
ENDBRANCH   4  15
TORSDOF 3
ENDMDL
MODEL 8
REMARK VINA RESULT:      -7.0      2.834      6.344
REMARK  Name = 
REMARK  3 active torsions:
REMARK  status: ('A' for Active; 'I' for Inactive)
REMARK    1  A    between atoms: O_1  and  C_2
REMARK    2  A    between atoms: C_7  and  N_8
REMARK    3  A    between atoms: C_11  and  C_12
REMARK                            x       y       z     vdW  Elec       q    Type
REMARK                         _______ _______ _______ _____ _____    ______ ____
ROOT
ATOM      1  N   UNL     1       4.379   5.907  16.947  0.00  0.00    +0.000 NA
ATOM      2  C   UNL     1       3.962   6.326  18.277  0.00  0.00    +0.000 C 
ATOM      3  C   UNL     1       4.523   5.478  19.410  0.00  0.00    +0.000 C 
ATOM      4  C   UNL     1       4.315   3.973  19.210  0.00  0.00    +0.000 C 
ATOM      5  C   UNL     1       4.401   3.500  17.745  0.00  0.00    +0.000 C 
ATOM      6  C   UNL     1       3.971   4.526  16.691  0.00  0.00    +0.000 C 
ENDROOT
BRANCH   1  12
ATOM      7  C   UNL     1       6.714   6.861  17.455  0.00  0.00    +0.000 C 
ATOM      8  C   UNL     1       7.478   5.778  18.246  0.00  0.00    +0.000 C 
ATOM      9  C   UNL     1       7.797   4.548  17.443  0.00  0.00    +0.000 C 
ATOM     10  C   UNL     1       7.363   4.354  16.190  0.00  0.00    +0.000 C 
ATOM     11  C   UNL     1       6.460   5.315  15.479  0.00  0.00    +0.000 C 
ATOM     12  C   UNL     1       5.703   6.303  16.404  0.00  0.00    +0.000 C 
BRANCH   7  13
ATOM     13  O   UNL     1       7.661   7.718  16.778  0.00  0.00    +0.000 OA
ATOM     14  H   UNL     1       7.177   8.475  16.407  0.00  0.00    +0.000 HD
ENDBRANCH   7  13
ENDBRANCH   1  12
BRANCH   4  15
ATOM     15  C   UNL     1       3.063   3.507  19.937  0.00  0.00    +0.000 A 
ATOM     16  C   UNL     1       1.776   3.760  19.444  0.00  0.00    +0.000 A 
ATOM     17  C   UNL     1       0.653   3.308  20.137  0.00  0.00    +0.000 A 
ATOM     18  C   UNL     1       0.801   2.608  21.333  0.00  0.00    +0.000 A 
ATOM     19  C   UNL     1       2.073   2.376  21.848  0.00  0.00    +0.000 A 
ATOM     20  C   UNL     1       3.197   2.828  21.155  0.00  0.00    +0.000 A 
ENDBRANCH   4  15
TORSDOF 3
ENDMDL
MODEL 9
REMARK VINA RESULT:      -6.9      2.839      6.265
REMARK  Name = 
REMARK  3 active torsions:
REMARK  status: ('A' for Active; 'I' for Inactive)
REMARK    1  A    between atoms: O_1  and  C_2
REMARK    2  A    between atoms: C_7  and  N_8
REMARK    3  A    between atoms: C_11  and  C_12
REMARK                            x       y       z     vdW  Elec       q    Type
REMARK                         _______ _______ _______ _____ _____    ______ ____
ROOT
ATOM      1  N   UNL     1       4.408   5.904  16.938  0.00  0.00    +0.000 NA
ATOM      2  C   UNL     1       3.983   6.316  18.268  0.00  0.00    +0.000 C 
ATOM      3  C   UNL     1       4.538   5.462  19.399  0.00  0.00    +0.000 C 
ATOM      4  C   UNL     1       4.332   3.958  19.190  0.00  0.00    +0.000 C 
ATOM      5  C   UNL     1       4.427   3.493  17.724  0.00  0.00    +0.000 C 
ATOM      6  C   UNL     1       4.002   4.523  16.673  0.00  0.00    +0.000 C 
ENDROOT
BRANCH   1  12
ATOM      7  C   UNL     1       6.738   6.860  17.464  0.00  0.00    +0.000 C 
ATOM      8  C   UNL     1       7.499   5.775  18.256  0.00  0.00    +0.000 C 
ATOM      9  C   UNL     1       7.824   4.548  17.451  0.00  0.00    +0.000 C 
ATOM     10  C   UNL     1       7.399   4.357  16.194  0.00  0.00    +0.000 C 
ATOM     11  C   UNL     1       6.499   5.320  15.481  0.00  0.00    +0.000 C 
ATOM     12  C   UNL     1       5.735   6.304  16.404  0.00  0.00    +0.000 C 
BRANCH   7  13
ATOM     13  O   UNL     1       7.688   7.720  16.795  0.00  0.00    +0.000 OA
ATOM     14  H   UNL     1       7.949   7.297  15.960  0.00  0.00    +0.000 HD
ENDBRANCH   7  13
ENDBRANCH   1  12
BRANCH   4  15
ATOM     15  C   UNL     1       3.077   3.487  19.908  0.00  0.00    +0.000 A 
ATOM     16  C   UNL     1       3.120   2.909  21.185  0.00  0.00    +0.000 A 
ATOM     17  C   UNL     1       1.945   2.498  21.814  0.00  0.00    +0.000 A 
ATOM     18  C   UNL     1       0.716   2.649  21.173  0.00  0.00    +0.000 A 
ATOM     19  C   UNL     1       0.664   3.194  19.894  0.00  0.00    +0.000 A 
ATOM     20  C   UNL     1       1.839   3.606  19.264  0.00  0.00    +0.000 A 
ENDBRANCH   4  15
TORSDOF 3
ENDMDL
