MODEL 1
REMARK VINA RESULT:      -7.1      0.000      0.000
REMARK  Name = 
REMARK  6 active torsions:
REMARK  status: ('A' for Active; 'I' for Inactive)
REMARK    1  A    between atoms: C_1  and  C_2
REMARK    2  A    between atoms: C_5  and  O_6
REMARK    3  A    between atoms: O_6  and  C_7
REMARK    4  A    between atoms: C_7  and  C_8
REMARK    5  A    between atoms: C_18  and  C_19
REMARK    6  A    between atoms: C_19  and  C_20
REMARK                            x       y       z     vdW  Elec       q    Type
REMARK                         _______ _______ _______ _____ _____    ______ ____
ROOT
ATOM      1  C   UNL     1       8.195   5.421  19.808  0.00  0.00    +0.000 C 
ATOM      2  C   UNL     1       7.140   6.060  18.935  0.00  0.00    +0.000 C 
ATOM      3  N   UNL     1       5.874   5.286  18.763  0.00  0.00    +0.000 NA
ATOM      4  C   UNL     1       5.731   5.201  17.464  0.00  0.00    +0.000 C 
ATOM      5  C   UNL     1       4.515   4.682  16.771  0.00  0.00    +0.000 C 
ATOM      6  C   UNL     1       4.786   4.048  15.604  0.00  0.00    +0.000 C 
ATOM      7  C   UNL     1       6.176   3.923  15.131  0.00  0.00    +0.000 C 
ATOM      8  C   UNL     1       7.116   4.754  15.629  0.00  0.00    +0.000 C 
ATOM      9  N   UNL     1       6.799   5.605  16.685  0.00  0.00    +0.000 N 
ATOM     10  C   UNL     1       7.641   6.450  17.510  0.00  0.00    +0.000 C 
ENDROOT
BRANCH   5  11
ATOM     11  O   UNL     1       3.335   5.092  17.314  0.00  0.00    +0.000 OA
BRANCH  11  12
ATOM     12  C   UNL     1       2.279   4.165  17.460  0.00  0.00    +0.000 C 
BRANCH  12  13
ATOM     13  C   UNL     1       2.052   3.858  18.924  0.00  0.00    +0.000 A 
ATOM     14  C   UNL     1       1.579   2.617  19.379  0.00  0.00    +0.000 A 
ATOM     15  C   UNL     1       1.447   2.366  20.749  0.00  0.00    +0.000 A 
ATOM     16  C   UNL     1       1.806   3.337  21.681  0.00  0.00    +0.000 A 
ATOM     17  C   UNL     1       2.278   4.571  21.240  0.00  0.00    +0.000 A 
ATOM     18  C   UNL     1       2.400   4.831  19.880  0.00  0.00    +0.000 A 
ENDBRANCH  12  13
ENDBRANCH  11  12
ENDBRANCH   5  11
BRANCH  10  19
ATOM     19  C   UNL     1       7.273   7.927  17.442  0.00  0.00    +0.000 C 
BRANCH  19  20
ATOM     20  C   UNL     1       8.197   8.935  18.106  0.00  0.00    +0.000 C 
ATOM     21  N   UNL     1       8.962   9.772  18.657  0.00  0.00    +0.000 NA
ENDBRANCH  19  20
ENDBRANCH  10  19
TORSDOF 5
ENDMDL
MODEL 2
REMARK VINA RESULT:      -6.9      1.907      3.035
REMARK  Name = 
REMARK  6 active torsions:
REMARK  status: ('A' for Active; 'I' for Inactive)
REMARK    1  A    between atoms: C_1  and  C_2
REMARK    2  A    between atoms: C_5  and  O_6
REMARK    3  A    between atoms: O_6  and  C_7
REMARK    4  A    between atoms: C_7  and  C_8
REMARK    5  A    between atoms: C_18  and  C_19
REMARK    6  A    between atoms: C_19  and  C_20
REMARK                            x       y       z     vdW  Elec       q    Type
REMARK                         _______ _______ _______ _____ _____    ______ ____
ROOT
ATOM      1  C   UNL     1       7.236   5.104  14.017  0.00  0.00    +0.000 C 
ATOM      2  C   UNL     1       6.763   4.567  15.349  0.00  0.00    +0.000 C 
ATOM      3  N   UNL     1       5.337   4.128  15.410  0.00  0.00    +0.000 NA
ATOM      4  C   UNL     1       4.846   4.791  16.427  0.00  0.00    +0.000 C 
ATOM      5  C   UNL     1       3.497   4.562  17.025  0.00  0.00    +0.000 C 
ATOM      6  C   UNL     1       2.927   5.687  17.521  0.00  0.00    +0.000 C 
ATOM      7  C   UNL     1       3.635   6.977  17.440  0.00  0.00    +0.000 C 
ATOM      8  C   UNL     1       4.970   6.982  17.244  0.00  0.00    +0.000 C 
ATOM      9  N   UNL     1       5.634   5.789  16.967  0.00  0.00    +0.000 N 
ATOM     10  C   UNL     1       6.999   5.537  16.548  0.00  0.00    +0.000 C 
ENDROOT
BRANCH   5  11
ATOM     11  O   UNL     1       3.147   3.253  17.149  0.00  0.00    +0.000 OA
BRANCH  11  12
ATOM     12  C   UNL     1       3.720   2.476  18.180  0.00  0.00    +0.000 C 
BRANCH  12  13
ATOM     13  C   UNL     1       2.874   2.564  19.433  0.00  0.00    +0.000 A 
ATOM     14  C   UNL     1       3.402   2.393  20.723  0.00  0.00    +0.000 A 
ATOM     15  C   UNL     1       2.586   2.548  21.849  0.00  0.00    +0.000 A 
ATOM     16  C   UNL     1       1.246   2.898  21.706  0.00  0.00    +0.000 A 
ATOM     17  C   UNL     1       0.714   3.073  20.430  0.00  0.00    +0.000 A 
ATOM     18  C   UNL     1       1.515   2.908  19.307  0.00  0.00    +0.000 A 
ENDBRANCH  12  13
ENDBRANCH  11  12
ENDBRANCH   5  11
BRANCH  10  19
ATOM     19  C   UNL     1       7.779   4.655  17.514  0.00  0.00    +0.000 C 
BRANCH  19  20
ATOM     20  C   UNL     1       7.773   5.015  18.991  0.00  0.00    +0.000 C 
ATOM     21  N   UNL     1       7.769   5.314  20.216  0.00  0.00    +0.000 NA
ENDBRANCH  19  20
ENDBRANCH  10  19
TORSDOF 5
ENDMDL
MODEL 3
REMARK VINA RESULT:      -6.8      3.328      5.538
REMARK  Name = 
REMARK  6 active torsions:
REMARK  status: ('A' for Active; 'I' for Inactive)
REMARK    1  A    between atoms: C_1  and  C_2
REMARK    2  A    between atoms: C_5  and  O_6
REMARK    3  A    between atoms: O_6  and  C_7
REMARK    4  A    between atoms: C_7  and  C_8
REMARK    5  A    between atoms: C_18  and  C_19
REMARK    6  A    between atoms: C_19  and  C_20
REMARK                            x       y       z     vdW  Elec       q    Type
REMARK                         _______ _______ _______ _____ _____    ______ ____
ROOT
ATOM      1  C   UNL     1       0.932   2.408  18.290  0.00  0.00    +0.000 C 
ATOM      2  C   UNL     1       1.997   3.304  18.878  0.00  0.00    +0.000 C 
ATOM      3  N   UNL     1       2.022   4.711  18.375  0.00  0.00    +0.000 NA
ATOM      4  C   UNL     1       3.256   4.880  17.973  0.00  0.00    +0.000 C 
ATOM      5  C   UNL     1       3.847   6.187  17.557  0.00  0.00    +0.000 C 
ATOM      6  C   UNL     1       4.785   6.073  16.586  0.00  0.00    +0.000 C 
ATOM      7  C   UNL     1       5.135   4.748  16.042  0.00  0.00    +0.000 C 
ATOM      8  C   UNL     1       4.830   3.644  16.756  0.00  0.00    +0.000 C 
ATOM      9  N   UNL     1       4.058   3.757  17.910  0.00  0.00    +0.000 N 
ATOM     10  C   UNL     1       3.447   2.742  18.747  0.00  0.00    +0.000 C 
ENDROOT
BRANCH   5  11
ATOM     11  O   UNL     1       3.496   7.242  18.342  0.00  0.00    +0.000 OA
BRANCH  11  12
ATOM     12  C   UNL     1       2.597   8.211  17.842  0.00  0.00    +0.000 C 
BRANCH  12  13
ATOM     13  C   UNL     1       1.686   8.699  18.948  0.00  0.00    +0.000 A 
ATOM     14  C   UNL     1       0.748   9.728  18.764  0.00  0.00    +0.000 A 
ATOM     15  C   UNL     1      -0.113  10.097  19.804  0.00  0.00    +0.000 A 
ATOM     16  C   UNL     1      -0.067   9.432  21.027  0.00  0.00    +0.000 A 
ATOM     17  C   UNL     1       0.859   8.408  21.218  0.00  0.00    +0.000 A 
ATOM     18  C   UNL     1       1.725   8.045  20.194  0.00  0.00    +0.000 A 
ENDBRANCH  12  13
ENDBRANCH  11  12
ENDBRANCH   5  11
BRANCH  10  19
ATOM     19  C   UNL     1       3.927   2.776  20.193  0.00  0.00    +0.000 C 
BRANCH  19  20
ATOM     20  C   UNL     1       2.887   2.793  21.301  0.00  0.00    +0.000 C 
ATOM     21  N   UNL     1       2.024   2.805  22.221  0.00  0.00    +0.000 NA
ENDBRANCH  19  20
ENDBRANCH  10  19
TORSDOF 5
ENDMDL
MODEL 4
REMARK VINA RESULT:      -6.8      3.271      5.334
REMARK  Name = 
REMARK  6 active torsions:
REMARK  status: ('A' for Active; 'I' for Inactive)
REMARK    1  A    between atoms: C_1  and  C_2
REMARK    2  A    between atoms: C_5  and  O_6
REMARK    3  A    between atoms: O_6  and  C_7
REMARK    4  A    between atoms: C_7  and  C_8
REMARK    5  A    between atoms: C_18  and  C_19
REMARK    6  A    between atoms: C_19  and  C_20
REMARK                            x       y       z     vdW  Elec       q    Type
REMARK                         _______ _______ _______ _____ _____    ______ ____
ROOT
ATOM      1  C   UNL     1       1.188   2.495  18.172  0.00  0.00    +0.000 C 
ATOM      2  C   UNL     1       2.271   3.396  18.719  0.00  0.00    +0.000 C 
ATOM      3  N   UNL     1       2.259   4.807  18.232  0.00  0.00    +0.000 NA
ATOM      4  C   UNL     1       3.472   4.993  17.774  0.00  0.00    +0.000 C 
ATOM      5  C   UNL     1       4.031   6.310  17.346  0.00  0.00    +0.000 C 
ATOM      6  C   UNL     1       4.924   6.215  16.331  0.00  0.00    +0.000 C 
ATOM      7  C   UNL     1       5.260   4.900  15.757  0.00  0.00    +0.000 C 
ATOM      8  C   UNL     1       4.998   3.785  16.472  0.00  0.00    +0.000 C 
ATOM      9  N   UNL     1       4.280   3.878  17.662  0.00  0.00    +0.000 N 
ATOM     10  C   UNL     1       3.719   2.849  18.515  0.00  0.00    +0.000 C 
ENDROOT
BRANCH   5  11
ATOM     11  O   UNL     1       3.707   7.354  18.158  0.00  0.00    +0.000 OA
BRANCH  11  12
ATOM     12  C   UNL     1       2.705   8.263  17.753  0.00  0.00    +0.000 C 
BRANCH  12  13
ATOM     13  C   UNL     1       1.797   8.595  18.918  0.00  0.00    +0.000 A 
ATOM     14  C   UNL     1       1.818   7.883  20.128  0.00  0.00    +0.000 A 
ATOM     15  C   UNL     1       1.001   8.273  21.195  0.00  0.00    +0.000 A 
ATOM     16  C   UNL     1       0.174   9.387  21.079  0.00  0.00    +0.000 A 
ATOM     17  C   UNL     1       0.148  10.101  19.883  0.00  0.00    +0.000 A 
ATOM     18  C   UNL     1       0.947   9.712  18.815  0.00  0.00    +0.000 A 
ENDBRANCH  12  13
ENDBRANCH  11  12
ENDBRANCH   5  11
BRANCH  10  19
ATOM     19  C   UNL     1       4.265   2.872  19.937  0.00  0.00    +0.000 C 
BRANCH  19  20
ATOM     20  C   UNL     1       3.290   2.703  21.091  0.00  0.00    +0.000 C 
ATOM     21  N   UNL     1       2.482   2.561  22.049  0.00  0.00    +0.000 NA
ENDBRANCH  19  20
ENDBRANCH  10  19
TORSDOF 5
ENDMDL
MODEL 5
REMARK VINA RESULT:      -6.8      2.535      6.250
REMARK  Name = 
REMARK  6 active torsions:
REMARK  status: ('A' for Active; 'I' for Inactive)
REMARK    1  A    between atoms: C_1  and  C_2
REMARK    2  A    between atoms: C_5  and  O_6
REMARK    3  A    between atoms: O_6  and  C_7
REMARK    4  A    between atoms: C_7  and  C_8
REMARK    5  A    between atoms: C_18  and  C_19
REMARK    6  A    between atoms: C_19  and  C_20
REMARK                            x       y       z     vdW  Elec       q    Type
REMARK                         _______ _______ _______ _____ _____    ______ ____
ROOT
ATOM      1  C   UNL     1       3.487   1.861  18.161  0.00  0.00    +0.000 C 
ATOM      2  C   UNL     1       3.566   3.241  17.551  0.00  0.00    +0.000 C 
ATOM      3  N   UNL     1       4.707   3.482  16.618  0.00  0.00    +0.000 NA
ATOM      4  C   UNL     1       5.288   4.553  17.099  0.00  0.00    +0.000 C 
ATOM      5  C   UNL     1       6.373   5.316  16.415  0.00  0.00    +0.000 C 
ATOM      6  C   UNL     1       7.260   5.880  17.271  0.00  0.00    +0.000 C 
ATOM      7  C   UNL     1       7.100   5.711  18.726  0.00  0.00    +0.000 C 
ATOM      8  C   UNL     1       5.896   5.348  19.216  0.00  0.00    +0.000 C 
ATOM      9  N   UNL     1       4.872   4.989  18.342  0.00  0.00    +0.000 N 
ATOM     10  C   UNL     1       3.571   4.401  18.595  0.00  0.00    +0.000 C 
ENDROOT
BRANCH   5  11
ATOM     11  O   UNL     1       6.191   5.483  15.076  0.00  0.00    +0.000 OA
BRANCH  11  12
ATOM     12  C   UNL     1       7.167   4.999  14.177  0.00  0.00    +0.000 C 
BRANCH  12  13
ATOM     13  C   UNL     1       6.522   4.116  13.131  0.00  0.00    +0.000 A 
ATOM     14  C   UNL     1       7.257   3.255  12.300  0.00  0.00    +0.000 A 
ATOM     15  C   UNL     1       6.603   2.415  11.392  0.00  0.00    +0.000 A 
ATOM     16  C   UNL     1       5.212   2.404  11.318  0.00  0.00    +0.000 A 
ATOM     17  C   UNL     1       4.474   3.253  12.140  0.00  0.00    +0.000 A 
ATOM     18  C   UNL     1       5.117   4.099  13.035  0.00  0.00    +0.000 A 
ENDBRANCH  12  13
ENDBRANCH  11  12
ENDBRANCH   5  11
BRANCH  10  19
ATOM     19  C   UNL     1       2.410   5.261  18.111  0.00  0.00    +0.000 C 
BRANCH  19  20
ATOM     20  C   UNL     1       2.560   6.773  18.155  0.00  0.00    +0.000 C 
ATOM     21  N   UNL     1       2.684   8.028  18.193  0.00  0.00    +0.000 NA
ENDBRANCH  19  20
ENDBRANCH  10  19
TORSDOF 5
ENDMDL
MODEL 6
REMARK VINA RESULT:      -6.7      3.355      4.768
REMARK  Name = 
REMARK  6 active torsions:
REMARK  status: ('A' for Active; 'I' for Inactive)
REMARK    1  A    between atoms: C_1  and  C_2
REMARK    2  A    between atoms: C_5  and  O_6
REMARK    3  A    between atoms: O_6  and  C_7
REMARK    4  A    between atoms: C_7  and  C_8
REMARK    5  A    between atoms: C_18  and  C_19
REMARK    6  A    between atoms: C_19  and  C_20
REMARK                            x       y       z     vdW  Elec       q    Type
REMARK                         _______ _______ _______ _____ _____    ______ ____
ROOT
ATOM      1  C   UNL     1       7.688   4.548  17.775  0.00  0.00    +0.000 C 
ATOM      2  C   UNL     1       6.529   5.195  17.052  0.00  0.00    +0.000 C 
ATOM      3  N   UNL     1       5.647   6.071  17.880  0.00  0.00    +0.000 NA
ATOM      4  C   UNL     1       4.445   5.593  17.674  0.00  0.00    +0.000 C 
ATOM      5  C   UNL     1       3.179   6.239  18.130  0.00  0.00    +0.000 C 
ATOM      6  C   UNL     1       2.203   5.354  18.449  0.00  0.00    +0.000 C 
ATOM      7  C   UNL     1       2.447   3.905  18.332  0.00  0.00    +0.000 C 
ATOM      8  C   UNL     1       3.461   3.471  17.555  0.00  0.00    +0.000 C 
ATOM      9  N   UNL     1       4.354   4.388  17.004  0.00  0.00    +0.000 N 
ATOM     10  C   UNL     1       5.605   4.189  16.299  0.00  0.00    +0.000 C 
ENDROOT
BRANCH   5  11
ATOM     11  O   UNL     1       3.143   7.591  17.968  0.00  0.00    +0.000 OA
BRANCH  11  12
ATOM     12  C   UNL     1       1.907   8.227  17.720  0.00  0.00    +0.000 C 
BRANCH  12  13
ATOM     13  C   UNL     1       1.530   9.112  18.889  0.00  0.00    +0.000 A 
ATOM     14  C   UNL     1       1.255  10.482  18.751  0.00  0.00    +0.000 A 
ATOM     15  C   UNL     1       0.849  11.239  19.856  0.00  0.00    +0.000 A 
ATOM     16  C   UNL     1       0.691  10.638  21.102  0.00  0.00    +0.000 A 
ATOM     17  C   UNL     1       0.960   9.278  21.248  0.00  0.00    +0.000 A 
ATOM     18  C   UNL     1       1.375   8.523  20.158  0.00  0.00    +0.000 A 
ENDBRANCH  12  13
ENDBRANCH  11  12
ENDBRANCH   5  11
BRANCH  10  19
ATOM     19  C   UNL     1       5.605   4.761  14.887  0.00  0.00    +0.000 C 
BRANCH  19  20
ATOM     20  C   UNL     1       6.935   5.149  14.262  0.00  0.00    +0.000 C 
ATOM     21  N   UNL     1       8.040   5.471  13.745  0.00  0.00    +0.000 NA
ENDBRANCH  19  20
ENDBRANCH  10  19
TORSDOF 5
ENDMDL
MODEL 7
REMARK VINA RESULT:      -6.7      3.235      4.755
REMARK  Name = 
REMARK  6 active torsions:
REMARK  status: ('A' for Active; 'I' for Inactive)
REMARK    1  A    between atoms: C_1  and  C_2
REMARK    2  A    between atoms: C_5  and  O_6
REMARK    3  A    between atoms: O_6  and  C_7
REMARK    4  A    between atoms: C_7  and  C_8
REMARK    5  A    between atoms: C_18  and  C_19
REMARK    6  A    between atoms: C_19  and  C_20
REMARK                            x       y       z     vdW  Elec       q    Type
REMARK                         _______ _______ _______ _____ _____    ______ ____
ROOT
ATOM      1  C   UNL     1       7.362   4.893  17.984  0.00  0.00    +0.000 C 
ATOM      2  C   UNL     1       6.132   5.200  17.162  0.00  0.00    +0.000 C 
ATOM      3  N   UNL     1       5.035   5.926  17.868  0.00  0.00    +0.000 NA
ATOM      4  C   UNL     1       3.980   5.176  17.669  0.00  0.00    +0.000 C 
ATOM      5  C   UNL     1       2.580   5.561  18.014  0.00  0.00    +0.000 C 
ATOM      6  C   UNL     1       1.806   4.512  18.384  0.00  0.00    +0.000 C 
ATOM      7  C   UNL     1       2.366   3.149  18.417  0.00  0.00    +0.000 C 
ATOM      8  C   UNL     1       3.493   2.886  17.722  0.00  0.00    +0.000 C 
ATOM      9  N   UNL     1       4.193   3.927  17.116  0.00  0.00    +0.000 N 
ATOM     10  C   UNL     1       5.494   3.951  16.478  0.00  0.00    +0.000 C 
ENDROOT
BRANCH   5  11
ATOM     11  O   UNL     1       2.259   6.851  17.720  0.00  0.00    +0.000 OA
BRANCH  11  12
ATOM     12  C   UNL     1       2.669   7.884  18.591  0.00  0.00    +0.000 C 
BRANCH  12  13
ATOM     13  C   UNL     1       1.477   8.712  19.020  0.00  0.00    +0.000 A 
ATOM     14  C   UNL     1       1.034   8.780  20.350  0.00  0.00    +0.000 A 
ATOM     15  C   UNL     1      -0.035   9.611  20.701  0.00  0.00    +0.000 A 
ATOM     16  C   UNL     1      -0.659  10.401  19.738  0.00  0.00    +0.000 A 
ATOM     17  C   UNL     1      -0.225  10.343  18.415  0.00  0.00    +0.000 A 
ATOM     18  C   UNL     1       0.828   9.510  18.058  0.00  0.00    +0.000 A 
ENDBRANCH  12  13
ENDBRANCH  11  12
ENDBRANCH   5  11
BRANCH  10  19
ATOM     19  C   UNL     1       5.448   4.384  15.018  0.00  0.00    +0.000 C 
BRANCH  19  20
ATOM     20  C   UNL     1       6.707   4.961  14.392  0.00  0.00    +0.000 C 
ATOM     21  N   UNL     1       7.752   5.441  13.872  0.00  0.00    +0.000 NA
ENDBRANCH  19  20
ENDBRANCH  10  19
TORSDOF 5
ENDMDL
MODEL 8
REMARK VINA RESULT:      -6.6      1.851      2.954
REMARK  Name = 
REMARK  6 active torsions:
REMARK  status: ('A' for Active; 'I' for Inactive)
REMARK    1  A    between atoms: C_1  and  C_2
REMARK    2  A    between atoms: C_5  and  O_6
REMARK    3  A    between atoms: O_6  and  C_7
REMARK    4  A    between atoms: C_7  and  C_8
REMARK    5  A    between atoms: C_18  and  C_19
REMARK    6  A    between atoms: C_19  and  C_20
REMARK                            x       y       z     vdW  Elec       q    Type
REMARK                         _______ _______ _______ _____ _____    ______ ____
ROOT
ATOM      1  C   UNL     1       7.254   5.070  14.025  0.00  0.00    +0.000 C 
ATOM      2  C   UNL     1       6.763   4.577  15.366  0.00  0.00    +0.000 C 
ATOM      3  N   UNL     1       5.317   4.209  15.441  0.00  0.00    +0.000 NA
ATOM      4  C   UNL     1       4.865   4.910  16.450  0.00  0.00    +0.000 C 
ATOM      5  C   UNL     1       3.510   4.756  17.057  0.00  0.00    +0.000 C 
ATOM      6  C   UNL     1       2.998   5.915  17.539  0.00  0.00    +0.000 C 
ATOM      7  C   UNL     1       3.767   7.168  17.435  0.00  0.00    +0.000 C 
ATOM      8  C   UNL     1       5.099   7.105  17.232  0.00  0.00    +0.000 C 
ATOM      9  N   UNL     1       5.704   5.877  16.971  0.00  0.00    +0.000 N 
ATOM     10  C   UNL     1       7.052   5.553  16.549  0.00  0.00    +0.000 C 
ENDROOT
BRANCH   5  11
ATOM     11  O   UNL     1       3.097   3.467  17.203  0.00  0.00    +0.000 OA
BRANCH  11  12
ATOM     12  C   UNL     1       1.834   3.203  17.778  0.00  0.00    +0.000 C 
BRANCH  12  13
ATOM     13  C   UNL     1       1.967   3.021  19.274  0.00  0.00    +0.000 A 
ATOM     14  C   UNL     1       0.884   3.147  20.158  0.00  0.00    +0.000 A 
ATOM     15  C   UNL     1       1.051   2.905  21.526  0.00  0.00    +0.000 A 
ATOM     16  C   UNL     1       2.291   2.512  22.025  0.00  0.00    +0.000 A 
ATOM     17  C   UNL     1       3.372   2.382  21.156  0.00  0.00    +0.000 A 
ATOM     18  C   UNL     1       3.215   2.633  19.799  0.00  0.00    +0.000 A 
ENDBRANCH  12  13
ENDBRANCH  11  12
ENDBRANCH   5  11
BRANCH  10  19
ATOM     19  C   UNL     1       7.794   4.649  17.525  0.00  0.00    +0.000 C 
BRANCH  19  20
ATOM     20  C   UNL     1       7.797   5.020  18.999  0.00  0.00    +0.000 C 
ATOM     21  N   UNL     1       7.798   5.330  20.222  0.00  0.00    +0.000 NA
ENDBRANCH  19  20
ENDBRANCH  10  19
TORSDOF 5
ENDMDL
MODEL 9
REMARK VINA RESULT:      -6.6      3.165      4.724
REMARK  Name = 
REMARK  6 active torsions:
REMARK  status: ('A' for Active; 'I' for Inactive)
REMARK    1  A    between atoms: C_1  and  C_2
REMARK    2  A    between atoms: C_5  and  O_6
REMARK    3  A    between atoms: O_6  and  C_7
REMARK    4  A    between atoms: C_7  and  C_8
REMARK    5  A    between atoms: C_18  and  C_19
REMARK    6  A    between atoms: C_19  and  C_20
REMARK                            x       y       z     vdW  Elec       q    Type
REMARK                         _______ _______ _______ _____ _____    ______ ____
ROOT
ATOM      1  C   UNL     1       7.581   4.694  18.093  0.00  0.00    +0.000 C 
ATOM      2  C   UNL     1       6.282   5.109  17.440  0.00  0.00    +0.000 C 
ATOM      3  N   UNL     1       5.218   5.614  18.358  0.00  0.00    +0.000 NA
ATOM      4  C   UNL     1       4.177   4.872  18.072  0.00  0.00    +0.000 C 
ATOM      5  C   UNL     1       2.795   5.106  18.585  0.00  0.00    +0.000 C 
ATOM      6  C   UNL     1       2.086   3.966  18.770  0.00  0.00    +0.000 C 
ATOM      7  C   UNL     1       2.692   2.657  18.472  0.00  0.00    +0.000 C 
ATOM      8  C   UNL     1       3.771   2.602  17.663  0.00  0.00    +0.000 C 
ATOM      9  N   UNL     1       4.388   3.781  17.250  0.00  0.00    +0.000 N 
ATOM     10  C   UNL     1       5.636   4.004  16.547  0.00  0.00    +0.000 C 
ENDROOT
BRANCH   5  11
ATOM     11  O   UNL     1       2.409   6.412  18.598  0.00  0.00    +0.000 OA
BRANCH  11  12
ATOM     12  C   UNL     1       2.203   7.062  19.835  0.00  0.00    +0.000 C 
BRANCH  12  13
ATOM     13  C   UNL     1       1.589   8.428  19.612  0.00  0.00    +0.000 A 
ATOM     14  C   UNL     1       1.632   9.091  18.376  0.00  0.00    +0.000 A 
ATOM     15  C   UNL     1       0.993  10.325  18.209  0.00  0.00    +0.000 A 
ATOM     16  C   UNL     1       0.284  10.899  19.262  0.00  0.00    +0.000 A 
ATOM     17  C   UNL     1       0.233  10.247  20.492  0.00  0.00    +0.000 A 
ATOM     18  C   UNL     1       0.876   9.028  20.668  0.00  0.00    +0.000 A 
ENDBRANCH  12  13
ENDBRANCH  11  12
ENDBRANCH   5  11
BRANCH  10  19
ATOM     19  C   UNL     1       5.466   4.734  15.221  0.00  0.00    +0.000 C 
BRANCH  19  20
ATOM     20  C   UNL     1       6.711   5.116  14.438  0.00  0.00    +0.000 C 
ATOM     21  N   UNL     1       7.745   5.433  13.789  0.00  0.00    +0.000 NA
ENDBRANCH  19  20
ENDBRANCH  10  19
TORSDOF 5
ENDMDL
