MODEL 1
REMARK VINA RESULT:      -7.6      0.000      0.000
REMARK  Name = 
REMARK  15 active torsions:
REMARK  status: ('A' for Active; 'I' for Inactive)
REMARK    1  A    between atoms: C_1  and  O_2
REMARK    2  A    between atoms: O_2  and  C_3
REMARK    3  A    between atoms: C_5  and  N_6
REMARK    4  A    between atoms: N_6  and  C_7
REMARK    5  A    between atoms: C_7  and  N_9
REMARK    6  A    between atoms: C_10  and  C_12
REMARK    7  A    between atoms: C_15  and  C_16
REMARK    8  A    between atoms: C_16  and  C_17
REMARK    9  A    between atoms: C_16  and  C_18
REMARK   10  A    between atoms: C_16  and  C_19
REMARK   11  A    between atoms: C_24  and  N_25
REMARK   12  A    between atoms: C_26  and  C_28
REMARK   13  A    between atoms: C_28  and  C_29
REMARK   14  A    between atoms: C_29  and  C_30
REMARK   15  A    between atoms: C_30  and  O_32
REMARK                            x       y       z     vdW  Elec       q    Type
REMARK                         _______ _______ _______ _____ _____    ______ ____
ROOT
ATOM      1  C   UNL     1       2.673   7.214  18.295  0.00  0.00    +0.000 A 
ATOM      2  C   UNL     1       2.336   8.475  17.761  0.00  0.00    +0.000 A 
ATOM      3  C   UNL     1       1.617   9.403  18.522  0.00  0.00    +0.000 A 
ATOM      4  C   UNL     1       1.153   9.023  19.769  0.00  0.00    +0.000 A 
ATOM      5  C   UNL     1       1.531   7.807  20.327  0.00  0.00    +0.000 A 
ATOM      6  C   UNL     1       2.324   6.901  19.622  0.00  0.00    +0.000 A 
ENDROOT
BRANCH   6   7
ATOM      7  N   UNL     1       2.803   5.715  20.238  0.00  0.00    +0.000 N 
ATOM      8  C   UNL     1       2.032   4.599  20.518  0.00  0.00    +0.000 C 
ATOM      9  O   UNL     1       0.887   4.399  20.115  0.00  0.00    +0.000 OA
ATOM     10  H   UNL     1       3.799   5.698  20.427  0.00  0.00    +0.000 HD
BRANCH   8  11
ATOM     11  C   UNL     1       2.691   3.571  21.411  0.00  0.00    +0.000 C 
BRANCH  11  12
ATOM     12  C   UNL     1       3.117   2.382  20.547  0.00  0.00    +0.000 C 
BRANCH  12  13
ATOM     13  C   UNL     1       4.522   2.512  20.038  0.00  0.00    +0.000 C 
ATOM     14  O   UNL     1       4.991   3.506  19.504  0.00  0.00    +0.000 OA
BRANCH  13  15
ATOM     15  O   UNL     1       5.242   1.379  20.229  0.00  0.00    +0.000 OA
ATOM     16  H   UNL     1       4.788   0.571  19.914  0.00  0.00    +0.000 HD
ENDBRANCH  13  15
ENDBRANCH  12  13
ENDBRANCH  11  12
ENDBRANCH   8  11
ENDBRANCH   6   7
BRANCH   1  18
ATOM     17  C   UNL     1       4.560   6.721  16.963  0.00  0.00    +0.000 C 
ATOM     18  O   UNL     1       3.343   6.257  17.566  0.00  0.00    +0.000 OA
ENDBRANCH   1  18
BRANCH   3  19
ATOM     19  N   UNL     1       1.388  10.680  17.975  0.00  0.00    +0.000 N 
ATOM     20  H   UNL     1       1.290  10.718  16.958  0.00  0.00    +0.000 HD
BRANCH  19  21
ATOM     21  C   UNL     1       1.431  11.921  18.573  0.00  0.00    +0.000 C 
ATOM     22  S   UNL     1       2.521  13.178  18.385  0.00  0.00    +0.000 S 
BRANCH  21  23
ATOM     23  N   UNL     1       0.382  12.195  19.424  0.00  0.00    +0.000 N 
ATOM     24  C   UNL     1       0.339  12.155  20.803  0.00  0.00    +0.000 C 
ATOM     25  O   UNL     1       1.303  11.947  21.527  0.00  0.00    +0.000 OA
ATOM     26  H   UNL     1      -0.463  12.442  18.923  0.00  0.00    +0.000 HD
BRANCH  24  27
ATOM     27  C   UNL     1      -1.002  12.414  21.379  0.00  0.00    +0.000 A 
ATOM     28  C   UNL     1      -2.030  12.923  20.584  0.00  0.00    +0.000 A 
ATOM     29  C   UNL     1      -3.280  13.189  21.150  0.00  0.00    +0.000 A 
ATOM     30  C   UNL     1      -3.531  12.950  22.512  0.00  0.00    +0.000 A 
ATOM     31  C   UNL     1      -2.476  12.423  23.286  0.00  0.00    +0.000 A 
ATOM     32  C   UNL     1      -1.227  12.149  22.726  0.00  0.00    +0.000 A 
BRANCH  30  33
ATOM     33  C   UNL     1      -4.905  13.219  23.150  0.00  0.00    +0.000 C 
ATOM     34  C   UNL     1      -5.134  12.437  24.464  0.00  0.00    +0.000 C 
ATOM     35  C   UNL     1      -5.036  14.721  23.482  0.00  0.00    +0.000 C 
ATOM     36  C   UNL     1      -6.034  12.816  22.179  0.00  0.00    +0.000 C 
ENDBRANCH  30  33
ENDBRANCH  24  27
ENDBRANCH  21  23
ENDBRANCH  19  21
ENDBRANCH   3  19
TORSDOF 11
ENDMDL
MODEL 2
REMARK VINA RESULT:      -7.4      1.747      2.469
REMARK  Name = 
REMARK  15 active torsions:
REMARK  status: ('A' for Active; 'I' for Inactive)
REMARK    1  A    between atoms: C_1  and  O_2
REMARK    2  A    between atoms: O_2  and  C_3
REMARK    3  A    between atoms: C_5  and  N_6
REMARK    4  A    between atoms: N_6  and  C_7
REMARK    5  A    between atoms: C_7  and  N_9
REMARK    6  A    between atoms: C_10  and  C_12
REMARK    7  A    between atoms: C_15  and  C_16
REMARK    8  A    between atoms: C_16  and  C_17
REMARK    9  A    between atoms: C_16  and  C_18
REMARK   10  A    between atoms: C_16  and  C_19
REMARK   11  A    between atoms: C_24  and  N_25
REMARK   12  A    between atoms: C_26  and  C_28
REMARK   13  A    between atoms: C_28  and  C_29
REMARK   14  A    between atoms: C_29  and  C_30
REMARK   15  A    between atoms: C_30  and  O_32
REMARK                            x       y       z     vdW  Elec       q    Type
REMARK                         _______ _______ _______ _____ _____    ______ ____
ROOT
ATOM      1  C   UNL     1       2.231   6.452  20.049  0.00  0.00    +0.000 A 
ATOM      2  C   UNL     1       1.571   7.516  20.698  0.00  0.00    +0.000 A 
ATOM      3  C   UNL     1       1.295   8.706  20.017  0.00  0.00    +0.000 A 
ATOM      4  C   UNL     1       1.773   8.860  18.728  0.00  0.00    +0.000 A 
ATOM      5  C   UNL     1       2.369   7.797  18.059  0.00  0.00    +0.000 A 
ATOM      6  C   UNL     1       2.575   6.569  18.689  0.00  0.00    +0.000 A 
ENDROOT
BRANCH   6   7
ATOM      7  N   UNL     1       3.076   5.453  17.968  0.00  0.00    +0.000 N 
ATOM      8  C   UNL     1       2.303   4.417  17.471  0.00  0.00    +0.000 C 
ATOM      9  O   UNL     1       1.074   4.401  17.417  0.00  0.00    +0.000 OA
ATOM     10  H   UNL     1       4.072   5.474  17.777  0.00  0.00    +0.000 HD
BRANCH   8  11
ATOM     11  C   UNL     1       3.080   3.216  16.976  0.00  0.00    +0.000 C 
BRANCH  11  12
ATOM     12  C   UNL     1       2.713   2.012  17.846  0.00  0.00    +0.000 C 
BRANCH  12  13
ATOM     13  C   UNL     1       3.766   1.692  18.864  0.00  0.00    +0.000 C 
ATOM     14  O   UNL     1       4.029   2.370  19.847  0.00  0.00    +0.000 OA
BRANCH  13  15
ATOM     15  O   UNL     1       4.426   0.544  18.574  0.00  0.00    +0.000 OA
ATOM     16  H   UNL     1       4.986   0.607  17.775  0.00  0.00    +0.000 HD
ENDBRANCH  13  15
ENDBRANCH  12  13
ENDBRANCH  11  12
ENDBRANCH   8  11
ENDBRANCH   6   7
BRANCH   1  18
ATOM     17  C   UNL     1       1.450   4.392  20.899  0.00  0.00    +0.000 C 
ATOM     18  O   UNL     1       2.558   5.280  20.693  0.00  0.00    +0.000 OA
ENDBRANCH   1  18
BRANCH   3  19
ATOM     19  N   UNL     1       0.553   9.700  20.683  0.00  0.00    +0.000 N 
ATOM     20  H   UNL     1       0.021   9.387  21.499  0.00  0.00    +0.000 HD
BRANCH  19  21
ATOM     21  C   UNL     1       0.297  11.005  20.324  0.00  0.00    +0.000 C 
ATOM     22  S   UNL     1       1.155  12.043  19.329  0.00  0.00    +0.000 S 
BRANCH  21  23
ATOM     23  N   UNL     1      -0.879  11.527  20.818  0.00  0.00    +0.000 N 
ATOM     24  C   UNL     1      -1.219  11.843  22.118  0.00  0.00    +0.000 C 
ATOM     25  O   UNL     1      -0.456  11.792  23.073  0.00  0.00    +0.000 OA
ATOM     26  H   UNL     1      -1.571  11.669  20.092  0.00  0.00    +0.000 HD
BRANCH  24  27
ATOM     27  C   UNL     1      -2.622  12.290  22.290  0.00  0.00    +0.000 A 
ATOM     28  C   UNL     1      -3.380  12.689  21.188  0.00  0.00    +0.000 A 
ATOM     29  C   UNL     1      -4.691  13.136  21.371  0.00  0.00    +0.000 A 
ATOM     30  C   UNL     1      -5.273  13.189  22.649  0.00  0.00    +0.000 A 
ATOM     31  C   UNL     1      -4.485  12.768  23.742  0.00  0.00    +0.000 A 
ATOM     32  C   UNL     1      -3.178  12.314  23.565  0.00  0.00    +0.000 A 
BRANCH  30  33
ATOM     33  C   UNL     1      -6.721  13.660  22.871  0.00  0.00    +0.000 C 
ATOM     34  C   UNL     1      -7.634  12.571  23.478  0.00  0.00    +0.000 C 
ATOM     35  C   UNL     1      -6.731  14.861  23.841  0.00  0.00    +0.000 C 
ATOM     36  C   UNL     1      -7.354  14.090  21.530  0.00  0.00    +0.000 C 
ENDBRANCH  30  33
ENDBRANCH  24  27
ENDBRANCH  21  23
ENDBRANCH  19  21
ENDBRANCH   3  19
TORSDOF 11
ENDMDL
MODEL 3
REMARK VINA RESULT:      -7.4      3.939      6.055
REMARK  Name = 
REMARK  15 active torsions:
REMARK  status: ('A' for Active; 'I' for Inactive)
REMARK    1  A    between atoms: C_1  and  O_2
REMARK    2  A    between atoms: O_2  and  C_3
REMARK    3  A    between atoms: C_5  and  N_6
REMARK    4  A    between atoms: N_6  and  C_7
REMARK    5  A    between atoms: C_7  and  N_9
REMARK    6  A    between atoms: C_10  and  C_12
REMARK    7  A    between atoms: C_15  and  C_16
REMARK    8  A    between atoms: C_16  and  C_17
REMARK    9  A    between atoms: C_16  and  C_18
REMARK   10  A    between atoms: C_16  and  C_19
REMARK   11  A    between atoms: C_24  and  N_25
REMARK   12  A    between atoms: C_26  and  C_28
REMARK   13  A    between atoms: C_28  and  C_29
REMARK   14  A    between atoms: C_29  and  C_30
REMARK   15  A    between atoms: C_30  and  O_32
REMARK                            x       y       z     vdW  Elec       q    Type
REMARK                         _______ _______ _______ _____ _____    ______ ____
ROOT
ATOM      1  C   UNL     1       6.249   5.191  17.951  0.00  0.00    +0.000 A 
ATOM      2  C   UNL     1       5.469   5.431  19.101  0.00  0.00    +0.000 A 
ATOM      3  C   UNL     1       4.140   5.000  19.165  0.00  0.00    +0.000 A 
ATOM      4  C   UNL     1       3.573   4.427  18.040  0.00  0.00    +0.000 A 
ATOM      5  C   UNL     1       4.348   4.131  16.926  0.00  0.00    +0.000 A 
ATOM      6  C   UNL     1       5.701   4.470  16.873  0.00  0.00    +0.000 A 
ENDROOT
BRANCH   6   7
ATOM      7  N   UNL     1       6.515   4.062  15.784  0.00  0.00    +0.000 N 
ATOM      8  C   UNL     1       6.624   4.736  14.579  0.00  0.00    +0.000 C 
ATOM      9  O   UNL     1       6.186   5.863  14.345  0.00  0.00    +0.000 OA
ATOM     10  H   UNL     1       7.085   3.241  15.953  0.00  0.00    +0.000 HD
BRANCH   8  11
ATOM     11  C   UNL     1       7.335   3.978  13.480  0.00  0.00    +0.000 C 
BRANCH  11  12
ATOM     12  C   UNL     1       6.503   4.088  12.200  0.00  0.00    +0.000 C 
BRANCH  12  13
ATOM     13  C   UNL     1       6.030   2.755  11.703  0.00  0.00    +0.000 C 
ATOM     14  O   UNL     1       4.870   2.468  11.446  0.00  0.00    +0.000 OA
BRANCH  13  15
ATOM     15  O   UNL     1       7.047   1.869  11.567  0.00  0.00    +0.000 OA
ATOM     16  H   UNL     1       6.754   0.980  11.281  0.00  0.00    +0.000 HD
ENDBRANCH  13  15
ENDBRANCH  12  13
ENDBRANCH  11  12
ENDBRANCH   8  11
ENDBRANCH   6   7
BRANCH   1  18
ATOM     17  C   UNL     1       8.201   5.887  19.083  0.00  0.00    +0.000 C 
ATOM     18  O   UNL     1       7.548   5.633  17.831  0.00  0.00    +0.000 OA
ENDBRANCH   1  18
BRANCH   3  19
ATOM     19  N   UNL     1       3.436   5.184  20.370  0.00  0.00    +0.000 N 
ATOM     20  H   UNL     1       4.008   5.245  21.216  0.00  0.00    +0.000 HD
BRANCH  19  21
ATOM     21  C   UNL     1       2.082   5.138  20.621  0.00  0.00    +0.000 C 
ATOM     22  S   UNL     1       1.066   3.827  20.853  0.00  0.00    +0.000 S 
BRANCH  21  23
ATOM     23  N   UNL     1       1.471   6.367  20.755  0.00  0.00    +0.000 N 
ATOM     24  C   UNL     1       1.752   7.559  20.118  0.00  0.00    +0.000 C 
ATOM     25  O   UNL     1       2.573   7.696  19.221  0.00  0.00    +0.000 OA
ATOM     26  H   UNL     1       0.724   6.352  21.439  0.00  0.00    +0.000 HD
BRANCH  24  27
ATOM     27  C   UNL     1       0.947   8.709  20.594  0.00  0.00    +0.000 A 
ATOM     28  C   UNL     1       0.584   9.732  19.718  0.00  0.00    +0.000 A 
ATOM     29  C   UNL     1      -0.150  10.823  20.189  0.00  0.00    +0.000 A 
ATOM     30  C   UNL     1      -0.540  10.914  21.536  0.00  0.00    +0.000 A 
ATOM     31  C   UNL     1      -0.169   9.858  22.395  0.00  0.00    +0.000 A 
ATOM     32  C   UNL     1       0.559   8.762  21.929  0.00  0.00    +0.000 A 
BRANCH  30  33
ATOM     33  C   UNL     1      -1.364  12.098  22.071  0.00  0.00    +0.000 C 
ATOM     34  C   UNL     1      -0.507  13.340  22.408  0.00  0.00    +0.000 C 
ATOM     35  C   UNL     1      -2.400  12.530  21.010  0.00  0.00    +0.000 C 
ATOM     36  C   UNL     1      -2.105  11.694  23.363  0.00  0.00    +0.000 C 
ENDBRANCH  30  33
ENDBRANCH  24  27
ENDBRANCH  21  23
ENDBRANCH  19  21
ENDBRANCH   3  19
TORSDOF 11
ENDMDL
MODEL 4
REMARK VINA RESULT:      -7.3      1.265      1.858
REMARK  Name = 
REMARK  15 active torsions:
REMARK  status: ('A' for Active; 'I' for Inactive)
REMARK    1  A    between atoms: C_1  and  O_2
REMARK    2  A    between atoms: O_2  and  C_3
REMARK    3  A    between atoms: C_5  and  N_6
REMARK    4  A    between atoms: N_6  and  C_7
REMARK    5  A    between atoms: C_7  and  N_9
REMARK    6  A    between atoms: C_10  and  C_12
REMARK    7  A    between atoms: C_15  and  C_16
REMARK    8  A    between atoms: C_16  and  C_17
REMARK    9  A    between atoms: C_16  and  C_18
REMARK   10  A    between atoms: C_16  and  C_19
REMARK   11  A    between atoms: C_24  and  N_25
REMARK   12  A    between atoms: C_26  and  C_28
REMARK   13  A    between atoms: C_28  and  C_29
REMARK   14  A    between atoms: C_29  and  C_30
REMARK   15  A    between atoms: C_30  and  O_32
REMARK                            x       y       z     vdW  Elec       q    Type
REMARK                         _______ _______ _______ _____ _____    ______ ____
ROOT
ATOM      1  C   UNL     1       2.244   7.355  18.803  0.00  0.00    +0.000 A 
ATOM      2  C   UNL     1       1.860   8.679  18.505  0.00  0.00    +0.000 A 
ATOM      3  C   UNL     1       1.223   9.471  19.466  0.00  0.00    +0.000 A 
ATOM      4  C   UNL     1       0.881   8.898  20.679  0.00  0.00    +0.000 A 
ATOM      5  C   UNL     1       1.309   7.616  21.004  0.00  0.00    +0.000 A 
ATOM      6  C   UNL     1       2.027   6.838  20.094  0.00  0.00    +0.000 A 
ENDROOT
BRANCH   6   7
ATOM      7  N   UNL     1       2.560   5.578  20.471  0.00  0.00    +0.000 N 
ATOM      8  C   UNL     1       1.830   4.406  20.577  0.00  0.00    +0.000 C 
ATOM      9  O   UNL     1       0.673   4.244  20.189  0.00  0.00    +0.000 OA
ATOM     10  H   UNL     1       3.564   5.560  20.617  0.00  0.00    +0.000 HD
BRANCH   8  11
ATOM     11  C   UNL     1       2.550   3.258  21.248  0.00  0.00    +0.000 C 
BRANCH  11  12
ATOM     12  C   UNL     1       3.591   2.705  20.273  0.00  0.00    +0.000 C 
BRANCH  12  13
ATOM     13  C   UNL     1       3.007   2.370  18.933  0.00  0.00    +0.000 C 
ATOM     14  O   UNL     1       3.410   2.795  17.860  0.00  0.00    +0.000 OA
BRANCH  13  15
ATOM     15  O   UNL     1       1.949   1.529  19.031  0.00  0.00    +0.000 OA
ATOM     16  H   UNL     1       1.926   0.847  18.330  0.00  0.00    +0.000 HD
ENDBRANCH  13  15
ENDBRANCH  12  13
ENDBRANCH  11  12
ENDBRANCH   8  11
ENDBRANCH   6   7
BRANCH   1  18
ATOM     17  C   UNL     1       4.134   6.965  17.442  0.00  0.00    +0.000 C 
ATOM     18  O   UNL     1       2.837   6.529  17.874  0.00  0.00    +0.000 OA
ENDBRANCH   1  18
BRANCH   3  19
ATOM     19  N   UNL     1       0.944  10.813  19.147  0.00  0.00    +0.000 N 
ATOM     20  H   UNL     1       0.873  11.029  18.150  0.00  0.00    +0.000 HD
BRANCH  19  21
ATOM     21  C   UNL     1       0.907  11.927  19.957  0.00  0.00    +0.000 C 
ATOM     22  S   UNL     1       2.103  13.039  20.327  0.00  0.00    +0.000 S 
BRANCH  21  23
ATOM     23  N   UNL     1      -0.324  12.203  20.513  0.00  0.00    +0.000 N 
ATOM     24  C   UNL     1      -0.778  11.971  21.796  0.00  0.00    +0.000 C 
ATOM     25  O   UNL     1      -0.091  11.545  22.714  0.00  0.00    +0.000 OA
ATOM     26  H   UNL     1      -0.961  12.622  19.846  0.00  0.00    +0.000 HD
BRANCH  24  27
ATOM     27  C   UNL     1      -2.206  12.308  22.007  0.00  0.00    +0.000 A 
ATOM     28  C   UNL     1      -2.761  12.275  23.287  0.00  0.00    +0.000 A 
ATOM     29  C   UNL     1      -4.116  12.567  23.465  0.00  0.00    +0.000 A 
ATOM     30  C   UNL     1      -4.940  12.901  22.377  0.00  0.00    +0.000 A 
ATOM     31  C   UNL     1      -4.347  12.938  21.097  0.00  0.00    +0.000 A 
ATOM     32  C   UNL     1      -2.993  12.655  20.914  0.00  0.00    +0.000 A 
BRANCH  30  33
ATOM     33  C   UNL     1      -6.430  13.243  22.554  0.00  0.00    +0.000 C 
ATOM     34  C   UNL     1      -6.775  14.698  22.160  0.00  0.00    +0.000 C 
ATOM     35  C   UNL     1      -7.283  12.312  21.665  0.00  0.00    +0.000 C 
ATOM     36  C   UNL     1      -6.850  13.058  24.027  0.00  0.00    +0.000 C 
ENDBRANCH  30  33
ENDBRANCH  24  27
ENDBRANCH  21  23
ENDBRANCH  19  21
ENDBRANCH   3  19
TORSDOF 11
ENDMDL
MODEL 5
REMARK VINA RESULT:      -7.3      4.762      8.072
REMARK  Name = 
REMARK  15 active torsions:
REMARK  status: ('A' for Active; 'I' for Inactive)
REMARK    1  A    between atoms: C_1  and  O_2
REMARK    2  A    between atoms: O_2  and  C_3
REMARK    3  A    between atoms: C_5  and  N_6
REMARK    4  A    between atoms: N_6  and  C_7
REMARK    5  A    between atoms: C_7  and  N_9
REMARK    6  A    between atoms: C_10  and  C_12
REMARK    7  A    between atoms: C_15  and  C_16
REMARK    8  A    between atoms: C_16  and  C_17
REMARK    9  A    between atoms: C_16  and  C_18
REMARK   10  A    between atoms: C_16  and  C_19
REMARK   11  A    between atoms: C_24  and  N_25
REMARK   12  A    between atoms: C_26  and  C_28
REMARK   13  A    between atoms: C_28  and  C_29
REMARK   14  A    between atoms: C_29  and  C_30
REMARK   15  A    between atoms: C_30  and  O_32
REMARK                            x       y       z     vdW  Elec       q    Type
REMARK                         _______ _______ _______ _____ _____    ______ ____
ROOT
ATOM      1  C   UNL     1       6.478   6.819  17.084  0.00  0.00    +0.000 A 
ATOM      2  C   UNL     1       5.902   5.626  17.566  0.00  0.00    +0.000 A 
ATOM      3  C   UNL     1       6.418   4.991  18.700  0.00  0.00    +0.000 A 
ATOM      4  C   UNL     1       7.568   5.497  19.279  0.00  0.00    +0.000 A 
ATOM      5  C   UNL     1       8.107   6.704  18.851  0.00  0.00    +0.000 A 
ATOM      6  C   UNL     1       7.555   7.404  17.777  0.00  0.00    +0.000 A 
ENDROOT
BRANCH   6   7
ATOM      7  N   UNL     1       8.036   8.691  17.418  0.00  0.00    +0.000 N 
ATOM      8  C   UNL     1       8.681   9.565  18.277  0.00  0.00    +0.000 C 
ATOM      9  O   UNL     1       9.091   9.290  19.404  0.00  0.00    +0.000 OA
ATOM     10  H   UNL     1       7.928   8.935  16.440  0.00  0.00    +0.000 HD
BRANCH   8  11
ATOM     11  C   UNL     1       8.862  10.970  17.748  0.00  0.00    +0.000 C 
BRANCH  11  12
ATOM     12  C   UNL     1       9.922  11.674  18.597  0.00  0.00    +0.000 C 
BRANCH  12  13
ATOM     13  C   UNL     1      11.098  12.135  17.788  0.00  0.00    +0.000 C 
ATOM     14  O   UNL     1      11.053  12.943  16.872  0.00  0.00    +0.000 OA
BRANCH  13  15
ATOM     15  O   UNL     1      12.252  11.543  18.180  0.00  0.00    +0.000 OA
ATOM     16  H   UNL     1      12.492  11.732  19.109  0.00  0.00    +0.000 HD
ENDBRANCH  13  15
ENDBRANCH  12  13
ENDBRANCH  11  12
ENDBRANCH   8  11
ENDBRANCH   6   7
BRANCH   1  18
ATOM     17  C   UNL     1       5.080   6.693  15.185  0.00  0.00    +0.000 C 
ATOM     18  O   UNL     1       6.027   7.454  15.949  0.00  0.00    +0.000 OA
ENDBRANCH   1  18
BRANCH   3  19
ATOM     19  N   UNL     1       5.748   3.854  19.191  0.00  0.00    +0.000 N 
ATOM     20  H   UNL     1       6.234   2.963  19.069  0.00  0.00    +0.000 HD
BRANCH  19  21
ATOM     21  C   UNL     1       4.464   3.722  19.674  0.00  0.00    +0.000 C 
ATOM     22  S   UNL     1       3.678   2.388  20.311  0.00  0.00    +0.000 S 
BRANCH  21  23
ATOM     23  N   UNL     1       3.722   4.883  19.684  0.00  0.00    +0.000 N 
ATOM     24  C   UNL     1       2.744   5.306  18.806  0.00  0.00    +0.000 C 
ATOM     25  O   UNL     1       2.296   4.638  17.885  0.00  0.00    +0.000 OA
ATOM     26  H   UNL     1       3.973   5.492  20.454  0.00  0.00    +0.000 HD
BRANCH  24  27
ATOM     27  C   UNL     1       2.232   6.670  19.075  0.00  0.00    +0.000 A 
ATOM     28  C   UNL     1       1.744   7.009  20.338  0.00  0.00    +0.000 A 
ATOM     29  C   UNL     1       1.237   8.292  20.566  0.00  0.00    +0.000 A 
ATOM     30  C   UNL     1       1.211   9.259  19.547  0.00  0.00    +0.000 A 
ATOM     31  C   UNL     1       1.723   8.890  18.285  0.00  0.00    +0.000 A 
ATOM     32  C   UNL     1       2.237   7.613  18.053  0.00  0.00    +0.000 A 
BRANCH  30  33
ATOM     33  C   UNL     1       0.674  10.682  19.783  0.00  0.00    +0.000 C 
ATOM     34  C   UNL     1       1.388  11.755  18.929  0.00  0.00    +0.000 C 
ATOM     35  C   UNL     1      -0.827  10.734  19.424  0.00  0.00    +0.000 C 
ATOM     36  C   UNL     1       0.854  11.083  21.262  0.00  0.00    +0.000 C 
ENDBRANCH  30  33
ENDBRANCH  24  27
ENDBRANCH  21  23
ENDBRANCH  19  21
ENDBRANCH   3  19
TORSDOF 11
ENDMDL
MODEL 6
REMARK VINA RESULT:      -7.2      2.550      3.844
REMARK  Name = 
REMARK  15 active torsions:
REMARK  status: ('A' for Active; 'I' for Inactive)
REMARK    1  A    between atoms: C_1  and  O_2
REMARK    2  A    between atoms: O_2  and  C_3
REMARK    3  A    between atoms: C_5  and  N_6
REMARK    4  A    between atoms: N_6  and  C_7
REMARK    5  A    between atoms: C_7  and  N_9
REMARK    6  A    between atoms: C_10  and  C_12
REMARK    7  A    between atoms: C_15  and  C_16
REMARK    8  A    between atoms: C_16  and  C_17
REMARK    9  A    between atoms: C_16  and  C_18
REMARK   10  A    between atoms: C_16  and  C_19
REMARK   11  A    between atoms: C_24  and  N_25
REMARK   12  A    between atoms: C_26  and  C_28
REMARK   13  A    between atoms: C_28  and  C_29
REMARK   14  A    between atoms: C_29  and  C_30
REMARK   15  A    between atoms: C_30  and  O_32
REMARK                            x       y       z     vdW  Elec       q    Type
REMARK                         _______ _______ _______ _____ _____    ______ ____
ROOT
ATOM      1  C   UNL     1       2.506   6.178  19.733  0.00  0.00    +0.000 A 
ATOM      2  C   UNL     1       1.792   7.212  20.374  0.00  0.00    +0.000 A 
ATOM      3  C   UNL     1       1.580   8.437  19.733  0.00  0.00    +0.000 A 
ATOM      4  C   UNL     1       2.173   8.654  18.502  0.00  0.00    +0.000 A 
ATOM      5  C   UNL     1       2.825   7.623  17.836  0.00  0.00    +0.000 A 
ATOM      6  C   UNL     1       2.971   6.362  18.417  0.00  0.00    +0.000 A 
ENDROOT
BRANCH   6   7
ATOM      7  N   UNL     1       3.533   5.282  17.688  0.00  0.00    +0.000 N 
ATOM      8  C   UNL     1       4.872   5.161  17.356  0.00  0.00    +0.000 C 
ATOM      9  O   UNL     1       5.786   5.860  17.792  0.00  0.00    +0.000 OA
ATOM     10  H   UNL     1       2.887   4.536  17.454  0.00  0.00    +0.000 HD
BRANCH   8  11
ATOM     11  C   UNL     1       5.190   4.072  16.355  0.00  0.00    +0.000 C 
BRANCH  11  12
ATOM     12  C   UNL     1       5.644   4.731  15.051  0.00  0.00    +0.000 C 
BRANCH  12  13
ATOM     13  C   UNL     1       7.127   4.941  14.996  0.00  0.00    +0.000 C 
ATOM     14  O   UNL     1       7.729   5.504  14.094  0.00  0.00    +0.000 OA
BRANCH  13  15
ATOM     15  O   UNL     1       7.758   4.423  16.079  0.00  0.00    +0.000 OA
ATOM     16  H   UNL     1       8.429   5.022  16.464  0.00  0.00    +0.000 HD
ENDBRANCH  13  15
ENDBRANCH  12  13
ENDBRANCH  11  12
ENDBRANCH   8  11
ENDBRANCH   6   7
BRANCH   1  18
ATOM     17  C   UNL     1       1.602   4.213  20.681  0.00  0.00    +0.000 C 
ATOM     18  O   UNL     1       2.772   4.973  20.343  0.00  0.00    +0.000 OA
ENDBRANCH   1  18
BRANCH   3  19
ATOM     19  N   UNL     1       0.783   9.400  20.381  0.00  0.00    +0.000 N 
ATOM     20  H   UNL     1       0.804   9.382  21.403  0.00  0.00    +0.000 HD
BRANCH  19  21
ATOM     21  C   UNL     1      -0.151  10.270  19.863  0.00  0.00    +0.000 C 
ATOM     22  S   UNL     1      -0.920  10.275  18.376  0.00  0.00    +0.000 S 
BRANCH  21  23
ATOM     23  N   UNL     1      -0.560  11.267  20.723  0.00  0.00    +0.000 N 
ATOM     24  C   UNL     1      -0.751  11.222  22.089  0.00  0.00    +0.000 C 
ATOM     25  O   UNL     1      -0.486  10.262  22.801  0.00  0.00    +0.000 OA
ATOM     26  H   UNL     1      -0.751  12.136  20.239  0.00  0.00    +0.000 HD
BRANCH  24  27
ATOM     27  C   UNL     1      -1.300  12.470  22.670  0.00  0.00    +0.000 A 
ATOM     28  C   UNL     1      -2.487  12.450  23.402  0.00  0.00    +0.000 A 
ATOM     29  C   UNL     1      -3.006  13.641  23.918  0.00  0.00    +0.000 A 
ATOM     30  C   UNL     1      -2.353  14.869  23.720  0.00  0.00    +0.000 A 
ATOM     31  C   UNL     1      -1.148  14.855  22.985  0.00  0.00    +0.000 A 
ATOM     32  C   UNL     1      -0.621  13.668  22.474  0.00  0.00    +0.000 A 
BRANCH  30  33
ATOM     33  C   UNL     1      -2.897  16.188  24.294  0.00  0.00    +0.000 C 
ATOM     34  C   UNL     1      -4.441  16.239  24.356  0.00  0.00    +0.000 C 
ATOM     35  C   UNL     1      -2.374  16.380  25.735  0.00  0.00    +0.000 C 
ATOM     36  C   UNL     1      -2.438  17.379  23.428  0.00  0.00    +0.000 C 
ENDBRANCH  30  33
ENDBRANCH  24  27
ENDBRANCH  21  23
ENDBRANCH  19  21
ENDBRANCH   3  19
TORSDOF 11
ENDMDL
MODEL 7
REMARK VINA RESULT:      -7.1      4.736      8.091
REMARK  Name = 
REMARK  15 active torsions:
REMARK  status: ('A' for Active; 'I' for Inactive)
REMARK    1  A    between atoms: C_1  and  O_2
REMARK    2  A    between atoms: O_2  and  C_3
REMARK    3  A    between atoms: C_5  and  N_6
REMARK    4  A    between atoms: N_6  and  C_7
REMARK    5  A    between atoms: C_7  and  N_9
REMARK    6  A    between atoms: C_10  and  C_12
REMARK    7  A    between atoms: C_15  and  C_16
REMARK    8  A    between atoms: C_16  and  C_17
REMARK    9  A    between atoms: C_16  and  C_18
REMARK   10  A    between atoms: C_16  and  C_19
REMARK   11  A    between atoms: C_24  and  N_25
REMARK   12  A    between atoms: C_26  and  C_28
REMARK   13  A    between atoms: C_28  and  C_29
REMARK   14  A    between atoms: C_29  and  C_30
REMARK   15  A    between atoms: C_30  and  O_32
REMARK                            x       y       z     vdW  Elec       q    Type
REMARK                         _______ _______ _______ _____ _____    ______ ____
ROOT
ATOM      1  C   UNL     1       6.500   6.801  17.137  0.00  0.00    +0.000 A 
ATOM      2  C   UNL     1       5.930   5.617  17.649  0.00  0.00    +0.000 A 
ATOM      3  C   UNL     1       6.443   5.019  18.804  0.00  0.00    +0.000 A 
ATOM      4  C   UNL     1       7.586   5.551  19.376  0.00  0.00    +0.000 A 
ATOM      5  C   UNL     1       8.119   6.749  18.916  0.00  0.00    +0.000 A 
ATOM      6  C   UNL     1       7.568   7.414  17.819  0.00  0.00    +0.000 A 
ENDROOT
BRANCH   6   7
ATOM      7  N   UNL     1       8.041   8.693  17.426  0.00  0.00    +0.000 N 
ATOM      8  C   UNL     1       8.621   9.621  18.276  0.00  0.00    +0.000 C 
ATOM      9  O   UNL     1       8.974   9.408  19.436  0.00  0.00    +0.000 OA
ATOM     10  H   UNL     1       7.983   8.890  16.433  0.00  0.00    +0.000 HD
BRANCH   8  11
ATOM     11  C   UNL     1       8.801  11.004  17.691  0.00  0.00    +0.000 C 
BRANCH  11  12
ATOM     12  C   UNL     1      10.234  11.463  17.969  0.00  0.00    +0.000 C 
BRANCH  12  13
ATOM     13  C   UNL     1      10.410  12.942  17.798  0.00  0.00    +0.000 C 
ATOM     14  O   UNL     1      11.415  13.574  18.090  0.00  0.00    +0.000 OA
BRANCH  13  15
ATOM     15  O   UNL     1       9.306  13.532  17.276  0.00  0.00    +0.000 OA
ATOM     16  H   UNL     1       9.443  14.469  17.031  0.00  0.00    +0.000 HD
ENDBRANCH  13  15
ENDBRANCH  12  13
ENDBRANCH  11  12
ENDBRANCH   8  11
ENDBRANCH   6   7
BRANCH   1  18
ATOM     17  C   UNL     1       4.967   6.708  15.343  0.00  0.00    +0.000 C 
ATOM     18  O   UNL     1       6.051   7.399  15.981  0.00  0.00    +0.000 OA
ENDBRANCH   1  18
BRANCH   3  19
ATOM     19  N   UNL     1       5.779   3.892  19.324  0.00  0.00    +0.000 N 
ATOM     20  H   UNL     1       6.352   3.053  19.445  0.00  0.00    +0.000 HD
BRANCH  19  21
ATOM     21  C   UNL     1       4.437   3.682  19.553  0.00  0.00    +0.000 C 
ATOM     22  S   UNL     1       3.591   2.260  19.808  0.00  0.00    +0.000 S 
BRANCH  21  23
ATOM     23  N   UNL     1       3.673   4.826  19.637  0.00  0.00    +0.000 N 
ATOM     24  C   UNL     1       2.815   5.378  18.708  0.00  0.00    +0.000 C 
ATOM     25  O   UNL     1       2.513   4.860  17.641  0.00  0.00    +0.000 OA
ATOM     26  H   UNL     1       3.802   5.309  20.519  0.00  0.00    +0.000 HD
BRANCH  24  27
ATOM     27  C   UNL     1       2.238   6.683  19.109  0.00  0.00    +0.000 A 
ATOM     28  C   UNL     1       1.764   6.881  20.405  0.00  0.00    +0.000 A 
ATOM     29  C   UNL     1       1.196   8.109  20.758  0.00  0.00    +0.000 A 
ATOM     30  C   UNL     1       1.096   9.160  19.832  0.00  0.00    +0.000 A 
ATOM     31  C   UNL     1       1.596   8.933  18.532  0.00  0.00    +0.000 A 
ATOM     32  C   UNL     1       2.170   7.712  18.175  0.00  0.00    +0.000 A 
BRANCH  30  33
ATOM     33  C   UNL     1       0.491  10.525  20.205  0.00  0.00    +0.000 C 
ATOM     34  C   UNL     1      -0.883  10.787  19.546  0.00  0.00    +0.000 C 
ATOM     35  C   UNL     1       0.289  10.601  21.734  0.00  0.00    +0.000 C 
ATOM     36  C   UNL     1       1.433  11.665  19.763  0.00  0.00    +0.000 C 
ENDBRANCH  30  33
ENDBRANCH  24  27
ENDBRANCH  21  23
ENDBRANCH  19  21
ENDBRANCH   3  19
TORSDOF 11
ENDMDL
MODEL 8
REMARK VINA RESULT:      -7.1      4.280      6.389
REMARK  Name = 
REMARK  15 active torsions:
REMARK  status: ('A' for Active; 'I' for Inactive)
REMARK    1  A    between atoms: C_1  and  O_2
REMARK    2  A    between atoms: O_2  and  C_3
REMARK    3  A    between atoms: C_5  and  N_6
REMARK    4  A    between atoms: N_6  and  C_7
REMARK    5  A    between atoms: C_7  and  N_9
REMARK    6  A    between atoms: C_10  and  C_12
REMARK    7  A    between atoms: C_15  and  C_16
REMARK    8  A    between atoms: C_16  and  C_17
REMARK    9  A    between atoms: C_16  and  C_18
REMARK   10  A    between atoms: C_16  and  C_19
REMARK   11  A    between atoms: C_24  and  N_25
REMARK   12  A    between atoms: C_26  and  C_28
REMARK   13  A    between atoms: C_28  and  C_29
REMARK   14  A    between atoms: C_29  and  C_30
REMARK   15  A    between atoms: C_30  and  O_32
REMARK                            x       y       z     vdW  Elec       q    Type
REMARK                         _______ _______ _______ _____ _____    ______ ____
ROOT
ATOM      1  C   UNL     1       6.082   5.578  16.929  0.00  0.00    +0.000 A 
ATOM      2  C   UNL     1       5.490   5.814  18.187  0.00  0.00    +0.000 A 
ATOM      3  C   UNL     1       4.530   4.935  18.700  0.00  0.00    +0.000 A 
ATOM      4  C   UNL     1       4.096   3.888  17.905  0.00  0.00    +0.000 A 
ATOM      5  C   UNL     1       4.716   3.612  16.692  0.00  0.00    +0.000 A 
ATOM      6  C   UNL     1       5.740   4.424  16.201  0.00  0.00    +0.000 A 
ENDROOT
BRANCH   6   7
ATOM      7  N   UNL     1       6.448   4.073  15.022  0.00  0.00    +0.000 N 
ATOM      8  C   UNL     1       5.943   4.166  13.735  0.00  0.00    +0.000 C 
ATOM      9  O   UNL     1       4.897   4.729  13.415  0.00  0.00    +0.000 OA
ATOM     10  H   UNL     1       7.410   3.785  15.164  0.00  0.00    +0.000 HD
BRANCH   8  11
ATOM     11  C   UNL     1       6.774   3.489  12.668  0.00  0.00    +0.000 C 
BRANCH  11  12
ATOM     12  C   UNL     1       5.945   2.359  12.054  0.00  0.00    +0.000 C 
BRANCH  12  13
ATOM     13  C   UNL     1       6.743   1.499  11.120  0.00  0.00    +0.000 C 
ATOM     14  O   UNL     1       7.866   1.752  10.711  0.00  0.00    +0.000 OA
BRANCH  13  15
ATOM     15  O   UNL     1       6.071   0.378  10.757  0.00  0.00    +0.000 OA
ATOM     16  H   UNL     1       5.527   0.493   9.952  0.00  0.00    +0.000 HD
ENDBRANCH  13  15
ENDBRANCH  12  13
ENDBRANCH  11  12
ENDBRANCH   8  11
ENDBRANCH   6   7
BRANCH   1  18
ATOM     17  C   UNL     1       7.584   7.363  17.300  0.00  0.00    +0.000 C 
ATOM     18  O   UNL     1       7.000   6.439  16.370  0.00  0.00    +0.000 OA
ENDBRANCH   1  18
BRANCH   3  19
ATOM     19  N   UNL     1       4.039   5.167  19.998  0.00  0.00    +0.000 N 
ATOM     20  H   UNL     1       4.745   5.312  20.723  0.00  0.00    +0.000 HD
BRANCH  19  21
ATOM     21  C   UNL     1       2.755   5.073  20.490  0.00  0.00    +0.000 C 
ATOM     22  S   UNL     1       1.904   3.746  21.053  0.00  0.00    +0.000 S 
BRANCH  21  23
ATOM     23  N   UNL     1       2.078   6.270  20.584  0.00  0.00    +0.000 N 
ATOM     24  C   UNL     1       2.022   7.318  19.687  0.00  0.00    +0.000 C 
ATOM     25  O   UNL     1       2.519   7.309  18.569  0.00  0.00    +0.000 OA
ATOM     26  H   UNL     1       1.574   6.358  21.458  0.00  0.00    +0.000 HD
BRANCH  24  27
ATOM     27  C   UNL     1       1.270   8.499  20.175  0.00  0.00    +0.000 A 
ATOM     28  C   UNL     1       1.121   9.628  19.369  0.00  0.00    +0.000 A 
ATOM     29  C   UNL     1       0.434  10.744  19.855  0.00  0.00    +0.000 A 
ATOM     30  C   UNL     1      -0.120  10.755  21.146  0.00  0.00    +0.000 A 
ATOM     31  C   UNL     1       0.037   9.593  21.932  0.00  0.00    +0.000 A 
ATOM     32  C   UNL     1       0.715   8.473  21.450  0.00  0.00    +0.000 A 
BRANCH  30  33
ATOM     33  C   UNL     1      -0.895  11.966  21.694  0.00  0.00    +0.000 C 
ATOM     34  C   UNL     1      -0.019  13.229  21.863  0.00  0.00    +0.000 C 
ATOM     35  C   UNL     1      -2.040  12.328  20.723  0.00  0.00    +0.000 C 
ATOM     36  C   UNL     1      -1.492  11.637  23.078  0.00  0.00    +0.000 C 
ENDBRANCH  30  33
ENDBRANCH  24  27
ENDBRANCH  21  23
ENDBRANCH  19  21
ENDBRANCH   3  19
TORSDOF 11
ENDMDL
MODEL 9
REMARK VINA RESULT:      -7.1      1.819      3.153
REMARK  Name = 
REMARK  15 active torsions:
REMARK  status: ('A' for Active; 'I' for Inactive)
REMARK    1  A    between atoms: C_1  and  O_2
REMARK    2  A    between atoms: O_2  and  C_3
REMARK    3  A    between atoms: C_5  and  N_6
REMARK    4  A    between atoms: N_6  and  C_7
REMARK    5  A    between atoms: C_7  and  N_9
REMARK    6  A    between atoms: C_10  and  C_12
REMARK    7  A    between atoms: C_15  and  C_16
REMARK    8  A    between atoms: C_16  and  C_17
REMARK    9  A    between atoms: C_16  and  C_18
REMARK   10  A    between atoms: C_16  and  C_19
REMARK   11  A    between atoms: C_24  and  N_25
REMARK   12  A    between atoms: C_26  and  C_28
REMARK   13  A    between atoms: C_28  and  C_29
REMARK   14  A    between atoms: C_29  and  C_30
REMARK   15  A    between atoms: C_30  and  O_32
REMARK                            x       y       z     vdW  Elec       q    Type
REMARK                         _______ _______ _______ _____ _____    ______ ____
ROOT
ATOM      1  C   UNL     1       2.506   6.914  19.511  0.00  0.00    +0.000 A 
ATOM      2  C   UNL     1       1.650   7.798  20.199  0.00  0.00    +0.000 A 
ATOM      3  C   UNL     1       1.186   8.965  19.585  0.00  0.00    +0.000 A 
ATOM      4  C   UNL     1       1.665   9.290  18.328  0.00  0.00    +0.000 A 
ATOM      5  C   UNL     1       2.459   8.397  17.618  0.00  0.00    +0.000 A 
ATOM      6  C   UNL     1       2.861   7.183  18.176  0.00  0.00    +0.000 A 
ENDROOT
BRANCH   6   7
ATOM      7  N   UNL     1       3.573   6.225  17.407  0.00  0.00    +0.000 N 
ATOM      8  C   UNL     1       4.844   6.410  16.887  0.00  0.00    +0.000 C 
ATOM      9  O   UNL     1       5.604   7.337  17.164  0.00  0.00    +0.000 OA
ATOM     10  H   UNL     1       3.108   5.331  17.292  0.00  0.00    +0.000 HD
BRANCH   8  11
ATOM     11  C   UNL     1       5.286   5.367  15.885  0.00  0.00    +0.000 C 
BRANCH  11  12
ATOM     12  C   UNL     1       5.618   4.079  16.643  0.00  0.00    +0.000 C 
BRANCH  12  13
ATOM     13  C   UNL     1       6.624   4.294  17.735  0.00  0.00    +0.000 C 
ATOM     14  O   UNL     1       6.369   4.359  18.928  0.00  0.00    +0.000 OA
BRANCH  13  15
ATOM     15  O   UNL     1       7.884   4.421  17.251  0.00  0.00    +0.000 OA
ATOM     16  H   UNL     1       8.539   3.865  17.719  0.00  0.00    +0.000 HD
ENDBRANCH  13  15
ENDBRANCH  12  13
ENDBRANCH  11  12
ENDBRANCH   8  11
ENDBRANCH   6   7
BRANCH   1  18
ATOM     17  C   UNL     1       2.046   4.981  20.787  0.00  0.00    +0.000 C 
ATOM     18  O   UNL     1       3.018   5.775  20.093  0.00  0.00    +0.000 OA
ENDBRANCH   1  18
BRANCH   3  19
ATOM     19  N   UNL     1       0.261   9.765  20.283  0.00  0.00    +0.000 N 
ATOM     20  H   UNL     1      -0.581   9.288  20.612  0.00  0.00    +0.000 HD
BRANCH  19  21
ATOM     21  C   UNL     1       0.228  11.131  20.462  0.00  0.00    +0.000 C 
ATOM     22  S   UNL     1       1.386  12.295  20.134  0.00  0.00    +0.000 S 
BRANCH  21  23
ATOM     23  N   UNL     1      -0.966  11.628  20.938  0.00  0.00    +0.000 N 
ATOM     24  C   UNL     1      -1.302  12.025  22.217  0.00  0.00    +0.000 C 
ATOM     25  O   UNL     1      -0.523  12.085  23.158  0.00  0.00    +0.000 OA
ATOM     26  H   UNL     1      -1.675  11.680  20.217  0.00  0.00    +0.000 HD
BRANCH  24  27
ATOM     27  C   UNL     1      -2.723  12.413  22.381  0.00  0.00    +0.000 A 
ATOM     28  C   UNL     1      -3.454  12.905  21.299  0.00  0.00    +0.000 A 
ATOM     29  C   UNL     1      -4.785  13.294  21.478  0.00  0.00    +0.000 A 
ATOM     30  C   UNL     1      -5.412  13.195  22.732  0.00  0.00    +0.000 A 
ATOM     31  C   UNL     1      -4.650  12.683  23.803  0.00  0.00    +0.000 A 
ATOM     32  C   UNL     1      -3.323  12.286  23.630  0.00  0.00    +0.000 A 
BRANCH  30  33
ATOM     33  C   UNL     1      -6.881  13.601  22.946  0.00  0.00    +0.000 C 
ATOM     34  C   UNL     1      -7.048  14.841  23.855  0.00  0.00    +0.000 C 
ATOM     35  C   UNL     1      -7.528  13.938  21.586  0.00  0.00    +0.000 C 
ATOM     36  C   UNL     1      -7.663  12.446  23.605  0.00  0.00    +0.000 C 
ENDBRANCH  30  33
ENDBRANCH  24  27
ENDBRANCH  21  23
ENDBRANCH  19  21
ENDBRANCH   3  19
TORSDOF 11
ENDMDL
