MODEL 1
REMARK VINA RESULT:      -6.2      0.000      0.000
REMARK  Name = 
REMARK  15 active torsions:
REMARK  status: ('A' for Active; 'I' for Inactive)
REMARK    1  A    between atoms: C_1  and  C_2
REMARK    2  A    between atoms: C_2  and  C_3
REMARK    3  A    between atoms: C_3  and  C_4
REMARK    4  A    between atoms: C_4  and  C_5
REMARK    5  A    between atoms: C_5  and  C_6
REMARK    6  A    between atoms: C_6  and  C_7
REMARK    7  A    between atoms: C_7  and  C_8
REMARK    8  A    between atoms: C_8  and  O_10
REMARK    9  A    between atoms: O_10  and  C_11
REMARK   10  A    between atoms: C_11  and  C_12
REMARK   11  A    between atoms: C_12  and  C_14
REMARK   12  A    between atoms: C_14  and  O_15
REMARK   13  A    between atoms: C_28  and  C_29
REMARK   14  A    between atoms: C_31  and  O_32
REMARK   15  A    between atoms: C_34  and  C_35
REMARK                            x       y       z     vdW  Elec       q    Type
REMARK                         _______ _______ _______ _____ _____    ______ ____
ROOT
ATOM      1  C   UNL     1       1.255   9.440  19.875  0.00  0.00    +0.000 C 
ATOM      2  C   UNL     1      -0.228   8.942  19.662  0.00  0.00    +0.000 C 
ATOM      3  C   UNL     1      -0.743  10.079  18.825  0.00  0.00    +0.000 C 
ATOM      4  C   UNL     1      -0.313  11.295  19.630  0.00  0.00    +0.000 C 
ATOM      5  C   UNL     1      -1.591  11.949  20.090  0.00  0.00    +0.000 C 
ATOM      6  C   UNL     1      -2.395  12.429  18.867  0.00  0.00    +0.000 C 
ATOM      7  C   UNL     1      -3.798  11.994  19.161  0.00  0.00    +0.000 C 
ATOM      8  C   UNL     1      -4.250  12.596  20.466  0.00  0.00    +0.000 C 
ATOM      9  C   UNL     1      -5.565  12.901  20.525  0.00  0.00    +0.000 C 
ATOM     10  C   UNL     1      -5.582  14.288  19.964  0.00  0.00    +0.000 C 
ATOM     11  O   UNL     1      -6.307  14.560  18.989  0.00  0.00    +0.000 OA
ATOM     12  C   UNL     1      -4.749  15.304  20.713  0.00  0.00    +0.000 C 
ATOM     13  C   UNL     1      -3.708  14.707  21.715  0.00  0.00    +0.000 C 
ATOM     14  C   UNL     1      -3.220  13.219  21.504  0.00  0.00    +0.000 C 
ATOM     15  C   UNL     1      -3.482  12.435  22.815  0.00  0.00    +0.000 C 
ATOM     16  C   UNL     1      -1.602  13.130  21.030  0.00  0.00    +0.000 C 
ATOM     17  C   UNL     1      -0.322  12.987  21.962  0.00  0.00    +0.000 C 
ATOM     18  C   UNL     1       1.065  12.291  21.219  0.00  0.00    +0.000 C 
ATOM     19  C   UNL     1       0.752  10.822  20.682  0.00  0.00    +0.000 C 
ATOM     20  C   UNL     1       0.545  10.164  22.126  0.00  0.00    +0.000 C 
ENDROOT
BRANCH   1  21
ATOM     21  C   UNL     1       1.735   8.845  18.487  0.00  0.00    +0.000 C 
ATOM     22  O   UNL     1       1.966   9.523  17.488  0.00  0.00    +0.000 OA
BRANCH  21  23
ATOM     23  C   UNL     1       1.845   7.230  18.467  0.00  0.00    +0.000 C 
BRANCH  23  24
ATOM     24  O   UNL     1       3.102   6.664  18.855  0.00  0.00    +0.000 OA
BRANCH  24  25
ATOM     25  C   UNL     1       3.904   6.331  17.839  0.00  0.00    +0.000 C 
ATOM     26  O   UNL     1       4.750   7.042  17.337  0.00  0.00    +0.000 OA
BRANCH  25  27
ATOM     27  C   UNL     1       3.689   4.881  17.456  0.00  0.00    +0.000 C 
BRANCH  27  28
ATOM     28  C   UNL     1       4.399   3.841  18.332  0.00  0.00    +0.000 C 
BRANCH  28  29
ATOM     29  C   UNL     1       3.677   2.505  18.532  0.00  0.00    +0.000 C 
BRANCH  29  30
ATOM     30  C   UNL     1       2.351   2.382  17.777  0.00  0.00    +0.000 C 
BRANCH  30  31
ATOM     31  C   UNL     1       1.156   2.364  18.738  0.00  0.00    +0.000 C 
BRANCH  31  33
ATOM     32  C   UNL     1       1.037   4.172  20.502  0.00  0.00    +0.000 C 
ATOM     33  C   UNL     1       1.564   2.788  20.150  0.00  0.00    +0.000 C 
ENDBRANCH  31  33
ENDBRANCH  30  31
ENDBRANCH  29  30
ENDBRANCH  28  29
ENDBRANCH  27  28
ENDBRANCH  25  27
ENDBRANCH  24  25
ENDBRANCH  23  24
ENDBRANCH  21  23
ENDBRANCH   1  21
BRANCH   1  34
ATOM     34  O   UNL     1       2.101   8.610  20.679  0.00  0.00    +0.000 OA
ATOM     35  H   UNL     1       2.596   8.025  20.069  0.00  0.00    +0.000 HD
ENDBRANCH   1  34
BRANCH  17  36
ATOM     36  O   UNL     1      -0.671  12.335  23.190  0.00  0.00    +0.000 OA
ATOM     37  H   UNL     1       0.052  12.488  23.817  0.00  0.00    +0.000 HD
ENDBRANCH  17  36
TORSDOF 12
ENDMDL
MODEL 2
REMARK VINA RESULT:      -6.1      2.097      2.968
REMARK  Name = 
REMARK  15 active torsions:
REMARK  status: ('A' for Active; 'I' for Inactive)
REMARK    1  A    between atoms: C_1  and  C_2
REMARK    2  A    between atoms: C_2  and  C_3
REMARK    3  A    between atoms: C_3  and  C_4
REMARK    4  A    between atoms: C_4  and  C_5
REMARK    5  A    between atoms: C_5  and  C_6
REMARK    6  A    between atoms: C_6  and  C_7
REMARK    7  A    between atoms: C_7  and  C_8
REMARK    8  A    between atoms: C_8  and  O_10
REMARK    9  A    between atoms: O_10  and  C_11
REMARK   10  A    between atoms: C_11  and  C_12
REMARK   11  A    between atoms: C_12  and  C_14
REMARK   12  A    between atoms: C_14  and  O_15
REMARK   13  A    between atoms: C_28  and  C_29
REMARK   14  A    between atoms: C_31  and  O_32
REMARK   15  A    between atoms: C_34  and  C_35
REMARK                            x       y       z     vdW  Elec       q    Type
REMARK                         _______ _______ _______ _____ _____    ______ ____
ROOT
ATOM      1  C   UNL     1       0.814  11.533  19.209  0.00  0.00    +0.000 C 
ATOM      2  C   UNL     1       0.407  11.192  20.696  0.00  0.00    +0.000 C 
ATOM      3  C   UNL     1      -1.081  11.382  20.585  0.00  0.00    +0.000 C 
ATOM      4  C   UNL     1      -1.184  12.745  19.917  0.00  0.00    +0.000 C 
ATOM      5  C   UNL     1      -1.828  13.648  20.938  0.00  0.00    +0.000 C 
ATOM      6  C   UNL     1      -3.251  13.144  21.249  0.00  0.00    +0.000 C 
ATOM      7  C   UNL     1      -3.341  13.211  22.743  0.00  0.00    +0.000 C 
ATOM      8  C   UNL     1      -3.077  14.622  23.201  0.00  0.00    +0.000 C 
ATOM      9  C   UNL     1      -3.766  15.001  24.299  0.00  0.00    +0.000 C 
ATOM     10  C   UNL     1      -5.039  15.511  23.700  0.00  0.00    +0.000 C 
ATOM     11  O   UNL     1      -6.134  15.045  24.066  0.00  0.00    +0.000 OA
ATOM     12  C   UNL     1      -4.887  16.658  22.727  0.00  0.00    +0.000 C 
ATOM     13  C   UNL     1      -3.435  16.898  22.197  0.00  0.00    +0.000 C 
ATOM     14  C   UNL     1      -2.403  15.702  22.248  0.00  0.00    +0.000 C 
ATOM     15  C   UNL     1      -1.155  16.175  23.035  0.00  0.00    +0.000 C 
ATOM     16  C   UNL     1      -2.000  15.130  20.711  0.00  0.00    +0.000 C 
ATOM     17  C   UNL     1      -0.794  15.596  19.786  0.00  0.00    +0.000 C 
ATOM     18  C   UNL     1      -0.260  14.445  18.625  0.00  0.00    +0.000 C 
ATOM     19  C   UNL     1       0.228  13.100  19.331  0.00  0.00    +0.000 C 
ATOM     20  C   UNL     1       1.502  13.750  20.049  0.00  0.00    +0.000 C 
ENDROOT
BRANCH   1  21
ATOM     21  C   UNL     1       0.503  10.063  18.706  0.00  0.00    +0.000 C 
ATOM     22  O   UNL     1      -0.237   9.798  17.761  0.00  0.00    +0.000 OA
BRANCH  21  23
ATOM     23  C   UNL     1       1.205   8.904  19.592  0.00  0.00    +0.000 C 
BRANCH  23  24
ATOM     24  O   UNL     1       2.284   8.188  18.980  0.00  0.00    +0.000 OA
BRANCH  24  25
ATOM     25  C   UNL     1       2.343   6.890  19.290  0.00  0.00    +0.000 C 
ATOM     26  O   UNL     1       2.127   6.408  20.383  0.00  0.00    +0.000 OA
BRANCH  25  27
ATOM     27  C   UNL     1       2.615   6.066  18.048  0.00  0.00    +0.000 C 
BRANCH  27  28
ATOM     28  C   UNL     1       1.708   4.847  17.836  0.00  0.00    +0.000 C 
BRANCH  28  29
ATOM     29  C   UNL     1       2.399   3.483  17.759  0.00  0.00    +0.000 C 
BRANCH  29  30
ATOM     30  C   UNL     1       1.948   2.482  18.827  0.00  0.00    +0.000 C 
BRANCH  30  31
ATOM     31  C   UNL     1       0.866   3.077  19.735  0.00  0.00    +0.000 C 
BRANCH  31  33
ATOM     32  C   UNL     1       2.702   2.722  21.437  0.00  0.00    +0.000 C 
ATOM     33  C   UNL     1       1.205   2.885  21.215  0.00  0.00    +0.000 C 
ENDBRANCH  31  33
ENDBRANCH  30  31
ENDBRANCH  29  30
ENDBRANCH  28  29
ENDBRANCH  27  28
ENDBRANCH  25  27
ENDBRANCH  24  25
ENDBRANCH  23  24
ENDBRANCH  21  23
ENDBRANCH   1  21
BRANCH   1  34
ATOM     34  O   UNL     1       2.212  11.490  18.901  0.00  0.00    +0.000 OA
ATOM     35  H   UNL     1       2.291  11.404  17.929  0.00  0.00    +0.000 HD
ENDBRANCH   1  34
BRANCH  17  36
ATOM     36  O   UNL     1       0.281  16.104  20.588  0.00  0.00    +0.000 OA
ATOM     37  H   UNL     1       0.461  17.010  20.294  0.00  0.00    +0.000 HD
ENDBRANCH  17  36
TORSDOF 12
ENDMDL
MODEL 3
REMARK VINA RESULT:      -6.1      1.425      2.193
REMARK  Name = 
REMARK  15 active torsions:
REMARK  status: ('A' for Active; 'I' for Inactive)
REMARK    1  A    between atoms: C_1  and  C_2
REMARK    2  A    between atoms: C_2  and  C_3
REMARK    3  A    between atoms: C_3  and  C_4
REMARK    4  A    between atoms: C_4  and  C_5
REMARK    5  A    between atoms: C_5  and  C_6
REMARK    6  A    between atoms: C_6  and  C_7
REMARK    7  A    between atoms: C_7  and  C_8
REMARK    8  A    between atoms: C_8  and  O_10
REMARK    9  A    between atoms: O_10  and  C_11
REMARK   10  A    between atoms: C_11  and  C_12
REMARK   11  A    between atoms: C_12  and  C_14
REMARK   12  A    between atoms: C_14  and  O_15
REMARK   13  A    between atoms: C_28  and  C_29
REMARK   14  A    between atoms: C_31  and  O_32
REMARK   15  A    between atoms: C_34  and  C_35
REMARK                            x       y       z     vdW  Elec       q    Type
REMARK                         _______ _______ _______ _____ _____    ______ ____
ROOT
ATOM      1  C   UNL     1       0.405  10.336  21.129  0.00  0.00    +0.000 C 
ATOM      2  C   UNL     1      -0.868   9.478  20.763  0.00  0.00    +0.000 C 
ATOM      3  C   UNL     1      -1.302  10.211  19.524  0.00  0.00    +0.000 C 
ATOM      4  C   UNL     1      -1.300  11.659  19.987  0.00  0.00    +0.000 C 
ATOM      5  C   UNL     1      -2.739  12.104  19.933  0.00  0.00    +0.000 C 
ATOM      6  C   UNL     1      -3.241  12.054  18.478  0.00  0.00    +0.000 C 
ATOM      7  C   UNL     1      -4.588  11.404  18.579  0.00  0.00    +0.000 C 
ATOM      8  C   UNL     1      -5.466  12.208  19.503  0.00  0.00    +0.000 C 
ATOM      9  C   UNL     1      -6.777  12.212  19.178  0.00  0.00    +0.000 C 
ATOM     10  C   UNL     1      -6.851  13.364  18.226  0.00  0.00    +0.000 C 
ATOM     11  O   UNL     1      -7.315  13.201  17.081  0.00  0.00    +0.000 OA
ATOM     12  C   UNL     1      -6.421  14.701  18.785  0.00  0.00    +0.000 C 
ATOM     13  C   UNL     1      -5.616  14.637  20.124  0.00  0.00    +0.000 C 
ATOM     14  C   UNL     1      -4.867  13.296  20.495  0.00  0.00    +0.000 C 
ATOM     15  C   UNL     1      -5.355  12.842  21.894  0.00  0.00    +0.000 C 
ATOM     16  C   UNL     1      -3.187  13.455  20.435  0.00  0.00    +0.000 C 
ATOM     17  C   UNL     1      -2.206  13.853  21.621  0.00  0.00    +0.000 C 
ATOM     18  C   UNL     1      -0.579  13.320  21.449  0.00  0.00    +0.000 C 
ATOM     19  C   UNL     1      -0.504  11.730  21.339  0.00  0.00    +0.000 C 
ATOM     20  C   UNL     1      -0.996  11.442  22.834  0.00  0.00    +0.000 C 
ENDROOT
BRANCH   1  21
ATOM     21  C   UNL     1       1.332   9.525  20.132  0.00  0.00    +0.000 C 
ATOM     22  O   UNL     1       1.577   9.873  18.978  0.00  0.00    +0.000 OA
BRANCH  21  23
ATOM     23  C   UNL     1       1.899   8.138  20.744  0.00  0.00    +0.000 C 
BRANCH  23  24
ATOM     24  O   UNL     1       1.488   6.930  20.093  0.00  0.00    +0.000 OA
BRANCH  24  25
ATOM     25  C   UNL     1       2.431   6.346  19.349  0.00  0.00    +0.000 C 
ATOM     26  O   UNL     1       2.818   6.724  18.262  0.00  0.00    +0.000 OA
BRANCH  25  27
ATOM     27  C   UNL     1       3.048   5.184  20.102  0.00  0.00    +0.000 C 
BRANCH  27  28
ATOM     28  C   UNL     1       2.196   4.582  21.226  0.00  0.00    +0.000 C 
BRANCH  28  29
ATOM     29  C   UNL     1       1.515   3.243  20.930  0.00  0.00    +0.000 C 
BRANCH  29  30
ATOM     30  C   UNL     1       0.718   3.212  19.622  0.00  0.00    +0.000 C 
BRANCH  30  31
ATOM     31  C   UNL     1       1.196   2.086  18.698  0.00  0.00    +0.000 C 
BRANCH  31  33
ATOM     32  C   UNL     1       3.635   2.053  18.035  0.00  0.00    +0.000 C 
ATOM     33  C   UNL     1       2.248   2.582  17.704  0.00  0.00    +0.000 C 
ENDBRANCH  31  33
ENDBRANCH  30  31
ENDBRANCH  29  30
ENDBRANCH  28  29
ENDBRANCH  27  28
ENDBRANCH  25  27
ENDBRANCH  24  25
ENDBRANCH  23  24
ENDBRANCH  21  23
ENDBRANCH   1  21
BRANCH   1  34
ATOM     34  O   UNL     1       1.116   9.958  22.313  0.00  0.00    +0.000 OA
ATOM     35  H   UNL     1       0.570   9.290  22.776  0.00  0.00    +0.000 HD
ENDBRANCH   1  34
BRANCH  17  36
ATOM     36  O   UNL     1      -2.774  13.481  22.884  0.00  0.00    +0.000 OA
ATOM     37  H   UNL     1      -3.642  13.908  22.949  0.00  0.00    +0.000 HD
ENDBRANCH  17  36
TORSDOF 12
ENDMDL
MODEL 4
REMARK VINA RESULT:      -6.1      1.670      2.764
REMARK  Name = 
REMARK  15 active torsions:
REMARK  status: ('A' for Active; 'I' for Inactive)
REMARK    1  A    between atoms: C_1  and  C_2
REMARK    2  A    between atoms: C_2  and  C_3
REMARK    3  A    between atoms: C_3  and  C_4
REMARK    4  A    between atoms: C_4  and  C_5
REMARK    5  A    between atoms: C_5  and  C_6
REMARK    6  A    between atoms: C_6  and  C_7
REMARK    7  A    between atoms: C_7  and  C_8
REMARK    8  A    between atoms: C_8  and  O_10
REMARK    9  A    between atoms: O_10  and  C_11
REMARK   10  A    between atoms: C_11  and  C_12
REMARK   11  A    between atoms: C_12  and  C_14
REMARK   12  A    between atoms: C_14  and  O_15
REMARK   13  A    between atoms: C_28  and  C_29
REMARK   14  A    between atoms: C_31  and  O_32
REMARK   15  A    between atoms: C_34  and  C_35
REMARK                            x       y       z     vdW  Elec       q    Type
REMARK                         _______ _______ _______ _____ _____    ______ ____
ROOT
ATOM      1  C   UNL     1       0.573  10.363  20.774  0.00  0.00    +0.000 C 
ATOM      2  C   UNL     1      -0.711   9.498  20.465  0.00  0.00    +0.000 C 
ATOM      3  C   UNL     1      -1.242  10.271  19.289  0.00  0.00    +0.000 C 
ATOM      4  C   UNL     1      -1.228  11.700  19.808  0.00  0.00    +0.000 C 
ATOM      5  C   UNL     1      -2.674  12.121  19.873  0.00  0.00    +0.000 C 
ATOM      6  C   UNL     1      -3.277  12.119  18.455  0.00  0.00    +0.000 C 
ATOM      7  C   UNL     1      -4.603  11.443  18.625  0.00  0.00    +0.000 C 
ATOM      8  C   UNL     1      -5.425  12.195  19.640  0.00  0.00    +0.000 C 
ATOM      9  C   UNL     1      -6.756  12.189  19.408  0.00  0.00    +0.000 C 
ATOM     10  C   UNL     1      -6.914  13.375  18.510  0.00  0.00    +0.000 C 
ATOM     11  O   UNL     1      -7.456  13.249  17.395  0.00  0.00    +0.000 OA
ATOM     12  C   UNL     1      -6.465  14.697  19.090  0.00  0.00    +0.000 C 
ATOM     13  C   UNL     1      -5.566  14.596  20.366  0.00  0.00    +0.000 C 
ATOM     14  C   UNL     1      -4.774  13.254  20.630  0.00  0.00    +0.000 C 
ATOM     15  C   UNL     1      -5.155  12.739  22.041  0.00  0.00    +0.000 C 
ATOM     16  C   UNL     1      -3.104  13.444  20.458  0.00  0.00    +0.000 C 
ATOM     17  C   UNL     1      -2.047  13.814  21.586  0.00  0.00    +0.000 C 
ATOM     18  C   UNL     1      -0.429  13.315  21.280  0.00  0.00    +0.000 C 
ATOM     19  C   UNL     1      -0.340  11.732  21.102  0.00  0.00    +0.000 C 
ATOM     20  C   UNL     1      -0.720  11.379  22.616  0.00  0.00    +0.000 C 
ENDROOT
BRANCH   1  21
ATOM     21  C   UNL     1       1.438   9.607  19.683  0.00  0.00    +0.000 C 
ATOM     22  O   UNL     1       1.785  10.101  18.611  0.00  0.00    +0.000 OA
BRANCH  21  23
ATOM     23  C   UNL     1       1.791   8.075  20.070  0.00  0.00    +0.000 C 
BRANCH  23  24
ATOM     24  O   UNL     1       2.365   7.265  19.039  0.00  0.00    +0.000 OA
BRANCH  24  25
ATOM     25  C   UNL     1       2.424   5.960  19.320  0.00  0.00    +0.000 C 
ATOM     26  O   UNL     1       2.296   5.460  20.419  0.00  0.00    +0.000 OA
BRANCH  25  27
ATOM     27  C   UNL     1       2.566   5.155  18.044  0.00  0.00    +0.000 C 
BRANCH  27  28
ATOM     28  C   UNL     1       3.748   4.178  17.991  0.00  0.00    +0.000 C 
BRANCH  28  29
ATOM     29  C   UNL     1       4.520   4.105  16.671  0.00  0.00    +0.000 C 
BRANCH  29  30
ATOM     30  C   UNL     1       5.587   5.190  16.500  0.00  0.00    +0.000 C 
BRANCH  30  31
ATOM     31  C   UNL     1       6.851   4.869  17.306  0.00  0.00    +0.000 C 
BRANCH  31  33
ATOM     32  C   UNL     1       7.880   6.997  18.205  0.00  0.00    +0.000 C 
ATOM     33  C   UNL     1       6.998   5.796  18.514  0.00  0.00    +0.000 C 
ENDBRANCH  31  33
ENDBRANCH  30  31
ENDBRANCH  29  30
ENDBRANCH  28  29
ENDBRANCH  27  28
ENDBRANCH  25  27
ENDBRANCH  24  25
ENDBRANCH  23  24
ENDBRANCH  21  23
ENDBRANCH   1  21
BRANCH   1  34
ATOM     34  O   UNL     1       1.370   9.952  21.889  0.00  0.00    +0.000 OA
ATOM     35  H   UNL     1       2.296   9.888  21.575  0.00  0.00    +0.000 HD
ENDBRANCH   1  34
BRANCH  17  36
ATOM     36  O   UNL     1      -2.519  13.384  22.870  0.00  0.00    +0.000 OA
ATOM     37  H   UNL     1      -1.845  12.799  23.248  0.00  0.00    +0.000 HD
ENDBRANCH  17  36
TORSDOF 12
ENDMDL
MODEL 5
REMARK VINA RESULT:      -6.1      1.669      2.979
REMARK  Name = 
REMARK  15 active torsions:
REMARK  status: ('A' for Active; 'I' for Inactive)
REMARK    1  A    between atoms: C_1  and  C_2
REMARK    2  A    between atoms: C_2  and  C_3
REMARK    3  A    between atoms: C_3  and  C_4
REMARK    4  A    between atoms: C_4  and  C_5
REMARK    5  A    between atoms: C_5  and  C_6
REMARK    6  A    between atoms: C_6  and  C_7
REMARK    7  A    between atoms: C_7  and  C_8
REMARK    8  A    between atoms: C_8  and  O_10
REMARK    9  A    between atoms: O_10  and  C_11
REMARK   10  A    between atoms: C_11  and  C_12
REMARK   11  A    between atoms: C_12  and  C_14
REMARK   12  A    between atoms: C_14  and  O_15
REMARK   13  A    between atoms: C_28  and  C_29
REMARK   14  A    between atoms: C_31  and  O_32
REMARK   15  A    between atoms: C_34  and  C_35
REMARK                            x       y       z     vdW  Elec       q    Type
REMARK                         _______ _______ _______ _____ _____    ______ ____
ROOT
ATOM      1  C   UNL     1       1.349   9.225  18.830  0.00  0.00    +0.000 C 
ATOM      2  C   UNL     1       1.898  10.034  20.070  0.00  0.00    +0.000 C 
ATOM      3  C   UNL     1       0.739   9.848  21.009  0.00  0.00    +0.000 C 
ATOM      4  C   UNL     1      -0.448  10.236  20.140  0.00  0.00    +0.000 C 
ATOM      5  C   UNL     1      -1.017  11.483  20.765  0.00  0.00    +0.000 C 
ATOM      6  C   UNL     1      -1.531  11.162  22.182  0.00  0.00    +0.000 C 
ATOM      7  C   UNL     1      -1.019  12.294  23.020  0.00  0.00    +0.000 C 
ATOM      8  C   UNL     1      -1.526  13.600  22.466  0.00  0.00    +0.000 C 
ATOM      9  C   UNL     1      -1.770  14.553  23.391  0.00  0.00    +0.000 C 
ATOM     10  C   UNL     1      -3.184  14.251  23.775  0.00  0.00    +0.000 C 
ATOM     11  O   UNL     1      -3.479  14.044  24.968  0.00  0.00    +0.000 OA
ATOM     12  C   UNL     1      -4.191  14.311  22.650  0.00  0.00    +0.000 C 
ATOM     13  C   UNL     1      -3.585  14.302  21.208  0.00  0.00    +0.000 C 
ATOM     14  C   UNL     1      -2.134  13.711  21.001  0.00  0.00    +0.000 C 
ATOM     15  C   UNL     1      -1.266  14.795  20.312  0.00  0.00    +0.000 C 
ATOM     16  C   UNL     1      -2.142  12.264  20.130  0.00  0.00    +0.000 C 
ATOM     17  C   UNL     1      -2.003  12.074  18.558  0.00  0.00    +0.000 C 
ATOM     18  C   UNL     1      -1.411  10.543  18.044  0.00  0.00    +0.000 C 
ATOM     19  C   UNL     1       0.038  10.255  18.646  0.00  0.00    +0.000 C 
ATOM     20  C   UNL     1       0.784  11.408  17.826  0.00  0.00    +0.000 C 
ENDROOT
BRANCH   1  21
ATOM     21  C   UNL     1       1.842   7.839  19.420  0.00  0.00    +0.000 C 
ATOM     22  O   UNL     1       1.806   7.544  20.613  0.00  0.00    +0.000 OA
BRANCH  21  23
ATOM     23  C   UNL     1       2.469   6.840  18.311  0.00  0.00    +0.000 C 
BRANCH  23  24
ATOM     24  O   UNL     1       3.851   7.022  17.986  0.00  0.00    +0.000 OA
BRANCH  24  25
ATOM     25  C   UNL     1       4.386   6.046  17.246  0.00  0.00    +0.000 C 
ATOM     26  O   UNL     1       4.944   6.186  16.177  0.00  0.00    +0.000 OA
BRANCH  25  27
ATOM     27  C   UNL     1       4.299   4.724  17.982  0.00  0.00    +0.000 C 
BRANCH  27  28
ATOM     28  C   UNL     1       3.680   3.558  17.201  0.00  0.00    +0.000 C 
BRANCH  28  29
ATOM     29  C   UNL     1       2.687   2.674  17.961  0.00  0.00    +0.000 C 
BRANCH  29  30
ATOM     30  C   UNL     1       1.303   3.299  18.157  0.00  0.00    +0.000 C 
BRANCH  30  31
ATOM     31  C   UNL     1       0.788   3.090  19.585  0.00  0.00    +0.000 C 
BRANCH  31  33
ATOM     32  C   UNL     1       2.181   3.158  21.694  0.00  0.00    +0.000 C 
ATOM     33  C   UNL     1       1.532   3.976  20.587  0.00  0.00    +0.000 C 
ENDBRANCH  31  33
ENDBRANCH  30  31
ENDBRANCH  29  30
ENDBRANCH  28  29
ENDBRANCH  27  28
ENDBRANCH  25  27
ENDBRANCH  24  25
ENDBRANCH  23  24
ENDBRANCH  21  23
ENDBRANCH   1  21
BRANCH   1  34
ATOM     34  O   UNL     1       2.185   9.185  17.669  0.00  0.00    +0.000 OA
ATOM     35  H   UNL     1       2.127   8.278  17.302  0.00  0.00    +0.000 HD
ENDBRANCH   1  34
BRANCH  17  36
ATOM     36  O   UNL     1      -1.268  13.165  17.989  0.00  0.00    +0.000 OA
ATOM     37  H   UNL     1      -1.775  13.975  18.151  0.00  0.00    +0.000 HD
ENDBRANCH  17  36
TORSDOF 12
ENDMDL
MODEL 6
REMARK VINA RESULT:      -6.0      4.671      8.558
REMARK  Name = 
REMARK  15 active torsions:
REMARK  status: ('A' for Active; 'I' for Inactive)
REMARK    1  A    between atoms: C_1  and  C_2
REMARK    2  A    between atoms: C_2  and  C_3
REMARK    3  A    between atoms: C_3  and  C_4
REMARK    4  A    between atoms: C_4  and  C_5
REMARK    5  A    between atoms: C_5  and  C_6
REMARK    6  A    between atoms: C_6  and  C_7
REMARK    7  A    between atoms: C_7  and  C_8
REMARK    8  A    between atoms: C_8  and  O_10
REMARK    9  A    between atoms: O_10  and  C_11
REMARK   10  A    between atoms: C_11  and  C_12
REMARK   11  A    between atoms: C_12  and  C_14
REMARK   12  A    between atoms: C_14  and  O_15
REMARK   13  A    between atoms: C_28  and  C_29
REMARK   14  A    between atoms: C_31  and  O_32
REMARK   15  A    between atoms: C_34  and  C_35
REMARK                            x       y       z     vdW  Elec       q    Type
REMARK                         _______ _______ _______ _____ _____    ______ ____
ROOT
ATOM      1  C   UNL     1      -3.452  14.040  22.737  0.00  0.00    +0.000 C 
ATOM      2  C   UNL     1      -2.580  15.334  22.976  0.00  0.00    +0.000 C 
ATOM      3  C   UNL     1      -2.412  15.775  21.548  0.00  0.00    +0.000 C 
ATOM      4  C   UNL     1      -1.951  14.498  20.866  0.00  0.00    +0.000 C 
ATOM      5  C   UNL     1      -0.543  14.771  20.404  0.00  0.00    +0.000 C 
ATOM      6  C   UNL     1      -0.551  15.908  19.364  0.00  0.00    +0.000 C 
ATOM      7  C   UNL     1       0.581  16.794  19.783  0.00  0.00    +0.000 C 
ATOM      8  C   UNL     1       1.860  15.998  19.810  0.00  0.00    +0.000 C 
ATOM      9  C   UNL     1       2.968  16.693  19.472  0.00  0.00    +0.000 C 
ATOM     10  C   UNL     1       2.986  16.534  17.985  0.00  0.00    +0.000 C 
ATOM     11  O   UNL     1       3.016  17.538  17.248  0.00  0.00    +0.000 OA
ATOM     12  C   UNL     1       3.059  15.110  17.482  0.00  0.00    +0.000 C 
ATOM     13  C   UNL     1       2.727  14.010  18.542  0.00  0.00    +0.000 C 
ATOM     14  C   UNL     1       1.860  14.409  19.802  0.00  0.00    +0.000 C 
ATOM     15  C   UNL     1       2.655  14.024  21.076  0.00  0.00    +0.000 C 
ATOM     16  C   UNL     1       0.325  13.705  19.782  0.00  0.00    +0.000 C 
ATOM     17  C   UNL     1      -0.117  12.319  20.423  0.00  0.00    +0.000 C 
ATOM     18  C   UNL     1      -1.790  12.177  20.803  0.00  0.00    +0.000 C 
ATOM     19  C   UNL     1      -2.241  13.301  21.840  0.00  0.00    +0.000 C 
ATOM     20  C   UNL     1      -1.376  12.744  23.066  0.00  0.00    +0.000 C 
ENDROOT
BRANCH   1  21
ATOM     21  C   UNL     1      -4.800  14.868  22.668  0.00  0.00    +0.000 C 
ATOM     22  O   UNL     1      -5.020  15.886  23.322  0.00  0.00    +0.000 OA
BRANCH  21  23
ATOM     23  C   UNL     1      -5.918  14.225  21.689  0.00  0.00    +0.000 C 
BRANCH  23  24
ATOM     24  O   UNL     1      -5.518  13.090  20.912  0.00  0.00    +0.000 OA
BRANCH  24  25
ATOM     25  C   UNL     1      -6.489  12.202  20.677  0.00  0.00    +0.000 C 
ATOM     26  O   UNL     1      -6.791  11.270  21.394  0.00  0.00    +0.000 OA
BRANCH  25  27
ATOM     27  C   UNL     1      -7.253  12.581  19.425  0.00  0.00    +0.000 C 
BRANCH  27  28
ATOM     28  C   UNL     1      -7.065  11.656  18.215  0.00  0.00    +0.000 C 
BRANCH  28  29
ATOM     29  C   UNL     1      -5.695  10.989  18.068  0.00  0.00    +0.000 C 
BRANCH  29  30
ATOM     30  C   UNL     1      -4.655  11.834  17.326  0.00  0.00    +0.000 C 
BRANCH  30  31
ATOM     31  C   UNL     1      -3.635  10.955  16.593  0.00  0.00    +0.000 C 
BRANCH  31  33
ATOM     32  C   UNL     1      -1.541  10.063  17.695  0.00  0.00    +0.000 C 
ATOM     33  C   UNL     1      -2.204  11.265  17.038  0.00  0.00    +0.000 C 
ENDBRANCH  31  33
ENDBRANCH  30  31
ENDBRANCH  29  30
ENDBRANCH  28  29
ENDBRANCH  27  28
ENDBRANCH  25  27
ENDBRANCH  24  25
ENDBRANCH  23  24
ENDBRANCH  21  23
ENDBRANCH   1  21
BRANCH   1  34
ATOM     34  O   UNL     1      -3.814  13.287  23.899  0.00  0.00    +0.000 OA
ATOM     35  H   UNL     1      -4.526  12.668  23.633  0.00  0.00    +0.000 HD
ENDBRANCH   1  34
BRANCH  17  36
ATOM     36  O   UNL     1       0.726  11.994  21.536  0.00  0.00    +0.000 OA
ATOM     37  H   UNL     1       1.407  11.383  21.217  0.00  0.00    +0.000 HD
ENDBRANCH  17  36
TORSDOF 12
ENDMDL
MODEL 7
REMARK VINA RESULT:      -6.0      1.342      1.951
REMARK  Name = 
REMARK  15 active torsions:
REMARK  status: ('A' for Active; 'I' for Inactive)
REMARK    1  A    between atoms: C_1  and  C_2
REMARK    2  A    between atoms: C_2  and  C_3
REMARK    3  A    between atoms: C_3  and  C_4
REMARK    4  A    between atoms: C_4  and  C_5
REMARK    5  A    between atoms: C_5  and  C_6
REMARK    6  A    between atoms: C_6  and  C_7
REMARK    7  A    between atoms: C_7  and  C_8
REMARK    8  A    between atoms: C_8  and  O_10
REMARK    9  A    between atoms: O_10  and  C_11
REMARK   10  A    between atoms: C_11  and  C_12
REMARK   11  A    between atoms: C_12  and  C_14
REMARK   12  A    between atoms: C_14  and  O_15
REMARK   13  A    between atoms: C_28  and  C_29
REMARK   14  A    between atoms: C_31  and  O_32
REMARK   15  A    between atoms: C_34  and  C_35
REMARK                            x       y       z     vdW  Elec       q    Type
REMARK                         _______ _______ _______ _____ _____    ______ ____
ROOT
ATOM      1  C   UNL     1       0.525  10.751  20.516  0.00  0.00    +0.000 C 
ATOM      2  C   UNL     1      -0.700   9.797  20.226  0.00  0.00    +0.000 C 
ATOM      3  C   UNL     1      -1.365  10.588  19.134  0.00  0.00    +0.000 C 
ATOM      4  C   UNL     1      -1.438  11.980  19.741  0.00  0.00    +0.000 C 
ATOM      5  C   UNL     1      -2.907  12.269  19.915  0.00  0.00    +0.000 C 
ATOM      6  C   UNL     1      -3.595  12.297  18.537  0.00  0.00    +0.000 C 
ATOM      7  C   UNL     1      -4.847  11.500  18.738  0.00  0.00    +0.000 C 
ATOM      8  C   UNL     1      -5.664  12.116  19.844  0.00  0.00    +0.000 C 
ATOM      9  C   UNL     1      -7.002  12.009  19.688  0.00  0.00    +0.000 C 
ATOM     10  C   UNL     1      -7.314  13.227  18.877  0.00  0.00    +0.000 C 
ATOM     11  O   UNL     1      -7.911  13.119  17.790  0.00  0.00    +0.000 OA
ATOM     12  C   UNL     1      -6.941  14.547  19.514  0.00  0.00    +0.000 C 
ATOM     13  C   UNL     1      -5.960  14.449  20.728  0.00  0.00    +0.000 C 
ATOM     14  C   UNL     1      -5.043  13.169  20.860  0.00  0.00    +0.000 C 
ATOM     15  C   UNL     1      -5.292  12.540  22.255  0.00  0.00    +0.000 C 
ATOM     16  C   UNL     1      -3.409  13.513  20.607  0.00  0.00    +0.000 C 
ATOM     17  C   UNL     1      -2.319  13.906  21.695  0.00  0.00    +0.000 C 
ATOM     18  C   UNL     1      -0.687  13.570  21.266  0.00  0.00    +0.000 C 
ATOM     19  C   UNL     1      -0.477  12.014  20.982  0.00  0.00    +0.000 C 
ATOM     20  C   UNL     1      -0.731  11.540  22.489  0.00  0.00    +0.000 C 
ENDROOT
BRANCH   1  21
ATOM     21  C   UNL     1       1.381  10.138  19.332  0.00  0.00    +0.000 C 
ATOM     22  O   UNL     1       1.750  10.774  18.346  0.00  0.00    +0.000 OA
BRANCH  21  23
ATOM     23  C   UNL     1       1.690   8.558  19.494  0.00  0.00    +0.000 C 
BRANCH  23  24
ATOM     24  O   UNL     1       2.375   7.920  18.411  0.00  0.00    +0.000 OA
BRANCH  24  25
ATOM     25  C   UNL     1       2.766   6.666  18.656  0.00  0.00    +0.000 C 
ATOM     26  O   UNL     1       2.191   5.866  19.367  0.00  0.00    +0.000 OA
BRANCH  25  27
ATOM     27  C   UNL     1       3.989   6.326  17.828  0.00  0.00    +0.000 C 
BRANCH  27  28
ATOM     28  C   UNL     1       4.114   4.864  17.380  0.00  0.00    +0.000 C 
BRANCH  28  29
ATOM     29  C   UNL     1       4.944   3.941  18.276  0.00  0.00    +0.000 C 
BRANCH  29  30
ATOM     30  C   UNL     1       4.119   3.081  19.238  0.00  0.00    +0.000 C 
BRANCH  30  31
ATOM     31  C   UNL     1       3.544   1.845  18.537  0.00  0.00    +0.000 C 
BRANCH  31  33
ATOM     32  C   UNL     1       1.145   2.497  18.996  0.00  0.00    +0.000 C 
ATOM     33  C   UNL     1       2.168   2.131  17.931  0.00  0.00    +0.000 C 
ENDBRANCH  31  33
ENDBRANCH  30  31
ENDBRANCH  29  30
ENDBRANCH  28  29
ENDBRANCH  27  28
ENDBRANCH  25  27
ENDBRANCH  24  25
ENDBRANCH  23  24
ENDBRANCH  21  23
ENDBRANCH   1  21
BRANCH   1  34
ATOM     34  O   UNL     1       1.421  10.346  21.556  0.00  0.00    +0.000 OA
ATOM     35  H   UNL     1       1.335   9.375  21.650  0.00  0.00    +0.000 HD
ENDBRANCH   1  34
BRANCH  17  36
ATOM     36  O   UNL     1      -2.673  13.363  22.973  0.00  0.00    +0.000 OA
ATOM     37  H   UNL     1      -1.853  13.081  23.407  0.00  0.00    +0.000 HD
ENDBRANCH  17  36
TORSDOF 12
ENDMDL
MODEL 8
REMARK VINA RESULT:      -6.0      1.079      1.311
REMARK  Name = 
REMARK  15 active torsions:
REMARK  status: ('A' for Active; 'I' for Inactive)
REMARK    1  A    between atoms: C_1  and  C_2
REMARK    2  A    between atoms: C_2  and  C_3
REMARK    3  A    between atoms: C_3  and  C_4
REMARK    4  A    between atoms: C_4  and  C_5
REMARK    5  A    between atoms: C_5  and  C_6
REMARK    6  A    between atoms: C_6  and  C_7
REMARK    7  A    between atoms: C_7  and  C_8
REMARK    8  A    between atoms: C_8  and  O_10
REMARK    9  A    between atoms: O_10  and  C_11
REMARK   10  A    between atoms: C_11  and  C_12
REMARK   11  A    between atoms: C_12  and  C_14
REMARK   12  A    between atoms: C_14  and  O_15
REMARK   13  A    between atoms: C_28  and  C_29
REMARK   14  A    between atoms: C_31  and  O_32
REMARK   15  A    between atoms: C_34  and  C_35
REMARK                            x       y       z     vdW  Elec       q    Type
REMARK                         _______ _______ _______ _____ _____    ______ ____
ROOT
ATOM      1  C   UNL     1       0.765  10.069  20.359  0.00  0.00    +0.000 C 
ATOM      2  C   UNL     1      -0.595   9.317  20.078  0.00  0.00    +0.000 C 
ATOM      3  C   UNL     1      -1.153  10.222  19.015  0.00  0.00    +0.000 C 
ATOM      4  C   UNL     1      -1.003  11.597  19.648  0.00  0.00    +0.000 C 
ATOM      5  C   UNL     1      -2.407  12.101  19.858  0.00  0.00    +0.000 C 
ATOM      6  C   UNL     1      -3.109  12.262  18.496  0.00  0.00    +0.000 C 
ATOM      7  C   UNL     1      -4.463  11.659  18.710  0.00  0.00    +0.000 C 
ATOM      8  C   UNL     1      -5.157  12.369  19.844  0.00  0.00    +0.000 C 
ATOM      9  C   UNL     1      -6.498  12.468  19.715  0.00  0.00    +0.000 C 
ATOM     10  C   UNL     1      -6.636  13.736  18.933  0.00  0.00    +0.000 C 
ATOM     11  O   UNL     1      -7.263  13.743  17.857  0.00  0.00    +0.000 OA
ATOM     12  C   UNL     1      -6.056  14.971  19.585  0.00  0.00    +0.000 C 
ATOM     13  C   UNL     1      -5.078  14.701  20.775  0.00  0.00    +0.000 C 
ATOM     14  C   UNL     1      -4.364  13.294  20.865  0.00  0.00    +0.000 C 
ATOM     15  C   UNL     1      -4.679  12.682  22.254  0.00  0.00    +0.000 C 
ATOM     16  C   UNL     1      -2.702  13.392  20.583  0.00  0.00    +0.000 C 
ATOM     17  C   UNL     1      -1.544  13.593  21.653  0.00  0.00    +0.000 C 
ATOM     18  C   UNL     1       0.009  13.022  21.184  0.00  0.00    +0.000 C 
ATOM     19  C   UNL     1      -0.025  11.459  20.868  0.00  0.00    +0.000 C 
ATOM     20  C   UNL     1      -0.320  10.998  22.372  0.00  0.00    +0.000 C 
ENDROOT
BRANCH   1  21
ATOM     21  C   UNL     1       1.496   9.358  19.146  0.00  0.00    +0.000 C 
ATOM     22  O   UNL     1       1.926   9.949  18.157  0.00  0.00    +0.000 OA
BRANCH  21  23
ATOM     23  C   UNL     1       1.583   7.748  19.284  0.00  0.00    +0.000 C 
BRANCH  23  24
ATOM     24  O   UNL     1       2.894   7.173  19.319  0.00  0.00    +0.000 OA
BRANCH  24  25
ATOM     25  C   UNL     1       3.339   6.722  18.142  0.00  0.00    +0.000 C 
ATOM     26  O   UNL     1       4.069   7.320  17.379  0.00  0.00    +0.000 OA
BRANCH  25  27
ATOM     27  C   UNL     1       2.892   5.290  17.927  0.00  0.00    +0.000 C 
BRANCH  27  28
ATOM     28  C   UNL     1       3.969   4.213  18.110  0.00  0.00    +0.000 C 
BRANCH  28  29
ATOM     29  C   UNL     1       4.261   3.772  19.547  0.00  0.00    +0.000 C 
BRANCH  29  30
ATOM     30  C   UNL     1       3.472   2.543  20.006  0.00  0.00    +0.000 C 
BRANCH  30  31
ATOM     31  C   UNL     1       2.578   2.864  21.209  0.00  0.00    +0.000 C 
BRANCH  31  33
ATOM     32  C   UNL     1       0.676   2.889  19.544  0.00  0.00    +0.000 C 
ATOM     33  C   UNL     1       1.278   3.545  20.778  0.00  0.00    +0.000 C 
ENDBRANCH  31  33
ENDBRANCH  30  31
ENDBRANCH  29  30
ENDBRANCH  28  29
ENDBRANCH  27  28
ENDBRANCH  25  27
ENDBRANCH  24  25
ENDBRANCH  23  24
ENDBRANCH  21  23
ENDBRANCH   1  21
BRANCH   1  34
ATOM     34  O   UNL     1       1.609   9.512  21.372  0.00  0.00    +0.000 OA
ATOM     35  H   UNL     1       1.254   8.625  21.588  0.00  0.00    +0.000 HD
ENDBRANCH   1  34
BRANCH  17  36
ATOM     36  O   UNL     1      -1.953  13.083  22.930  0.00  0.00    +0.000 OA
ATOM     37  H   UNL     1      -2.215  12.159  22.803  0.00  0.00    +0.000 HD
ENDBRANCH  17  36
TORSDOF 12
ENDMDL
MODEL 9
REMARK VINA RESULT:      -5.9      2.154      3.849
REMARK  Name = 
REMARK  15 active torsions:
REMARK  status: ('A' for Active; 'I' for Inactive)
REMARK    1  A    between atoms: C_1  and  C_2
REMARK    2  A    between atoms: C_2  and  C_3
REMARK    3  A    between atoms: C_3  and  C_4
REMARK    4  A    between atoms: C_4  and  C_5
REMARK    5  A    between atoms: C_5  and  C_6
REMARK    6  A    between atoms: C_6  and  C_7
REMARK    7  A    between atoms: C_7  and  C_8
REMARK    8  A    between atoms: C_8  and  O_10
REMARK    9  A    between atoms: O_10  and  C_11
REMARK   10  A    between atoms: C_11  and  C_12
REMARK   11  A    between atoms: C_12  and  C_14
REMARK   12  A    between atoms: C_14  and  O_15
REMARK   13  A    between atoms: C_28  and  C_29
REMARK   14  A    between atoms: C_31  and  O_32
REMARK   15  A    between atoms: C_34  and  C_35
REMARK                            x       y       z     vdW  Elec       q    Type
REMARK                         _______ _______ _______ _____ _____    ______ ____
ROOT
ATOM      1  C   UNL     1       0.736   9.412  19.978  0.00  0.00    +0.000 C 
ATOM      2  C   UNL     1       1.293  10.331  21.135  0.00  0.00    +0.000 C 
ATOM      3  C   UNL     1       0.047  10.448  21.967  0.00  0.00    +0.000 C 
ATOM      4  C   UNL     1      -0.997  10.841  20.935  0.00  0.00    +0.000 C 
ATOM      5  C   UNL     1      -1.431  12.235  21.309  0.00  0.00    +0.000 C 
ATOM      6  C   UNL     1      -2.098  12.214  22.698  0.00  0.00    +0.000 C 
ATOM      7  C   UNL     1      -1.499  13.389  23.407  0.00  0.00    +0.000 C 
ATOM      8  C   UNL     1      -1.768  14.644  22.618  0.00  0.00    +0.000 C 
ATOM      9  C   UNL     1      -1.947  15.756  23.364  0.00  0.00    +0.000 C 
ATOM     10  C   UNL     1      -3.416  15.704  23.642  0.00  0.00    +0.000 C 
ATOM     11  O   UNL     1      -3.833  15.730  24.815  0.00  0.00    +0.000 OA
ATOM     12  C   UNL     1      -4.310  15.713  22.423  0.00  0.00    +0.000 C 
ATOM     13  C   UNL     1      -3.597  15.395  21.068  0.00  0.00    +0.000 C 
ATOM     14  C   UNL     1      -2.233  14.598  21.099  0.00  0.00    +0.000 C 
ATOM     15  C   UNL     1      -1.166  15.436  20.350  0.00  0.00    +0.000 C 
ATOM     16  C   UNL     1      -2.378  13.043  20.454  0.00  0.00    +0.000 C 
ATOM     17  C   UNL     1      -2.141  12.589  18.950  0.00  0.00    +0.000 C 
ATOM     18  C   UNL     1      -1.734  10.932  18.729  0.00  0.00    +0.000 C 
ATOM     19  C   UNL     1      -0.395  10.559  19.512  0.00  0.00    +0.000 C 
ATOM     20  C   UNL     1       0.573  11.461  18.612  0.00  0.00    +0.000 C 
ENDROOT
BRANCH   1  21
ATOM     21  C   UNL     1       0.977   8.086  20.812  0.00  0.00    +0.000 C 
ATOM     22  O   UNL     1       0.238   7.692  21.712  0.00  0.00    +0.000 OA
BRANCH  21  23
ATOM     23  C   UNL     1       2.337   7.300  20.418  0.00  0.00    +0.000 C 
BRANCH  23  24
ATOM     24  O   UNL     1       2.200   6.172  19.547  0.00  0.00    +0.000 OA
BRANCH  24  25
ATOM     25  C   UNL     1       2.009   5.005  20.167  0.00  0.00    +0.000 C 
ATOM     26  O   UNL     1       2.258   4.767  21.332  0.00  0.00    +0.000 OA
BRANCH  25  27
ATOM     27  C   UNL     1       1.325   4.023  19.238  0.00  0.00    +0.000 C 
BRANCH  27  28
ATOM     28  C   UNL     1       1.743   4.086  17.764  0.00  0.00    +0.000 C 
BRANCH  28  29
ATOM     29  C   UNL     1       3.096   3.464  17.407  0.00  0.00    +0.000 C 
BRANCH  29  30
ATOM     30  C   UNL     1       4.207   4.480  17.127  0.00  0.00    +0.000 C 
BRANCH  30  31
ATOM     31  C   UNL     1       5.098   4.033  15.962  0.00  0.00    +0.000 C 
BRANCH  31  33
ATOM     32  C   UNL     1       6.749   4.780  14.198  0.00  0.00    +0.000 C 
ATOM     33  C   UNL     1       5.804   5.222  15.306  0.00  0.00    +0.000 C 
ENDBRANCH  31  33
ENDBRANCH  30  31
ENDBRANCH  29  30
ENDBRANCH  28  29
ENDBRANCH  27  28
ENDBRANCH  25  27
ENDBRANCH  24  25
ENDBRANCH  23  24
ENDBRANCH  21  23
ENDBRANCH   1  21
BRANCH   1  34
ATOM     34  O   UNL     1       1.649   9.079  18.927  0.00  0.00    +0.000 OA
ATOM     35  H   UNL     1       1.813   9.899  18.416  0.00  0.00    +0.000 HD
ENDBRANCH   1  34
BRANCH  17  36
ATOM     36  O   UNL     1      -1.213  13.471  18.304  0.00  0.00    +0.000 OA
ATOM     37  H   UNL     1      -0.455  12.938  18.018  0.00  0.00    +0.000 HD
ENDBRANCH  17  36
TORSDOF 12
ENDMDL
