MODEL 1
REMARK VINA RESULT:      -6.2      0.000      0.000
REMARK  Name = 
REMARK  7 active torsions:
REMARK  status: ('A' for Active; 'I' for Inactive)
REMARK    1  A    between atoms: C_1  and  C_2
REMARK    2  A    between atoms: C_2  and  C_3
REMARK    3  A    between atoms: N_5  and  C_6
REMARK    4  A    between atoms: C_11  and  C_12
REMARK    5  A    between atoms: N_19  and  C_20
REMARK    6  A    between atoms: C_22  and  C_23
REMARK    7  A    between atoms: N_26  and  C_27
REMARK                            x       y       z     vdW  Elec       q    Type
REMARK                         _______ _______ _______ _____ _____    ______ ____
ROOT
ATOM      1  C   UNL     1      -3.791  10.640  18.094  0.00  0.00    +0.000 A 
ATOM      2  N   UNL     1      -5.117  10.600  18.324  0.00  0.00    +0.000 NA
ATOM      3  N   UNL     1      -5.370  11.694  19.090  0.00  0.00    +0.000 N 
ATOM      4  C   UNL     1      -4.230  12.334  19.410  0.00  0.00    +0.000 A 
ATOM      5  C   UNL     1      -3.208  11.738  18.733  0.00  0.00    +0.000 A 
ATOM      6  C   UNL     1      -1.927  12.427  19.031  0.00  0.00    +0.000 C 
ATOM      7  N   UNL     1      -2.365  13.345  20.137  0.00  0.00    +0.000 N 
ATOM      8  C   UNL     1      -3.788  13.365  20.269  0.00  0.00    +0.000 C 
ATOM      9  O   UNL     1      -4.489  14.061  20.982  0.00  0.00    +0.000 OA
ENDROOT
BRANCH   7  10
ATOM     10  C   UNL     1      -1.482  13.928  21.041  0.00  0.00    +0.000 A 
ATOM     11  C   UNL     1      -0.224  14.460  20.538  0.00  0.00    +0.000 A 
ATOM     12  C   UNL     1       0.617  15.166  21.299  0.00  0.00    +0.000 A 
ATOM     13  C   UNL     1       1.854  15.816  20.768  0.00  0.00    +0.000 C 
ATOM     14  C   UNL     1       0.314  15.356  22.749  0.00  0.00    +0.000 A 
ATOM     15  O   UNL     1       1.105  15.961  23.468  0.00  0.00    +0.000 OA
ATOM     16  N   UNL     1      -0.897  14.818  23.188  0.00  0.00    +0.000 N 
ATOM     17  C   UNL     1      -1.248  14.957  24.593  0.00  0.00    +0.000 C 
ATOM     18  C   UNL     1      -1.770  14.147  22.338  0.00  0.00    +0.000 A 
ENDBRANCH   7  10
BRANCH   6  19
ATOM     19  C   UNL     1      -0.936  11.356  19.428  0.00  0.00    +0.000 A 
ATOM     20  C   UNL     1      -1.033  10.739  20.688  0.00  0.00    +0.000 A 
ATOM     21  C   UNL     1      -0.151   9.716  21.049  0.00  0.00    +0.000 A 
ATOM     22  C   UNL     1       0.837   9.306  20.156  0.00  0.00    +0.000 A 
ATOM     23 CL   UNL     1       1.911   8.035  20.589  0.00  0.00    +0.000 Cl
ATOM     24  C   UNL     1       0.957   9.914  18.909  0.00  0.00    +0.000 A 
ATOM     25  C   UNL     1       0.076  10.931  18.548  0.00  0.00    +0.000 A 
ENDBRANCH   6  19
BRANCH   3  26
ATOM     26  C   UNL     1      -6.705  12.177  19.364  0.00  0.00    +0.000 C 
ATOM     27  C   UNL     1      -7.625  11.285  20.192  0.00  0.00    +0.000 C 
ATOM     28  C   UNL     1      -7.221  12.614  20.723  0.00  0.00    +0.000 C 
ENDBRANCH   3  26
BRANCH   1  30
ATOM     29  C   UNL     1      -2.885   9.972  15.853  0.00  0.00    +0.000 C 
ATOM     30  C   UNL     1      -3.148   9.557  17.291  0.00  0.00    +0.000 C 
ENDBRANCH   1  30
TORSDOF 4
ENDMDL
MODEL 2
REMARK VINA RESULT:      -6.2      3.927      6.049
REMARK  Name = 
REMARK  7 active torsions:
REMARK  status: ('A' for Active; 'I' for Inactive)
REMARK    1  A    between atoms: C_1  and  C_2
REMARK    2  A    between atoms: C_2  and  C_3
REMARK    3  A    between atoms: N_5  and  C_6
REMARK    4  A    between atoms: C_11  and  C_12
REMARK    5  A    between atoms: N_19  and  C_20
REMARK    6  A    between atoms: C_22  and  C_23
REMARK    7  A    between atoms: N_26  and  C_27
REMARK                            x       y       z     vdW  Elec       q    Type
REMARK                         _______ _______ _______ _____ _____    ______ ____
ROOT
ATOM      1  C   UNL     1       0.190   9.892  20.869  0.00  0.00    +0.000 A 
ATOM      2  N   UNL     1       0.442   9.051  19.847  0.00  0.00    +0.000 NA
ATOM      3  N   UNL     1       1.195   9.776  18.978  0.00  0.00    +0.000 N 
ATOM      4  C   UNL     1       1.321  11.050  19.393  0.00  0.00    +0.000 A 
ATOM      5  C   UNL     1       0.759  11.147  20.632  0.00  0.00    +0.000 A 
ATOM      6  C   UNL     1       0.897  12.531  21.149  0.00  0.00    +0.000 C 
ATOM      7  N   UNL     1       1.419  13.227  19.923  0.00  0.00    +0.000 N 
ATOM      8  C   UNL     1       1.787  12.292  18.908  0.00  0.00    +0.000 C 
ATOM      9  O   UNL     1       2.334  12.489  17.836  0.00  0.00    +0.000 OA
ENDROOT
BRANCH   7  10
ATOM     10  C   UNL     1       1.349  14.604  19.738  0.00  0.00    +0.000 A 
ATOM     11  C   UNL     1       2.393  15.436  20.318  0.00  0.00    +0.000 A 
ATOM     12  C   UNL     1       2.492  16.746  20.071  0.00  0.00    +0.000 A 
ATOM     13  C   UNL     1       3.624  17.589  20.564  0.00  0.00    +0.000 C 
ATOM     14  C   UNL     1       1.451  17.418  19.238  0.00  0.00    +0.000 A 
ATOM     15  O   UNL     1       1.506  18.631  19.046  0.00  0.00    +0.000 OA
ATOM     16  N   UNL     1       0.464  16.582  18.714  0.00  0.00    +0.000 N 
ATOM     17  C   UNL     1      -0.589  17.175  17.903  0.00  0.00    +0.000 C 
ATOM     18  C   UNL     1       0.443  15.211  18.948  0.00  0.00    +0.000 A 
ENDBRANCH   7  10
BRANCH   6  19
ATOM     19  C   UNL     1      -0.477  12.966  21.609  0.00  0.00    +0.000 A 
ATOM     20  C   UNL     1      -1.586  12.809  20.759  0.00  0.00    +0.000 A 
ATOM     21  C   UNL     1      -2.868  13.164  21.189  0.00  0.00    +0.000 A 
ATOM     22  C   UNL     1      -3.049  13.685  22.469  0.00  0.00    +0.000 A 
ATOM     23 CL   UNL     1      -4.626  14.104  23.009  0.00  0.00    +0.000 Cl
ATOM     24  C   UNL     1      -1.961  13.859  23.320  0.00  0.00    +0.000 A 
ATOM     25  C   UNL     1      -0.685  13.502  22.893  0.00  0.00    +0.000 A 
ENDBRANCH   6  19
BRANCH   3  26
ATOM     26  C   UNL     1       1.895   9.189  17.857  0.00  0.00    +0.000 C 
ATOM     27  C   UNL     1       3.081   8.279  18.161  0.00  0.00    +0.000 C 
ATOM     28  C   UNL     1       1.881   7.718  17.484  0.00  0.00    +0.000 C 
ENDBRANCH   3  26
BRANCH   1  30
ATOM     29  C   UNL     1       0.057   9.576  23.352  0.00  0.00    +0.000 C 
ATOM     30  C   UNL     1      -0.649   9.430  22.015  0.00  0.00    +0.000 C 
ENDBRANCH   1  30
TORSDOF 4
ENDMDL
MODEL 3
REMARK VINA RESULT:      -6.2      3.881      5.768
REMARK  Name = 
REMARK  7 active torsions:
REMARK  status: ('A' for Active; 'I' for Inactive)
REMARK    1  A    between atoms: C_1  and  C_2
REMARK    2  A    between atoms: C_2  and  C_3
REMARK    3  A    between atoms: N_5  and  C_6
REMARK    4  A    between atoms: C_11  and  C_12
REMARK    5  A    between atoms: N_19  and  C_20
REMARK    6  A    between atoms: C_22  and  C_23
REMARK    7  A    between atoms: N_26  and  C_27
REMARK                            x       y       z     vdW  Elec       q    Type
REMARK                         _______ _______ _______ _____ _____    ______ ____
ROOT
ATOM      1  C   UNL     1       0.938  11.956  19.629  0.00  0.00    +0.000 A 
ATOM      2  N   UNL     1       1.499  10.817  20.079  0.00  0.00    +0.000 NA
ATOM      3  N   UNL     1       0.763  10.475  21.170  0.00  0.00    +0.000 N 
ATOM      4  C   UNL     1      -0.155  11.419  21.449  0.00  0.00    +0.000 A 
ATOM      5  C   UNL     1      -0.127  12.343  20.447  0.00  0.00    +0.000 A 
ATOM      6  C   UNL     1      -1.145  13.395  20.693  0.00  0.00    +0.000 C 
ATOM      7  N   UNL     1      -1.580  13.030  22.084  0.00  0.00    +0.000 N 
ATOM      8  C   UNL     1      -1.061  11.758  22.478  0.00  0.00    +0.000 C 
ATOM      9  O   UNL     1      -1.287  11.108  23.484  0.00  0.00    +0.000 OA
ENDROOT
BRANCH   7  10
ATOM     10  C   UNL     1      -2.227  13.916  22.940  0.00  0.00    +0.000 A 
ATOM     11  C   UNL     1      -1.509  14.401  24.109  0.00  0.00    +0.000 A 
ATOM     12  C   UNL     1      -1.990  15.362  24.904  0.00  0.00    +0.000 A 
ATOM     13  C   UNL     1      -1.214  15.951  26.038  0.00  0.00    +0.000 C 
ATOM     14  C   UNL     1      -3.353  15.915  24.648  0.00  0.00    +0.000 A 
ATOM     15  O   UNL     1      -3.824  16.763  25.402  0.00  0.00    +0.000 OA
ATOM     16  N   UNL     1      -4.008  15.410  23.523  0.00  0.00    +0.000 N 
ATOM     17  C   UNL     1      -5.346  15.896  23.223  0.00  0.00    +0.000 C 
ATOM     18  C   UNL     1      -3.436  14.455  22.689  0.00  0.00    +0.000 A 
ENDBRANCH   7  10
BRANCH   6  19
ATOM     19  C   UNL     1      -0.439  14.727  20.561  0.00  0.00    +0.000 A 
ATOM     20  C   UNL     1       0.635  15.042  21.411  0.00  0.00    +0.000 A 
ATOM     21  C   UNL     1       1.324  16.249  21.268  0.00  0.00    +0.000 A 
ATOM     22  C   UNL     1       0.941  17.153  20.279  0.00  0.00    +0.000 A 
ATOM     23 CL   UNL     1       1.799  18.631  20.088  0.00  0.00    +0.000 Cl
ATOM     24  C   UNL     1      -0.129  16.864  19.436  0.00  0.00    +0.000 A 
ATOM     25  C   UNL     1      -0.813  15.659  19.575  0.00  0.00    +0.000 A 
ENDBRANCH   6  19
BRANCH   3  26
ATOM     26  C   UNL     1       0.862   9.187  21.819  0.00  0.00    +0.000 C 
ATOM     27  C   UNL     1      -0.246   8.173  21.551  0.00  0.00    +0.000 C 
ATOM     28  C   UNL     1       1.145   7.870  21.120  0.00  0.00    +0.000 C 
ENDBRANCH   3  26
BRANCH   1  30
ATOM     29  C   UNL     1       2.712  13.513  18.783  0.00  0.00    +0.000 C 
ATOM     30  C   UNL     1       1.517  12.641  18.434  0.00  0.00    +0.000 C 
ENDBRANCH   1  30
TORSDOF 4
ENDMDL
MODEL 4
REMARK VINA RESULT:      -6.2      2.707      6.075
REMARK  Name = 
REMARK  7 active torsions:
REMARK  status: ('A' for Active; 'I' for Inactive)
REMARK    1  A    between atoms: C_1  and  C_2
REMARK    2  A    between atoms: C_2  and  C_3
REMARK    3  A    between atoms: N_5  and  C_6
REMARK    4  A    between atoms: C_11  and  C_12
REMARK    5  A    between atoms: N_19  and  C_20
REMARK    6  A    between atoms: C_22  and  C_23
REMARK    7  A    between atoms: N_26  and  C_27
REMARK                            x       y       z     vdW  Elec       q    Type
REMARK                         _______ _______ _______ _____ _____    ______ ____
ROOT
ATOM      1  C   UNL     1       1.958  12.079  18.832  0.00  0.00    +0.000 A 
ATOM      2  N   UNL     1       2.806  13.120  18.941  0.00  0.00    +0.000 NA
ATOM      3  N   UNL     1       2.350  13.831  20.006  0.00  0.00    +0.000 N 
ATOM      4  C   UNL     1       1.202  13.310  20.478  0.00  0.00    +0.000 A 
ATOM      5  C   UNL     1       0.957  12.149  19.806  0.00  0.00    +0.000 A 
ATOM      6  C   UNL     1      -0.287  11.518  20.311  0.00  0.00    +0.000 C 
ATOM      7  N   UNL     1      -0.803  12.614  21.202  0.00  0.00    +0.000 N 
ATOM      8  C   UNL     1       0.174  13.640  21.389  0.00  0.00    +0.000 C 
ATOM      9  O   UNL     1       0.141  14.616  22.118  0.00  0.00    +0.000 OA
ENDROOT
BRANCH   7  10
ATOM     10  C   UNL     1      -2.130  12.704  21.612  0.00  0.00    +0.000 A 
ATOM     11  C   UNL     1      -3.158  12.891  20.599  0.00  0.00    +0.000 A 
ATOM     12  C   UNL     1      -4.463  12.841  20.878  0.00  0.00    +0.000 A 
ATOM     13  C   UNL     1      -5.528  12.915  19.832  0.00  0.00    +0.000 C 
ATOM     14  C   UNL     1      -4.907  12.672  22.294  0.00  0.00    +0.000 A 
ATOM     15  O   UNL     1      -6.105  12.675  22.568  0.00  0.00    +0.000 OA
ATOM     16  N   UNL     1      -3.885  12.510  23.232  0.00  0.00    +0.000 N 
ATOM     17  C   UNL     1      -4.248  12.354  24.632  0.00  0.00    +0.000 C 
ATOM     18  C   UNL     1      -2.540  12.504  22.879  0.00  0.00    +0.000 A 
ENDBRANCH   7  10
BRANCH   6  19
ATOM     19  C   UNL     1      -1.142  11.206  19.103  0.00  0.00    +0.000 A 
ATOM     20  C   UNL     1      -1.316  12.172  18.096  0.00  0.00    +0.000 A 
ATOM     21  C   UNL     1      -2.065  11.880  16.953  0.00  0.00    +0.000 A 
ATOM     22  C   UNL     1      -2.651  10.623  16.811  0.00  0.00    +0.000 A 
ATOM     23 CL   UNL     1      -3.557  10.254  15.397  0.00  0.00    +0.000 Cl
ATOM     24  C   UNL     1      -2.500   9.659  17.803  0.00  0.00    +0.000 A 
ATOM     25  C   UNL     1      -1.750   9.948  18.941  0.00  0.00    +0.000 A 
ENDBRANCH   6  19
BRANCH   3  26
ATOM     26  C   UNL     1       3.106  14.894  20.631  0.00  0.00    +0.000 C 
ATOM     27  C   UNL     1       3.985  14.530  21.823  0.00  0.00    +0.000 C 
ATOM     28  C   UNL     1       4.614  15.048  20.579  0.00  0.00    +0.000 C 
ENDBRANCH   3  26
BRANCH   1  30
ATOM     29  C   UNL     1       1.922   9.655  18.193  0.00  0.00    +0.000 C 
ATOM     30  C   UNL     1       2.145  11.086  17.732  0.00  0.00    +0.000 C 
ENDBRANCH   1  30
TORSDOF 4
ENDMDL
MODEL 5
REMARK VINA RESULT:      -6.2      2.626      6.041
REMARK  Name = 
REMARK  7 active torsions:
REMARK  status: ('A' for Active; 'I' for Inactive)
REMARK    1  A    between atoms: C_1  and  C_2
REMARK    2  A    between atoms: C_2  and  C_3
REMARK    3  A    between atoms: N_5  and  C_6
REMARK    4  A    between atoms: C_11  and  C_12
REMARK    5  A    between atoms: N_19  and  C_20
REMARK    6  A    between atoms: C_22  and  C_23
REMARK    7  A    between atoms: N_26  and  C_27
REMARK                            x       y       z     vdW  Elec       q    Type
REMARK                         _______ _______ _______ _____ _____    ______ ____
ROOT
ATOM      1  C   UNL     1       1.882  12.178  18.911  0.00  0.00    +0.000 A 
ATOM      2  N   UNL     1       2.708  13.235  19.034  0.00  0.00    +0.000 NA
ATOM      3  N   UNL     1       2.192  13.963  20.059  0.00  0.00    +0.000 N 
ATOM      4  C   UNL     1       1.031  13.435  20.490  0.00  0.00    +0.000 A 
ATOM      5  C   UNL     1       0.836  12.255  19.836  0.00  0.00    +0.000 A 
ATOM      6  C   UNL     1      -0.420  11.615  20.297  0.00  0.00    +0.000 C 
ATOM      7  N   UNL     1      -0.994  12.723  21.137  0.00  0.00    +0.000 N 
ATOM      8  C   UNL     1      -0.044  13.769  21.343  0.00  0.00    +0.000 C 
ATOM      9  O   UNL     1      -0.126  14.761  22.046  0.00  0.00    +0.000 OA
ENDROOT
BRANCH   7  10
ATOM     10  C   UNL     1      -2.340  12.801  21.482  0.00  0.00    +0.000 A 
ATOM     11  C   UNL     1      -2.732  12.432  22.834  0.00  0.00    +0.000 A 
ATOM     12  C   UNL     1      -3.971  12.614  23.301  0.00  0.00    +0.000 A 
ATOM     13  C   UNL     1      -4.359  12.350  24.720  0.00  0.00    +0.000 C 
ATOM     14  C   UNL     1      -5.031  13.137  22.389  0.00  0.00    +0.000 A 
ATOM     15  O   UNL     1      -6.185  13.262  22.795  0.00  0.00    +0.000 OA
ATOM     16  N   UNL     1      -4.611  13.465  21.099  0.00  0.00    +0.000 N 
ATOM     17  C   UNL     1      -5.597  13.968  20.155  0.00  0.00    +0.000 C 
ATOM     18  C   UNL     1      -3.292  13.318  20.682  0.00  0.00    +0.000 A 
ENDBRANCH   7  10
BRANCH   6  19
ATOM     19  C   UNL     1      -1.213  11.261  19.058  0.00  0.00    +0.000 A 
ATOM     20  C   UNL     1      -1.339  12.193  18.013  0.00  0.00    +0.000 A 
ATOM     21  C   UNL     1      -2.029  11.860  16.844  0.00  0.00    +0.000 A 
ATOM     22  C   UNL     1      -2.604  10.597  16.714  0.00  0.00    +0.000 A 
ATOM     23 CL   UNL     1      -3.437  10.178  15.269  0.00  0.00    +0.000 Cl
ATOM     24  C   UNL     1      -2.501   9.666  17.744  0.00  0.00    +0.000 A 
ATOM     25  C   UNL     1      -1.810   9.996  18.907  0.00  0.00    +0.000 A 
ENDBRANCH   6  19
BRANCH   3  26
ATOM     26  C   UNL     1       2.901  15.053  20.692  0.00  0.00    +0.000 C 
ATOM     27  C   UNL     1       3.593  16.068  19.787  0.00  0.00    +0.000 C 
ATOM     28  C   UNL     1       2.478  16.510  20.665  0.00  0.00    +0.000 C 
ENDBRANCH   3  26
BRANCH   1  30
ATOM     29  C   UNL     1       1.885   9.742  18.321  0.00  0.00    +0.000 C 
ATOM     30  C   UNL     1       2.136  11.163  17.845  0.00  0.00    +0.000 C 
ENDBRANCH   1  30
TORSDOF 4
ENDMDL
MODEL 6
REMARK VINA RESULT:      -6.1      3.008      5.195
REMARK  Name = 
REMARK  7 active torsions:
REMARK  status: ('A' for Active; 'I' for Inactive)
REMARK    1  A    between atoms: C_1  and  C_2
REMARK    2  A    between atoms: C_2  and  C_3
REMARK    3  A    between atoms: N_5  and  C_6
REMARK    4  A    between atoms: C_11  and  C_12
REMARK    5  A    between atoms: N_19  and  C_20
REMARK    6  A    between atoms: C_22  and  C_23
REMARK    7  A    between atoms: N_26  and  C_27
REMARK                            x       y       z     vdW  Elec       q    Type
REMARK                         _______ _______ _______ _____ _____    ______ ____
ROOT
ATOM      1  C   UNL     1      -5.620  13.227  21.810  0.00  0.00    +0.000 A 
ATOM      2  N   UNL     1      -6.626  13.263  20.915  0.00  0.00    +0.000 NA
ATOM      3  N   UNL     1      -6.098  12.743  19.776  0.00  0.00    +0.000 N 
ATOM      4  C   UNL     1      -4.784  12.488  19.925  0.00  0.00    +0.000 A 
ATOM      5  C   UNL     1      -4.457  12.712  21.230  0.00  0.00    +0.000 A 
ATOM      6  C   UNL     1      -3.020  12.417  21.454  0.00  0.00    +0.000 C 
ATOM      7  N   UNL     1      -2.562  12.212  20.037  0.00  0.00    +0.000 N 
ATOM      8  C   UNL     1      -3.668  12.135  19.136  0.00  0.00    +0.000 C 
ATOM      9  O   UNL     1      -3.678  11.877  17.944  0.00  0.00    +0.000 OA
ENDROOT
BRANCH   7  10
ATOM     10  C   UNL     1      -1.230  12.298  19.645  0.00  0.00    +0.000 A 
ATOM     11  C   UNL     1      -0.514  11.067  19.345  0.00  0.00    +0.000 A 
ATOM     12  C   UNL     1       0.716  11.056  18.821  0.00  0.00    +0.000 A 
ATOM     13  C   UNL     1       1.417   9.805  18.401  0.00  0.00    +0.000 C 
ATOM     14  C   UNL     1       1.435  12.347  18.606  0.00  0.00    +0.000 A 
ATOM     15  O   UNL     1       2.584  12.346  18.171  0.00  0.00    +0.000 OA
ATOM     16  N   UNL     1       0.713  13.500  18.919  0.00  0.00    +0.000 N 
ATOM     17  C   UNL     1       1.359  14.792  18.744  0.00  0.00    +0.000 C 
ATOM     18  C   UNL     1      -0.592  13.459  19.401  0.00  0.00    +0.000 A 
ENDBRANCH   7  10
BRANCH   6  19
ATOM     19  C   UNL     1      -2.431  13.618  22.161  0.00  0.00    +0.000 A 
ATOM     20  C   UNL     1      -2.660  14.912  21.659  0.00  0.00    +0.000 A 
ATOM     21  C   UNL     1      -2.160  16.032  22.329  0.00  0.00    +0.000 A 
ATOM     22  C   UNL     1      -1.423  15.867  23.500  0.00  0.00    +0.000 A 
ATOM     23 CL   UNL     1      -0.823  17.244  24.337  0.00  0.00    +0.000 Cl
ATOM     24  C   UNL     1      -1.176  14.594  24.005  0.00  0.00    +0.000 A 
ATOM     25  C   UNL     1      -1.677  13.477  23.340  0.00  0.00    +0.000 A 
ENDBRANCH   6  19
BRANCH   3  26
ATOM     26  C   UNL     1      -6.898  12.366  18.633  0.00  0.00    +0.000 C 
ATOM     27  C   UNL     1      -7.871  13.402  18.077  0.00  0.00    +0.000 C 
ATOM     28  C   UNL     1      -6.746  12.924  17.230  0.00  0.00    +0.000 C 
ENDBRANCH   3  26
BRANCH   1  30
ATOM     29  C   UNL     1      -6.961  13.033  23.919  0.00  0.00    +0.000 C 
ATOM     30  C   UNL     1      -5.840  13.754  23.190  0.00  0.00    +0.000 C 
ENDBRANCH   1  30
TORSDOF 4
ENDMDL
MODEL 7
REMARK VINA RESULT:      -6.1      3.980      6.083
REMARK  Name = 
REMARK  7 active torsions:
REMARK  status: ('A' for Active; 'I' for Inactive)
REMARK    1  A    between atoms: C_1  and  C_2
REMARK    2  A    between atoms: C_2  and  C_3
REMARK    3  A    between atoms: N_5  and  C_6
REMARK    4  A    between atoms: C_11  and  C_12
REMARK    5  A    between atoms: N_19  and  C_20
REMARK    6  A    between atoms: C_22  and  C_23
REMARK    7  A    between atoms: N_26  and  C_27
REMARK                            x       y       z     vdW  Elec       q    Type
REMARK                         _______ _______ _______ _____ _____    ______ ____
ROOT
ATOM      1  C   UNL     1      -0.024  10.075  20.928  0.00  0.00    +0.000 A 
ATOM      2  N   UNL     1       0.085   9.181  19.927  0.00  0.00    +0.000 NA
ATOM      3  N   UNL     1       0.885   9.784  19.008  0.00  0.00    +0.000 N 
ATOM      4  C   UNL     1       1.179  11.045  19.376  0.00  0.00    +0.000 A 
ATOM      5  C   UNL     1       0.681  11.245  20.630  0.00  0.00    +0.000 A 
ATOM      6  C   UNL     1       1.004  12.616  21.096  0.00  0.00    +0.000 C 
ATOM      7  N   UNL     1       1.557  13.208  19.830  0.00  0.00    +0.000 N 
ATOM      8  C   UNL     1       1.772  12.207  18.834  0.00  0.00    +0.000 C 
ATOM      9  O   UNL     1       2.296  12.305  17.738  0.00  0.00    +0.000 OA
ENDROOT
BRANCH   7  10
ATOM     10  C   UNL     1       1.646  14.578  19.601  0.00  0.00    +0.000 A 
ATOM     11  C   UNL     1       0.628  15.211  18.777  0.00  0.00    +0.000 A 
ATOM     12  C   UNL     1       0.544  16.536  18.623  0.00  0.00    +0.000 A 
ATOM     13  C   UNL     1      -0.563  17.207  17.875  0.00  0.00    +0.000 C 
ATOM     14  C   UNL     1       1.578  17.415  19.247  0.00  0.00    +0.000 A 
ATOM     15  O   UNL     1       1.539  18.631  19.071  0.00  0.00    +0.000 OA
ATOM     16  N   UNL     1       2.541  16.762  20.018  0.00  0.00    +0.000 N 
ATOM     17  C   UNL     1       3.585  17.558  20.644  0.00  0.00    +0.000 C 
ATOM     18  C   UNL     1       2.545  15.383  20.200  0.00  0.00    +0.000 A 
ENDBRANCH   7  10
BRANCH   6  19
ATOM     19  C   UNL     1      -0.289  13.228  21.588  0.00  0.00    +0.000 A 
ATOM     20  C   UNL     1      -1.398  13.316  20.728  0.00  0.00    +0.000 A 
ATOM     21  C   UNL     1      -2.612  13.836  21.186  0.00  0.00    +0.000 A 
ATOM     22  C   UNL     1      -2.725  14.277  22.504  0.00  0.00    +0.000 A 
ATOM     23 CL   UNL     1      -4.222  14.899  23.075  0.00  0.00    +0.000 Cl
ATOM     24  C   UNL     1      -1.634  14.209  23.365  0.00  0.00    +0.000 A 
ATOM     25  C   UNL     1      -0.425  13.687  22.911  0.00  0.00    +0.000 A 
ENDBRANCH   6  19
BRANCH   3  26
ATOM     26  C   UNL     1       1.466   9.085  17.883  0.00  0.00    +0.000 C 
ATOM     27  C   UNL     1       2.977   8.875  17.883  0.00  0.00    +0.000 C 
ATOM     28  C   UNL     1       2.074   7.695  17.931  0.00  0.00    +0.000 C 
ENDBRANCH   3  26
BRANCH   1  30
ATOM     29  C   UNL     1      -0.053   9.627  23.395  0.00  0.00    +0.000 C 
ATOM     30  C   UNL     1      -0.867   9.751  22.118  0.00  0.00    +0.000 C 
ENDBRANCH   1  30
TORSDOF 4
ENDMDL
MODEL 8
REMARK VINA RESULT:      -6.0      3.066      6.069
REMARK  Name = 
REMARK  7 active torsions:
REMARK  status: ('A' for Active; 'I' for Inactive)
REMARK    1  A    between atoms: C_1  and  C_2
REMARK    2  A    between atoms: C_2  and  C_3
REMARK    3  A    between atoms: N_5  and  C_6
REMARK    4  A    between atoms: C_11  and  C_12
REMARK    5  A    between atoms: N_19  and  C_20
REMARK    6  A    between atoms: C_22  and  C_23
REMARK    7  A    between atoms: N_26  and  C_27
REMARK                            x       y       z     vdW  Elec       q    Type
REMARK                         _______ _______ _______ _____ _____    ______ ____
ROOT
ATOM      1  C   UNL     1      -3.773  15.755  23.578  0.00  0.00    +0.000 A 
ATOM      2  N   UNL     1      -5.118  15.816  23.609  0.00  0.00    +0.000 NA
ATOM      3  N   UNL     1      -5.532  14.663  23.021  0.00  0.00    +0.000 N 
ATOM      4  C   UNL     1      -4.486  13.959  22.548  0.00  0.00    +0.000 A 
ATOM      5  C   UNL     1      -3.343  14.583  22.948  0.00  0.00    +0.000 A 
ATOM      6  C   UNL     1      -2.156  13.828  22.476  0.00  0.00    +0.000 C 
ATOM      7  N   UNL     1      -2.816  12.824  21.573  0.00  0.00    +0.000 N 
ATOM      8  C   UNL     1      -4.237  12.838  21.726  0.00  0.00    +0.000 C 
ATOM      9  O   UNL     1      -5.075  12.100  21.237  0.00  0.00    +0.000 OA
ENDROOT
BRANCH   7  10
ATOM     10  C   UNL     1      -2.138  12.130  20.576  0.00  0.00    +0.000 A 
ATOM     11  C   UNL     1      -1.004  11.301  20.956  0.00  0.00    +0.000 A 
ATOM     12  C   UNL     1      -0.385  10.486  20.096  0.00  0.00    +0.000 A 
ATOM     13  C   UNL     1       0.703   9.544  20.499  0.00  0.00    +0.000 C 
ATOM     14  C   UNL     1      -0.805  10.473  18.663  0.00  0.00    +0.000 A 
ATOM     15  O   UNL     1      -0.210   9.764  17.855  0.00  0.00    +0.000 OA
ATOM     16  N   UNL     1      -1.888  11.293  18.344  0.00  0.00    +0.000 N 
ATOM     17  C   UNL     1      -2.340  11.338  16.961  0.00  0.00    +0.000 C 
ATOM     18  C   UNL     1      -2.541  12.075  19.292  0.00  0.00    +0.000 A 
ENDBRANCH   7  10
BRANCH   6  19
ATOM     19  C   UNL     1      -1.249  14.824  21.787  0.00  0.00    +0.000 A 
ATOM     20  C   UNL     1       0.071  15.004  22.238  0.00  0.00    +0.000 A 
ATOM     21  C   UNL     1       0.933  15.887  21.581  0.00  0.00    +0.000 A 
ATOM     22  C   UNL     1       0.480  16.600  20.472  0.00  0.00    +0.000 A 
ATOM     23 CL   UNL     1       1.544  17.672  19.650  0.00  0.00    +0.000 Cl
ATOM     24  C   UNL     1      -0.826  16.445  20.019  0.00  0.00    +0.000 A 
ATOM     25  C   UNL     1      -1.685  15.563  20.671  0.00  0.00    +0.000 A 
ENDBRANCH   6  19
BRANCH   3  26
ATOM     26  C   UNL     1      -6.901  14.200  23.064  0.00  0.00    +0.000 C 
ATOM     27  C   UNL     1      -7.263  13.156  24.116  0.00  0.00    +0.000 C 
ATOM     28  C   UNL     1      -7.897  14.500  24.169  0.00  0.00    +0.000 C 
ENDBRANCH   3  26
BRANCH   1  30
ATOM     29  C   UNL     1      -2.268  16.532  25.427  0.00  0.00    +0.000 C 
ATOM     30  C   UNL     1      -2.970  16.888  24.127  0.00  0.00    +0.000 C 
ENDBRANCH   1  30
TORSDOF 4
ENDMDL
MODEL 9
REMARK VINA RESULT:      -6.0      3.639      5.909
REMARK  Name = 
REMARK  7 active torsions:
REMARK  status: ('A' for Active; 'I' for Inactive)
REMARK    1  A    between atoms: C_1  and  C_2
REMARK    2  A    between atoms: C_2  and  C_3
REMARK    3  A    between atoms: N_5  and  C_6
REMARK    4  A    between atoms: C_11  and  C_12
REMARK    5  A    between atoms: N_19  and  C_20
REMARK    6  A    between atoms: C_22  and  C_23
REMARK    7  A    between atoms: N_26  and  C_27
REMARK                            x       y       z     vdW  Elec       q    Type
REMARK                         _______ _______ _______ _____ _____    ______ ____
ROOT
ATOM      1  C   UNL     1      -1.406  13.709  23.027  0.00  0.00    +0.000 A 
ATOM      2  N   UNL     1      -1.138  14.135  24.276  0.00  0.00    +0.000 NA
ATOM      3  N   UNL     1      -0.623  15.383  24.115  0.00  0.00    +0.000 N 
ATOM      4  C   UNL     1      -0.479  15.682  22.811  0.00  0.00    +0.000 A 
ATOM      5  C   UNL     1      -1.036  14.673  22.083  0.00  0.00    +0.000 A 
ATOM      6  C   UNL     1      -0.929  14.968  20.633  0.00  0.00    +0.000 C 
ATOM      7  N   UNL     1      -0.038  16.178  20.669  0.00  0.00    +0.000 N 
ATOM      8  C   UNL     1       0.123  16.670  22.001  0.00  0.00    +0.000 C 
ATOM      9  O   UNL     1       0.685  17.679  22.390  0.00  0.00    +0.000 OA
ENDROOT
BRANCH   7  10
ATOM     10  C   UNL     1       0.694  16.621  19.572  0.00  0.00    +0.000 A 
ATOM     11  C   UNL     1       2.068  16.165  19.424  0.00  0.00    +0.000 A 
ATOM     12  C   UNL     1       2.798  16.415  18.333  0.00  0.00    +0.000 A 
ATOM     13  C   UNL     1       4.168  15.856  18.117  0.00  0.00    +0.000 C 
ATOM     14  C   UNL     1       2.229  17.267  17.246  0.00  0.00    +0.000 A 
ATOM     15  O   UNL     1       2.910  17.545  16.262  0.00  0.00    +0.000 OA
ATOM     16  N   UNL     1       0.913  17.692  17.438  0.00  0.00    +0.000 N 
ATOM     17  C   UNL     1       0.302  18.536  16.423  0.00  0.00    +0.000 C 
ATOM     18  C   UNL     1       0.173  17.348  18.564  0.00  0.00    +0.000 A 
ENDBRANCH   7  10
BRANCH   6  19
ATOM     19  C   UNL     1      -0.334  13.741  19.978  0.00  0.00    +0.000 A 
ATOM     20  C   UNL     1       0.873  13.202  20.459  0.00  0.00    +0.000 A 
ATOM     21  C   UNL     1       1.409  12.042  19.892  0.00  0.00    +0.000 A 
ATOM     22  C   UNL     1       0.746  11.416  18.838  0.00  0.00    +0.000 A 
ATOM     23 CL   UNL     1       1.393   9.979  18.152  0.00  0.00    +0.000 Cl
ATOM     24  C   UNL     1      -0.442  11.943  18.340  0.00  0.00    +0.000 A 
ATOM     25  C   UNL     1      -0.979  13.096  18.907  0.00  0.00    +0.000 A 
ENDBRANCH   6  19
BRANCH   3  26
ATOM     26  C   UNL     1      -0.426  16.305  25.211  0.00  0.00    +0.000 C 
ATOM     27  C   UNL     1      -1.621  17.146  25.652  0.00  0.00    +0.000 C 
ATOM     28  C   UNL     1      -1.027  16.165  26.598  0.00  0.00    +0.000 C 
ENDBRANCH   3  26
BRANCH   1  30
ATOM     29  C   UNL     1      -0.919  11.252  22.945  0.00  0.00    +0.000 C 
ATOM     30  C   UNL     1      -1.970  12.342  22.818  0.00  0.00    +0.000 C 
ENDBRANCH   1  30
TORSDOF 4
ENDMDL
