MODEL 1
REMARK VINA RESULT:      -7.8      0.000      0.000
REMARK  Name = 
REMARK  16 active torsions:
REMARK  status: ('A' for Active; 'I' for Inactive)
REMARK    1  A    between atoms: C_1  and  O_2
REMARK    2  A    between atoms: O_2  and  C_3
REMARK    3  A    between atoms: C_3  and  C_5
REMARK    4  A    between atoms: C_5  and  C_15
REMARK    5  A    between atoms: N_6  and  N_7
REMARK    6  A    between atoms: C_8  and  C_10
REMARK    7  A    between atoms: C_10  and  N_11
REMARK    8  A    between atoms: N_11  and  C_12
REMARK    9  A    between atoms: N_11  and  C_13
REMARK   10  A    between atoms: N_11  and  C_14
REMARK   11  A    between atoms: C_15  and  C_16
REMARK   12  A    between atoms: C_15  and  C_20
REMARK   13  A    between atoms: C_16  and  O_18
REMARK   14  A    between atoms: O_18  and  C_19
REMARK   15  A    between atoms: C_20  and  C_22
REMARK   16  A    between atoms: N_24  and  C_25
REMARK                            x       y       z     vdW  Elec       q    Type
REMARK                         _______ _______ _______ _____ _____    ______ ____
ROOT
ATOM      1  C   UNL     1       5.178   6.244  17.499  0.00  0.00    +0.000 C 
ENDROOT
BRANCH   1   2
ATOM      2  C   UNL     1       6.092   5.544  18.494  0.00  0.00    +0.000 C 
ATOM      3  N   UNL     1       5.800   4.473  19.192  0.00  0.00    +0.000 NA
BRANCH   3   4
ATOM      4  N   UNL     1       4.544   3.937  19.137  0.00  0.00    +0.000 N 
ATOM      5  C   UNL     1       4.300   2.775  19.865  0.00  0.00    +0.000 C 
ATOM      6  O   UNL     1       5.116   2.113  20.498  0.00  0.00    +0.000 OA
ATOM      7  H   UNL     1       3.792   4.621  19.023  0.00  0.00    +0.000 HD
BRANCH   5   8
ATOM      8  C   UNL     1       2.854   2.282  19.768  0.00  0.00    +0.000 C 
BRANCH   8   9
ATOM      9  N   UNL     1       1.789   3.124  20.554  0.00  0.00    +0.000 N 
ATOM     10  C   UNL     1       0.616   3.402  19.635  0.00  0.00    +0.000 C 
ATOM     11  C   UNL     1       1.329   2.358  21.789  0.00  0.00    +0.000 C 
ATOM     12  C   UNL     1       2.389   4.456  21.015  0.00  0.00    +0.000 C 
ENDBRANCH   8   9
ENDBRANCH   5   8
ENDBRANCH   3   4
BRANCH   2  13
ATOM     13  C   UNL     1       7.511   6.088  18.637  0.00  0.00    +0.000 C 
ATOM     14  O   UNL     1       8.310   5.644  19.429  0.00  0.00    +0.000 OA
BRANCH  13  16
ATOM     15  C   UNL     1       8.181   8.271  18.133  0.00  0.00    +0.000 C 
ATOM     16  O   UNL     1       7.736   7.001  17.662  0.00  0.00    +0.000 OA
ENDBRANCH  13  16
ENDBRANCH   2  13
ENDBRANCH   1   2
BRANCH   1  17
ATOM     17  C   UNL     1       5.445   5.850  16.063  0.00  0.00    +0.000 C 
ATOM     18  O   UNL     1       5.175   6.541  15.087  0.00  0.00    +0.000 OA
BRANCH  17  19
ATOM     19  O   UNL     1       5.893   4.568  15.975  0.00  0.00    +0.000 OA
ATOM     20  C   UNL     1       6.022   4.013  14.663  0.00  0.00    +0.000 C 
ENDBRANCH  17  19
ENDBRANCH   1  17
BRANCH   1  21
ATOM     21  C   UNL     1       3.691   6.129  17.736  0.00  0.00    +0.000 C 
ATOM     22  O   UNL     1       3.016   5.142  17.451  0.00  0.00    +0.000 OA
BRANCH  21  23
ATOM     23  C   UNL     1       2.956   7.429  18.096  0.00  0.00    +0.000 C 
ATOM     24  O   UNL     1       2.932   8.335  17.275  0.00  0.00    +0.000 OA
ATOM     25  N   UNL     1       2.381   7.394  19.348  0.00  0.00    +0.000 N 
ATOM     26  H   UNL     1       2.656   6.606  19.930  0.00  0.00    +0.000 HD
BRANCH  25  27
ATOM     27  C   UNL     1       1.561   8.383  19.928  0.00  0.00    +0.000 A 
ATOM     28  C   UNL     1       1.050   9.477  19.218  0.00  0.00    +0.000 A 
ATOM     29  C   UNL     1       0.274  10.441  19.870  0.00  0.00    +0.000 A 
ATOM     30  C   UNL     1       0.017  10.315  21.229  0.00  0.00    +0.000 A 
ATOM     31  F   UNL     1      -0.695  11.259  21.859  0.00  0.00    +0.000 F 
ATOM     32  C   UNL     1       0.489   9.221  21.941  0.00  0.00    +0.000 A 
ATOM     33  C   UNL     1       1.245   8.244  21.285  0.00  0.00    +0.000 A 
ENDBRANCH  25  27
ENDBRANCH  21  23
ENDBRANCH   1  21
TORSDOF 11
ENDMDL
MODEL 2
REMARK VINA RESULT:      -7.8      0.269      1.184
REMARK  Name = 
REMARK  16 active torsions:
REMARK  status: ('A' for Active; 'I' for Inactive)
REMARK    1  A    between atoms: C_1  and  O_2
REMARK    2  A    between atoms: O_2  and  C_3
REMARK    3  A    between atoms: C_3  and  C_5
REMARK    4  A    between atoms: C_5  and  C_15
REMARK    5  A    between atoms: N_6  and  N_7
REMARK    6  A    between atoms: C_8  and  C_10
REMARK    7  A    between atoms: C_10  and  N_11
REMARK    8  A    between atoms: N_11  and  C_12
REMARK    9  A    between atoms: N_11  and  C_13
REMARK   10  A    between atoms: N_11  and  C_14
REMARK   11  A    between atoms: C_15  and  C_16
REMARK   12  A    between atoms: C_15  and  C_20
REMARK   13  A    between atoms: C_16  and  O_18
REMARK   14  A    between atoms: O_18  and  C_19
REMARK   15  A    between atoms: C_20  and  C_22
REMARK   16  A    between atoms: N_24  and  C_25
REMARK                            x       y       z     vdW  Elec       q    Type
REMARK                         _______ _______ _______ _____ _____    ______ ____
ROOT
ATOM      1  C   UNL     1       5.036   6.278  17.535  0.00  0.00    +0.000 C 
ENDROOT
BRANCH   1   2
ATOM      2  C   UNL     1       5.996   5.535  18.453  0.00  0.00    +0.000 C 
ATOM      3  N   UNL     1       5.741   4.427  19.105  0.00  0.00    +0.000 NA
BRANCH   3   4
ATOM      4  N   UNL     1       4.487   3.882  19.075  0.00  0.00    +0.000 N 
ATOM      5  C   UNL     1       4.253   2.744  19.842  0.00  0.00    +0.000 C 
ATOM      6  O   UNL     1       5.076   2.108  20.492  0.00  0.00    +0.000 OA
ATOM      7  H   UNL     1       3.731   4.559  18.941  0.00  0.00    +0.000 HD
BRANCH   5   8
ATOM      8  C   UNL     1       2.810   2.241  19.768  0.00  0.00    +0.000 C 
BRANCH   8   9
ATOM      9  N   UNL     1       1.757   3.055  20.597  0.00  0.00    +0.000 N 
ATOM     10  C   UNL     1       2.383   4.368  21.023  0.00  0.00    +0.000 C 
ATOM     11  C   UNL     1       0.513   3.308  19.752  0.00  0.00    +0.000 C 
ATOM     12  C   UNL     1       1.335   2.276  21.846  0.00  0.00    +0.000 C 
ENDBRANCH   8   9
ENDBRANCH   5   8
ENDBRANCH   3   4
BRANCH   2  13
ATOM     13  C   UNL     1       7.415   6.085  18.565  0.00  0.00    +0.000 C 
ATOM     14  O   UNL     1       8.242   5.624  19.318  0.00  0.00    +0.000 OA
BRANCH  13  16
ATOM     15  C   UNL     1       8.155   8.252  18.090  0.00  0.00    +0.000 C 
ATOM     16  O   UNL     1       7.603   7.027  17.610  0.00  0.00    +0.000 OA
ENDBRANCH  13  16
ENDBRANCH   2  13
ENDBRANCH   1   2
BRANCH   1  17
ATOM     17  C   UNL     1       5.158   5.865  16.085  0.00  0.00    +0.000 C 
ATOM     18  O   UNL     1       5.137   6.640  15.133  0.00  0.00    +0.000 OA
BRANCH  17  19
ATOM     19  O   UNL     1       5.149   4.511  15.950  0.00  0.00    +0.000 OA
ATOM     20  C   UNL     1       6.182   3.930  15.149  0.00  0.00    +0.000 C 
ENDBRANCH  17  19
ENDBRANCH   1  17
BRANCH   1  21
ATOM     21  C   UNL     1       3.570   6.239  17.899  0.00  0.00    +0.000 C 
ATOM     22  O   UNL     1       2.812   5.310  17.633  0.00  0.00    +0.000 OA
BRANCH  21  23
ATOM     23  C   UNL     1       2.954   7.561  18.382  0.00  0.00    +0.000 C 
ATOM     24  O   UNL     1       3.117   8.565  17.703  0.00  0.00    +0.000 OA
ATOM     25  N   UNL     1       2.253   7.431  19.561  0.00  0.00    +0.000 N 
ATOM     26  H   UNL     1       2.376   6.542  20.043  0.00  0.00    +0.000 HD
BRANCH  25  27
ATOM     27  C   UNL     1       1.495   8.427  20.207  0.00  0.00    +0.000 A 
ATOM     28  C   UNL     1       1.308   8.478  21.594  0.00  0.00    +0.000 A 
ATOM     29  C   UNL     1       0.509   9.476  22.163  0.00  0.00    +0.000 A 
ATOM     30  C   UNL     1      -0.108  10.414  21.345  0.00  0.00    +0.000 A 
ATOM     31  F   UNL     1      -0.903  11.345  21.888  0.00  0.00    +0.000 F 
ATOM     32  C   UNL     1       0.092  10.397  19.971  0.00  0.00    +0.000 A 
ATOM     33  C   UNL     1       0.909   9.414  19.404  0.00  0.00    +0.000 A 
ENDBRANCH  25  27
ENDBRANCH  21  23
ENDBRANCH   1  21
TORSDOF 11
ENDMDL
MODEL 3
REMARK VINA RESULT:      -7.7      3.190      5.711
REMARK  Name = 
REMARK  16 active torsions:
REMARK  status: ('A' for Active; 'I' for Inactive)
REMARK    1  A    between atoms: C_1  and  O_2
REMARK    2  A    between atoms: O_2  and  C_3
REMARK    3  A    between atoms: C_3  and  C_5
REMARK    4  A    between atoms: C_5  and  C_15
REMARK    5  A    between atoms: N_6  and  N_7
REMARK    6  A    between atoms: C_8  and  C_10
REMARK    7  A    between atoms: C_10  and  N_11
REMARK    8  A    between atoms: N_11  and  C_12
REMARK    9  A    between atoms: N_11  and  C_13
REMARK   10  A    between atoms: N_11  and  C_14
REMARK   11  A    between atoms: C_15  and  C_16
REMARK   12  A    between atoms: C_15  and  C_20
REMARK   13  A    between atoms: C_16  and  O_18
REMARK   14  A    between atoms: O_18  and  C_19
REMARK   15  A    between atoms: C_20  and  C_22
REMARK   16  A    between atoms: N_24  and  C_25
REMARK                            x       y       z     vdW  Elec       q    Type
REMARK                         _______ _______ _______ _____ _____    ______ ____
ROOT
ATOM      1  C   UNL     1       6.286   6.343  17.076  0.00  0.00    +0.000 C 
ENDROOT
BRANCH   1   2
ATOM      2  C   UNL     1       6.365   4.964  16.438  0.00  0.00    +0.000 C 
ATOM      3  N   UNL     1       5.920   3.845  16.957  0.00  0.00    +0.000 NA
BRANCH   3   4
ATOM      4  N   UNL     1       5.405   3.829  18.223  0.00  0.00    +0.000 N 
ATOM      5  C   UNL     1       4.326   2.987  18.477  0.00  0.00    +0.000 C 
ATOM      6  O   UNL     1       3.713   2.304  17.662  0.00  0.00    +0.000 OA
ATOM      7  H   UNL     1       6.090   4.000  18.964  0.00  0.00    +0.000 HD
BRANCH   5   8
ATOM      8  C   UNL     1       3.854   3.015  19.932  0.00  0.00    +0.000 C 
BRANCH   8   9
ATOM      9  N   UNL     1       2.351   3.402  20.158  0.00  0.00    +0.000 N 
ATOM     10  C   UNL     1       2.161   3.785  21.612  0.00  0.00    +0.000 C 
ATOM     11  C   UNL     1       1.970   4.564  19.247  0.00  0.00    +0.000 C 
ATOM     12  C   UNL     1       1.435   2.219  19.830  0.00  0.00    +0.000 C 
ENDBRANCH   8   9
ENDBRANCH   5   8
ENDBRANCH   3   4
BRANCH   2  13
ATOM     13  C   UNL     1       6.946   4.882  15.030  0.00  0.00    +0.000 C 
ATOM     14  O   UNL     1       7.789   5.647  14.619  0.00  0.00    +0.000 OA
BRANCH  13  16
ATOM     15  C   UNL     1       6.362   3.871  13.003  0.00  0.00    +0.000 C 
ATOM     16  O   UNL     1       6.479   3.766  14.421  0.00  0.00    +0.000 OA
ENDBRANCH  13  16
ENDBRANCH   2  13
ENDBRANCH   1   2
BRANCH   1  17
ATOM     17  C   UNL     1       5.021   6.557  17.879  0.00  0.00    +0.000 C 
ATOM     18  O   UNL     1       4.907   6.325  19.078  0.00  0.00    +0.000 OA
BRANCH  17  19
ATOM     19  O   UNL     1       3.976   6.903  17.079  0.00  0.00    +0.000 OA
ATOM     20  C   UNL     1       3.028   7.831  17.612  0.00  0.00    +0.000 C 
ENDBRANCH  17  19
ENDBRANCH   1  17
BRANCH   1  21
ATOM     21  C   UNL     1       7.451   6.769  17.938  0.00  0.00    +0.000 C 
ATOM     22  O   UNL     1       7.958   6.074  18.815  0.00  0.00    +0.000 OA
BRANCH  21  23
ATOM     23  C   UNL     1       7.828   8.257  17.885  0.00  0.00    +0.000 C 
ATOM     24  O   UNL     1       7.268   8.975  17.067  0.00  0.00    +0.000 OA
ATOM     25  N   UNL     1       8.779   8.607  18.819  0.00  0.00    +0.000 N 
ATOM     26  H   UNL     1       9.228   7.826  19.293  0.00  0.00    +0.000 HD
BRANCH  25  27
ATOM     27  C   UNL     1       9.260   9.903  19.091  0.00  0.00    +0.000 A 
ATOM     28  C   UNL     1       9.799  10.747  18.112  0.00  0.00    +0.000 A 
ATOM     29  C   UNL     1      10.294  12.009  18.462  0.00  0.00    +0.000 A 
ATOM     30  C   UNL     1      10.256  12.419  19.788  0.00  0.00    +0.000 A 
ATOM     31  F   UNL     1      10.765  13.611  20.127  0.00  0.00    +0.000 F 
ATOM     32  C   UNL     1       9.697  11.608  20.766  0.00  0.00    +0.000 A 
ATOM     33  C   UNL     1       9.181  10.356  20.413  0.00  0.00    +0.000 A 
ENDBRANCH  25  27
ENDBRANCH  21  23
ENDBRANCH   1  21
TORSDOF 11
ENDMDL
MODEL 4
REMARK VINA RESULT:      -7.7      1.149      1.737
REMARK  Name = 
REMARK  16 active torsions:
REMARK  status: ('A' for Active; 'I' for Inactive)
REMARK    1  A    between atoms: C_1  and  O_2
REMARK    2  A    between atoms: O_2  and  C_3
REMARK    3  A    between atoms: C_3  and  C_5
REMARK    4  A    between atoms: C_5  and  C_15
REMARK    5  A    between atoms: N_6  and  N_7
REMARK    6  A    between atoms: C_8  and  C_10
REMARK    7  A    between atoms: C_10  and  N_11
REMARK    8  A    between atoms: N_11  and  C_12
REMARK    9  A    between atoms: N_11  and  C_13
REMARK   10  A    between atoms: N_11  and  C_14
REMARK   11  A    between atoms: C_15  and  C_16
REMARK   12  A    between atoms: C_15  and  C_20
REMARK   13  A    between atoms: C_16  and  O_18
REMARK   14  A    between atoms: O_18  and  C_19
REMARK   15  A    between atoms: C_20  and  C_22
REMARK   16  A    between atoms: N_24  and  C_25
REMARK                            x       y       z     vdW  Elec       q    Type
REMARK                         _______ _______ _______ _____ _____    ______ ____
ROOT
ATOM      1  C   UNL     1       4.957   5.327  17.265  0.00  0.00    +0.000 C 
ENDROOT
BRANCH   1   2
ATOM      2  C   UNL     1       6.006   4.591  18.086  0.00  0.00    +0.000 C 
ATOM      3  N   UNL     1       5.801   3.536  18.836  0.00  0.00    +0.000 NA
BRANCH   3   4
ATOM      4  N   UNL     1       4.535   3.051  19.013  0.00  0.00    +0.000 N 
ATOM      5  C   UNL     1       4.280   2.298  20.156  0.00  0.00    +0.000 C 
ATOM      6  O   UNL     1       5.093   1.939  21.002  0.00  0.00    +0.000 OA
ATOM      7  H   UNL     1       3.794   3.644  18.630  0.00  0.00    +0.000 HD
BRANCH   5   8
ATOM      8  C   UNL     1       2.825   1.841  20.278  0.00  0.00    +0.000 C 
BRANCH   8   9
ATOM      9  N   UNL     1       1.815   2.906  20.831  0.00  0.00    +0.000 N 
ATOM     10  C   UNL     1       2.539   4.229  20.984  0.00  0.00    +0.000 C 
ATOM     11  C   UNL     1       0.638   3.052  19.873  0.00  0.00    +0.000 C 
ATOM     12  C   UNL     1       1.270   2.474  22.195  0.00  0.00    +0.000 C 
ENDBRANCH   8   9
ENDBRANCH   5   8
ENDBRANCH   3   4
BRANCH   2  13
ATOM     13  C   UNL     1       7.447   5.077  17.966  0.00  0.00    +0.000 C 
ATOM     14  O   UNL     1       8.251   4.577  17.213  0.00  0.00    +0.000 OA
BRANCH  13  16
ATOM     15  C   UNL     1       7.826   7.385  17.943  0.00  0.00    +0.000 C 
ATOM     16  O   UNL     1       7.599   6.202  18.706  0.00  0.00    +0.000 OA
ENDBRANCH  13  16
ENDBRANCH   2  13
ENDBRANCH   1   2
BRANCH   1  17
ATOM     17  C   UNL     1       5.354   5.511  15.817  0.00  0.00    +0.000 C 
ATOM     18  O   UNL     1       5.481   6.597  15.260  0.00  0.00    +0.000 OA
BRANCH  17  19
ATOM     19  O   UNL     1       5.416   4.320  15.162  0.00  0.00    +0.000 OA
ATOM     20  C   UNL     1       6.502   4.134  14.251  0.00  0.00    +0.000 C 
ENDBRANCH  17  19
ENDBRANCH   1  17
BRANCH   1  21
ATOM     21  C   UNL     1       3.554   4.767  17.285  0.00  0.00    +0.000 C 
ATOM     22  O   UNL     1       3.217   3.713  16.752  0.00  0.00    +0.000 OA
BRANCH  21  23
ATOM     23  C   UNL     1       2.448   5.719  17.766  0.00  0.00    +0.000 C 
ATOM     24  O   UNL     1       1.284   5.350  17.693  0.00  0.00    +0.000 OA
ATOM     25  N   UNL     1       2.937   6.913  18.252  0.00  0.00    +0.000 N 
ATOM     26  H   UNL     1       3.926   7.081  18.075  0.00  0.00    +0.000 HD
BRANCH  25  27
ATOM     27  C   UNL     1       2.194   7.947  18.854  0.00  0.00    +0.000 A 
ATOM     28  C   UNL     1       1.796   7.932  20.197  0.00  0.00    +0.000 A 
ATOM     29  C   UNL     1       1.024   8.978  20.717  0.00  0.00    +0.000 A 
ATOM     30  C   UNL     1       0.646  10.030  19.893  0.00  0.00    +0.000 A 
ATOM     31  F   UNL     1      -0.123  11.011  20.382  0.00  0.00    +0.000 F 
ATOM     32  C   UNL     1       1.059  10.077  18.567  0.00  0.00    +0.000 A 
ATOM     33  C   UNL     1       1.849   9.043  18.054  0.00  0.00    +0.000 A 
ENDBRANCH  25  27
ENDBRANCH  21  23
ENDBRANCH   1  21
TORSDOF 11
ENDMDL
MODEL 5
REMARK VINA RESULT:      -7.5      4.625      9.088
REMARK  Name = 
REMARK  16 active torsions:
REMARK  status: ('A' for Active; 'I' for Inactive)
REMARK    1  A    between atoms: C_1  and  O_2
REMARK    2  A    between atoms: O_2  and  C_3
REMARK    3  A    between atoms: C_3  and  C_5
REMARK    4  A    between atoms: C_5  and  C_15
REMARK    5  A    between atoms: N_6  and  N_7
REMARK    6  A    between atoms: C_8  and  C_10
REMARK    7  A    between atoms: C_10  and  N_11
REMARK    8  A    between atoms: N_11  and  C_12
REMARK    9  A    between atoms: N_11  and  C_13
REMARK   10  A    between atoms: N_11  and  C_14
REMARK   11  A    between atoms: C_15  and  C_16
REMARK   12  A    between atoms: C_15  and  C_20
REMARK   13  A    between atoms: C_16  and  O_18
REMARK   14  A    between atoms: O_18  and  C_19
REMARK   15  A    between atoms: C_20  and  C_22
REMARK   16  A    between atoms: N_24  and  C_25
REMARK                            x       y       z     vdW  Elec       q    Type
REMARK                         _______ _______ _______ _____ _____    ______ ____
ROOT
ATOM      1  C   UNL     1       0.140  10.015  19.818  0.00  0.00    +0.000 C 
ENDROOT
BRANCH   1   2
ATOM      2  C   UNL     1       0.346  10.721  21.150  0.00  0.00    +0.000 C 
ATOM      3  N   UNL     1       1.028  11.823  21.343  0.00  0.00    +0.000 NA
BRANCH   3   4
ATOM      4  N   UNL     1       1.719  12.397  20.312  0.00  0.00    +0.000 N 
ATOM      5  C   UNL     1       2.516  13.502  20.597  0.00  0.00    +0.000 C 
ATOM      6  O   UNL     1       2.612  14.088  21.671  0.00  0.00    +0.000 OA
ATOM      7  H   UNL     1       2.013  11.744  19.581  0.00  0.00    +0.000 HD
BRANCH   5   8
ATOM      8  C   UNL     1       3.276  14.040  19.383  0.00  0.00    +0.000 C 
BRANCH   8   9
ATOM      9  N   UNL     1       2.867  15.475  18.900  0.00  0.00    +0.000 N 
ATOM     10  C   UNL     1       3.473  16.496  19.842  0.00  0.00    +0.000 C 
ATOM     11  C   UNL     1       3.363  15.705  17.476  0.00  0.00    +0.000 C 
ATOM     12  C   UNL     1       1.344  15.632  18.906  0.00  0.00    +0.000 C 
ENDBRANCH   8   9
ENDBRANCH   5   8
ENDBRANCH   3   4
BRANCH   2  13
ATOM     13  C   UNL     1      -0.372  10.138  22.363  0.00  0.00    +0.000 C 
ATOM     14  O   UNL     1      -0.552   8.951  22.516  0.00  0.00    +0.000 OA
BRANCH  13  16
ATOM     15  C   UNL     1      -1.918  11.702  23.159  0.00  0.00    +0.000 C 
ATOM     16  O   UNL     1      -0.615  11.129  23.254  0.00  0.00    +0.000 OA
ENDBRANCH  13  16
ENDBRANCH   2  13
ENDBRANCH   1   2
BRANCH   1  17
ATOM     17  C   UNL     1      -0.748  10.787  18.865  0.00  0.00    +0.000 C 
ATOM     18  O   UNL     1      -0.671  11.994  18.661  0.00  0.00    +0.000 OA
BRANCH  17  19
ATOM     19  O   UNL     1      -1.742  10.003  18.366  0.00  0.00    +0.000 OA
ATOM     20  C   UNL     1      -1.998  10.091  16.962  0.00  0.00    +0.000 C 
ENDBRANCH  17  19
ENDBRANCH   1  17
BRANCH   1  21
ATOM     21  C   UNL     1       1.380   9.608  19.057  0.00  0.00    +0.000 C 
ATOM     22  O   UNL     1       1.872  10.252  18.134  0.00  0.00    +0.000 OA
BRANCH  21  23
ATOM     23  C   UNL     1       1.876   8.172  19.283  0.00  0.00    +0.000 C 
ATOM     24  O   UNL     1       1.869   7.722  20.421  0.00  0.00    +0.000 OA
ATOM     25  N   UNL     1       2.267   7.546  18.119  0.00  0.00    +0.000 N 
ATOM     26  H   UNL     1       2.343   8.153  17.306  0.00  0.00    +0.000 HD
BRANCH  25  27
ATOM     27  C   UNL     1       2.673   6.204  17.977  0.00  0.00    +0.000 A 
ATOM     28  C   UNL     1       1.777   5.132  17.877  0.00  0.00    +0.000 A 
ATOM     29  C   UNL     1       2.254   3.821  17.777  0.00  0.00    +0.000 A 
ATOM     30  C   UNL     1       3.622   3.582  17.787  0.00  0.00    +0.000 A 
ATOM     31  F   UNL     1       4.076   2.324  17.729  0.00  0.00    +0.000 F 
ATOM     32  C   UNL     1       4.525   4.636  17.854  0.00  0.00    +0.000 A 
ATOM     33  C   UNL     1       4.049   5.949  17.930  0.00  0.00    +0.000 A 
ENDBRANCH  25  27
ENDBRANCH  21  23
ENDBRANCH   1  21
TORSDOF 11
ENDMDL
MODEL 6
REMARK VINA RESULT:      -7.4      1.375      2.484
REMARK  Name = 
REMARK  16 active torsions:
REMARK  status: ('A' for Active; 'I' for Inactive)
REMARK    1  A    between atoms: C_1  and  O_2
REMARK    2  A    between atoms: O_2  and  C_3
REMARK    3  A    between atoms: C_3  and  C_5
REMARK    4  A    between atoms: C_5  and  C_15
REMARK    5  A    between atoms: N_6  and  N_7
REMARK    6  A    between atoms: C_8  and  C_10
REMARK    7  A    between atoms: C_10  and  N_11
REMARK    8  A    between atoms: N_11  and  C_12
REMARK    9  A    between atoms: N_11  and  C_13
REMARK   10  A    between atoms: N_11  and  C_14
REMARK   11  A    between atoms: C_15  and  C_16
REMARK   12  A    between atoms: C_15  and  C_20
REMARK   13  A    between atoms: C_16  and  O_18
REMARK   14  A    between atoms: O_18  and  C_19
REMARK   15  A    between atoms: C_20  and  C_22
REMARK   16  A    between atoms: N_24  and  C_25
REMARK                            x       y       z     vdW  Elec       q    Type
REMARK                         _______ _______ _______ _____ _____    ______ ____
ROOT
ATOM      1  C   UNL     1       5.158   5.579  17.739  0.00  0.00    +0.000 C 
ENDROOT
BRANCH   1   2
ATOM      2  C   UNL     1       5.580   4.353  16.942  0.00  0.00    +0.000 C 
ATOM      3  N   UNL     1       4.875   3.260  16.774  0.00  0.00    +0.000 NA
BRANCH   3   4
ATOM      4  N   UNL     1       3.680   3.104  17.419  0.00  0.00    +0.000 N 
ATOM      5  C   UNL     1       3.682   2.437  18.642  0.00  0.00    +0.000 C 
ATOM      6  O   UNL     1       4.636   1.888  19.183  0.00  0.00    +0.000 OA
ATOM      7  H   UNL     1       3.010   3.862  17.265  0.00  0.00    +0.000 HD
BRANCH   5   8
ATOM      8  C   UNL     1       2.302   2.354  19.297  0.00  0.00    +0.000 C 
BRANCH   8   9
ATOM      9  N   UNL     1       2.052   3.335  20.496  0.00  0.00    +0.000 N 
ATOM     10  C   UNL     1       0.707   4.007  20.301  0.00  0.00    +0.000 C 
ATOM     11  C   UNL     1       2.076   2.565  21.812  0.00  0.00    +0.000 C 
ATOM     12  C   UNL     1       3.143   4.408  20.550  0.00  0.00    +0.000 C 
ENDBRANCH   8   9
ENDBRANCH   5   8
ENDBRANCH   3   4
BRANCH   2  13
ATOM     13  C   UNL     1       6.913   4.428  16.204  0.00  0.00    +0.000 C 
ATOM     14  O   UNL     1       7.946   3.997  16.663  0.00  0.00    +0.000 OA
BRANCH  13  16
ATOM     15  C   UNL     1       6.345   3.904  13.997  0.00  0.00    +0.000 C 
ATOM     16  O   UNL     1       6.700   4.901  14.952  0.00  0.00    +0.000 OA
ENDBRANCH  13  16
ENDBRANCH   2  13
ENDBRANCH   1   2
BRANCH   1  17
ATOM     17  C   UNL     1       6.325   6.318  18.357  0.00  0.00    +0.000 C 
ATOM     18  O   UNL     1       6.948   7.222  17.811  0.00  0.00    +0.000 OA
BRANCH  17  19
ATOM     19  O   UNL     1       6.695   5.760  19.542  0.00  0.00    +0.000 OA
ATOM     20  C   UNL     1       8.097   5.603  19.776  0.00  0.00    +0.000 C 
ENDBRANCH  17  19
ENDBRANCH   1  17
BRANCH   1  21
ATOM     21  C   UNL     1       4.298   6.597  17.028  0.00  0.00    +0.000 C 
ATOM     22  O   UNL     1       4.684   7.312  16.107  0.00  0.00    +0.000 OA
BRANCH  21  23
ATOM     23  C   UNL     1       2.954   6.933  17.691  0.00  0.00    +0.000 C 
ATOM     24  O   UNL     1       2.164   6.024  17.909  0.00  0.00    +0.000 OA
ATOM     25  N   UNL     1       2.814   8.274  17.979  0.00  0.00    +0.000 N 
ATOM     26  H   UNL     1       3.522   8.881  17.570  0.00  0.00    +0.000 HD
BRANCH  25  27
ATOM     27  C   UNL     1       1.749   8.882  18.672  0.00  0.00    +0.000 A 
ATOM     28  C   UNL     1       0.851   9.776  18.076  0.00  0.00    +0.000 A 
ATOM     29  C   UNL     1      -0.161  10.373  18.836  0.00  0.00    +0.000 A 
ATOM     30  C   UNL     1      -0.269  10.081  20.190  0.00  0.00    +0.000 A 
ATOM     31  F   UNL     1      -1.214  10.682  20.924  0.00  0.00    +0.000 F 
ATOM     32  C   UNL     1       0.594   9.173  20.790  0.00  0.00    +0.000 A 
ATOM     33  C   UNL     1       1.591   8.558  20.025  0.00  0.00    +0.000 A 
ENDBRANCH  25  27
ENDBRANCH  21  23
ENDBRANCH   1  21
TORSDOF 11
ENDMDL
MODEL 7
REMARK VINA RESULT:      -7.4      1.509      2.908
REMARK  Name = 
REMARK  16 active torsions:
REMARK  status: ('A' for Active; 'I' for Inactive)
REMARK    1  A    between atoms: C_1  and  O_2
REMARK    2  A    between atoms: O_2  and  C_3
REMARK    3  A    between atoms: C_3  and  C_5
REMARK    4  A    between atoms: C_5  and  C_15
REMARK    5  A    between atoms: N_6  and  N_7
REMARK    6  A    between atoms: C_8  and  C_10
REMARK    7  A    between atoms: C_10  and  N_11
REMARK    8  A    between atoms: N_11  and  C_12
REMARK    9  A    between atoms: N_11  and  C_13
REMARK   10  A    between atoms: N_11  and  C_14
REMARK   11  A    between atoms: C_15  and  C_16
REMARK   12  A    between atoms: C_15  and  C_20
REMARK   13  A    between atoms: C_16  and  O_18
REMARK   14  A    between atoms: O_18  and  C_19
REMARK   15  A    between atoms: C_20  and  C_22
REMARK   16  A    between atoms: N_24  and  C_25
REMARK                            x       y       z     vdW  Elec       q    Type
REMARK                         _______ _______ _______ _____ _____    ______ ____
ROOT
ATOM      1  C   UNL     1       4.774   5.263  17.750  0.00  0.00    +0.000 C 
ENDROOT
BRANCH   1   2
ATOM      2  C   UNL     1       4.812   4.153  16.710  0.00  0.00    +0.000 C 
ATOM      3  N   UNL     1       3.921   3.203  16.561  0.00  0.00    +0.000 NA
BRANCH   3   4
ATOM      4  N   UNL     1       2.884   3.086  17.442  0.00  0.00    +0.000 N 
ATOM      5  C   UNL     1       2.929   2.046  18.367  0.00  0.00    +0.000 C 
ATOM      6  O   UNL     1       3.766   1.151  18.435  0.00  0.00    +0.000 OA
ATOM      7  H   UNL     1       2.449   3.973  17.709  0.00  0.00    +0.000 HD
BRANCH   5   8
ATOM      8  C   UNL     1       1.741   2.030  19.332  0.00  0.00    +0.000 C 
BRANCH   8   9
ATOM      9  N   UNL     1       1.800   3.066  20.508  0.00  0.00    +0.000 N 
ATOM     10  C   UNL     1       0.739   4.123  20.279  0.00  0.00    +0.000 C 
ATOM     11  C   UNL     1       1.566   2.356  21.838  0.00  0.00    +0.000 C 
ATOM     12  C   UNL     1       3.174   3.740  20.564  0.00  0.00    +0.000 C 
ENDBRANCH   8   9
ENDBRANCH   5   8
ENDBRANCH   3   4
BRANCH   2  13
ATOM     13  C   UNL     1       5.950   4.190  15.694  0.00  0.00    +0.000 C 
ATOM     14  O   UNL     1       7.098   3.938  15.981  0.00  0.00    +0.000 OA
BRANCH  13  16
ATOM     15  C   UNL     1       6.203   3.834  13.397  0.00  0.00    +0.000 C 
ATOM     16  O   UNL     1       5.435   4.398  14.458  0.00  0.00    +0.000 OA
ENDBRANCH  13  16
ENDBRANCH   2  13
ENDBRANCH   1   2
BRANCH   1  17
ATOM     17  C   UNL     1       6.118   5.521  18.396  0.00  0.00    +0.000 C 
ATOM     18  O   UNL     1       6.553   4.913  19.369  0.00  0.00    +0.000 OA
BRANCH  17  19
ATOM     19  O   UNL     1       6.729   6.610  17.856  0.00  0.00    +0.000 OA
ATOM     20  C   UNL     1       7.995   6.985  18.407  0.00  0.00    +0.000 C 
ENDBRANCH  17  19
ENDBRANCH   1  17
BRANCH   1  21
ATOM     21  C   UNL     1       4.217   6.596  17.310  0.00  0.00    +0.000 C 
ATOM     22  O   UNL     1       4.856   7.452  16.702  0.00  0.00    +0.000 OA
BRANCH  21  23
ATOM     23  C   UNL     1       2.859   6.996  17.906  0.00  0.00    +0.000 C 
ATOM     24  O   UNL     1       2.038   6.118  18.134  0.00  0.00    +0.000 OA
ATOM     25  N   UNL     1       2.745   8.351  18.130  0.00  0.00    +0.000 N 
ATOM     26  H   UNL     1       3.483   8.921  17.722  0.00  0.00    +0.000 HD
BRANCH  25  27
ATOM     27  C   UNL     1       1.671   9.017  18.755  0.00  0.00    +0.000 A 
ATOM     28  C   UNL     1       1.388   8.912  20.122  0.00  0.00    +0.000 A 
ATOM     29  C   UNL     1       0.281   9.571  20.667  0.00  0.00    +0.000 A 
ATOM     30  C   UNL     1      -0.545  10.325  19.843  0.00  0.00    +0.000 A 
ATOM     31  F   UNL     1      -1.626  10.924  20.359  0.00  0.00    +0.000 F 
ATOM     32  C   UNL     1      -0.262  10.465  18.491  0.00  0.00    +0.000 A 
ATOM     33  C   UNL     1       0.859   9.825  17.951  0.00  0.00    +0.000 A 
ENDBRANCH  25  27
ENDBRANCH  21  23
ENDBRANCH   1  21
TORSDOF 11
ENDMDL
MODEL 8
REMARK VINA RESULT:      -7.3      1.587      2.959
REMARK  Name = 
REMARK  16 active torsions:
REMARK  status: ('A' for Active; 'I' for Inactive)
REMARK    1  A    between atoms: C_1  and  O_2
REMARK    2  A    between atoms: O_2  and  C_3
REMARK    3  A    between atoms: C_3  and  C_5
REMARK    4  A    between atoms: C_5  and  C_15
REMARK    5  A    between atoms: N_6  and  N_7
REMARK    6  A    between atoms: C_8  and  C_10
REMARK    7  A    between atoms: C_10  and  N_11
REMARK    8  A    between atoms: N_11  and  C_12
REMARK    9  A    between atoms: N_11  and  C_13
REMARK   10  A    between atoms: N_11  and  C_14
REMARK   11  A    between atoms: C_15  and  C_16
REMARK   12  A    between atoms: C_15  and  C_20
REMARK   13  A    between atoms: C_16  and  O_18
REMARK   14  A    between atoms: O_18  and  C_19
REMARK   15  A    between atoms: C_20  and  C_22
REMARK   16  A    between atoms: N_24  and  C_25
REMARK                            x       y       z     vdW  Elec       q    Type
REMARK                         _______ _______ _______ _____ _____    ______ ____
ROOT
ATOM      1  C   UNL     1       5.492   5.731  17.259  0.00  0.00    +0.000 C 
ENDROOT
BRANCH   1   2
ATOM      2  C   UNL     1       5.642   4.530  16.336  0.00  0.00    +0.000 C 
ATOM      3  N   UNL     1       5.238   3.308  16.585  0.00  0.00    +0.000 NA
BRANCH   3   4
ATOM      4  N   UNL     1       4.704   2.993  17.804  0.00  0.00    +0.000 N 
ATOM      5  C   UNL     1       3.388   2.538  17.840  0.00  0.00    +0.000 C 
ATOM      6  O   UNL     1       2.605   2.462  16.898  0.00  0.00    +0.000 OA
ATOM      7  H   UNL     1       5.377   2.630  18.484  0.00  0.00    +0.000 HD
BRANCH   5   8
ATOM      8  C   UNL     1       2.903   2.176  19.245  0.00  0.00    +0.000 C 
BRANCH   8   9
ATOM      9  N   UNL     1       2.154   3.312  20.026  0.00  0.00    +0.000 N 
ATOM     10  C   UNL     1       1.343   4.127  19.038  0.00  0.00    +0.000 C 
ATOM     11  C   UNL     1       1.243   2.701  21.085  0.00  0.00    +0.000 C 
ATOM     12  C   UNL     1       3.155   4.231  20.730  0.00  0.00    +0.000 C 
ENDBRANCH   8   9
ENDBRANCH   5   8
ENDBRANCH   3   4
BRANCH   2  13
ATOM     13  C   UNL     1       6.250   4.783  14.960  0.00  0.00    +0.000 C 
ATOM     14  O   UNL     1       7.366   5.223  14.802  0.00  0.00    +0.000 OA
BRANCH  13  16
ATOM     15  C   UNL     1       6.059   3.630  12.934  0.00  0.00    +0.000 C 
ATOM     16  O   UNL     1       5.410   4.306  14.010  0.00  0.00    +0.000 OA
ENDBRANCH  13  16
ENDBRANCH   2  13
ENDBRANCH   1   2
BRANCH   1  17
ATOM     17  C   UNL     1       6.785   6.487  17.469  0.00  0.00    +0.000 C 
ATOM     18  O   UNL     1       7.019   7.608  17.027  0.00  0.00    +0.000 OA
BRANCH  17  19
ATOM     19  O   UNL     1       7.719   5.715  18.087  0.00  0.00    +0.000 OA
ATOM     20  C   UNL     1       7.675   5.660  19.516  0.00  0.00    +0.000 C 
ENDBRANCH  17  19
ENDBRANCH   1  17
BRANCH   1  21
ATOM     21  C   UNL     1       4.425   6.740  16.903  0.00  0.00    +0.000 C 
ATOM     22  O   UNL     1       4.392   7.376  15.853  0.00  0.00    +0.000 OA
BRANCH  21  23
ATOM     23  C   UNL     1       3.497   7.180  18.046  0.00  0.00    +0.000 C 
ATOM     24  O   UNL     1       3.631   6.657  19.143  0.00  0.00    +0.000 OA
ATOM     25  N   UNL     1       2.606   8.161  17.669  0.00  0.00    +0.000 N 
ATOM     26  H   UNL     1       2.556   8.340  16.669  0.00  0.00    +0.000 HD
BRANCH  25  27
ATOM     27  C   UNL     1       1.696   8.841  18.504  0.00  0.00    +0.000 A 
ATOM     28  C   UNL     1       1.571   8.589  19.876  0.00  0.00    +0.000 A 
ATOM     29  C   UNL     1       0.617   9.276  20.636  0.00  0.00    +0.000 A 
ATOM     30  C   UNL     1      -0.213  10.206  20.022  0.00  0.00    +0.000 A 
ATOM     31  F   UNL     1      -1.150  10.834  20.743  0.00  0.00    +0.000 F 
ATOM     32  C   UNL     1      -0.081  10.490  18.669  0.00  0.00    +0.000 A 
ATOM     33  C   UNL     1       0.888   9.820  17.914  0.00  0.00    +0.000 A 
ENDBRANCH  25  27
ENDBRANCH  21  23
ENDBRANCH   1  21
TORSDOF 11
ENDMDL
MODEL 9
REMARK VINA RESULT:      -7.3      3.385      6.515
REMARK  Name = 
REMARK  16 active torsions:
REMARK  status: ('A' for Active; 'I' for Inactive)
REMARK    1  A    between atoms: C_1  and  O_2
REMARK    2  A    between atoms: O_2  and  C_3
REMARK    3  A    between atoms: C_3  and  C_5
REMARK    4  A    between atoms: C_5  and  C_15
REMARK    5  A    between atoms: N_6  and  N_7
REMARK    6  A    between atoms: C_8  and  C_10
REMARK    7  A    between atoms: C_10  and  N_11
REMARK    8  A    between atoms: N_11  and  C_12
REMARK    9  A    between atoms: N_11  and  C_13
REMARK   10  A    between atoms: N_11  and  C_14
REMARK   11  A    between atoms: C_15  and  C_16
REMARK   12  A    between atoms: C_15  and  C_20
REMARK   13  A    between atoms: C_16  and  O_18
REMARK   14  A    between atoms: O_18  and  C_19
REMARK   15  A    between atoms: C_20  and  C_22
REMARK   16  A    between atoms: N_24  and  C_25
REMARK                            x       y       z     vdW  Elec       q    Type
REMARK                         _______ _______ _______ _____ _____    ______ ____
ROOT
ATOM      1  C   UNL     1       6.698   6.214  15.856  0.00  0.00    +0.000 C 
ENDROOT
BRANCH   1   2
ATOM      2  C   UNL     1       7.364   6.088  17.218  0.00  0.00    +0.000 C 
ATOM      3  N   UNL     1       7.751   7.080  17.984  0.00  0.00    +0.000 NA
BRANCH   3   4
ATOM      4  N   UNL     1       7.658   8.370  17.542  0.00  0.00    +0.000 N 
ATOM      5  C   UNL     1       8.407   9.340  18.202  0.00  0.00    +0.000 C 
ATOM      6  O   UNL     1       9.093   9.188  19.208  0.00  0.00    +0.000 OA
ATOM      7  H   UNL     1       7.492   8.465  16.537  0.00  0.00    +0.000 HD
BRANCH   5   8
ATOM      8  C   UNL     1       8.262  10.740  17.602  0.00  0.00    +0.000 C 
BRANCH   8   9
ATOM      9  N   UNL     1       9.223  11.837  18.181  0.00  0.00    +0.000 N 
ATOM     10  C   UNL     1      10.631  11.552  17.700  0.00  0.00    +0.000 C 
ATOM     11  C   UNL     1       8.772  13.219  17.720  0.00  0.00    +0.000 C 
ATOM     12  C   UNL     1       9.204  11.815  19.712  0.00  0.00    +0.000 C 
ENDBRANCH   8   9
ENDBRANCH   5   8
ENDBRANCH   3   4
BRANCH   2  13
ATOM     13  C   UNL     1       7.530   4.681  17.784  0.00  0.00    +0.000 C 
ATOM     14  O   UNL     1       8.533   4.023  17.630  0.00  0.00    +0.000 OA
BRANCH  13  16
ATOM     15  C   UNL     1       6.421   5.121  19.795  0.00  0.00    +0.000 C 
ATOM     16  O   UNL     1       6.466   4.391  18.571  0.00  0.00    +0.000 OA
ENDBRANCH  13  16
ENDBRANCH   2  13
ENDBRANCH   1   2
BRANCH   1  17
ATOM     17  C   UNL     1       6.898   4.997  14.980  0.00  0.00    +0.000 C 
ATOM     18  O   UNL     1       6.274   3.947  15.088  0.00  0.00    +0.000 OA
BRANCH  17  19
ATOM     19  O   UNL     1       7.960   5.156  14.144  0.00  0.00    +0.000 OA
ATOM     20  C   UNL     1       7.697   5.096  12.739  0.00  0.00    +0.000 C 
ENDBRANCH  17  19
ENDBRANCH   1  17
BRANCH   1  21
ATOM     21  C   UNL     1       5.225   6.549  15.842  0.00  0.00    +0.000 C 
ATOM     22  O   UNL     1       4.684   7.273  15.010  0.00  0.00    +0.000 OA
BRANCH  21  23
ATOM     23  C   UNL     1       4.430   6.177  17.103  0.00  0.00    +0.000 C 
ATOM     24  O   UNL     1       4.265   7.030  17.964  0.00  0.00    +0.000 OA
ATOM     25  N   UNL     1       3.973   4.877  17.090  0.00  0.00    +0.000 N 
ATOM     26  H   UNL     1       4.357   4.290  16.352  0.00  0.00    +0.000 HD
BRANCH  25  27
ATOM     27  C   UNL     1       3.137   4.266  18.045  0.00  0.00    +0.000 A 
ATOM     28  C   UNL     1       1.988   4.873  18.566  0.00  0.00    +0.000 A 
ATOM     29  C   UNL     1       1.226   4.222  19.543  0.00  0.00    +0.000 A 
ATOM     30  C   UNL     1       1.618   2.971  20.001  0.00  0.00    +0.000 A 
ATOM     31  F   UNL     1       0.909   2.366  20.963  0.00  0.00    +0.000 F 
ATOM     32  C   UNL     1       2.737   2.341  19.473  0.00  0.00    +0.000 A 
ATOM     33  C   UNL     1       3.486   2.981  18.480  0.00  0.00    +0.000 A 
ENDBRANCH  25  27
ENDBRANCH  21  23
ENDBRANCH   1  21
TORSDOF 11
ENDMDL
