MODEL 1
REMARK VINA RESULT:      -8.5      0.000      0.000
REMARK  Name = 
REMARK  6 active torsions:
REMARK  status: ('A' for Active; 'I' for Inactive)
REMARK    1  A    between atoms: C_2  and  C_3
REMARK    2  A    between atoms: N_8  and  C_9
REMARK    3  A    between atoms: C_9  and  C_10
REMARK    4  A    between atoms: N_20  and  C_21
REMARK    5  A    between atoms: C_21  and  C_22
REMARK    6  A    between atoms: C_23  and  C_24
REMARK                            x       y       z     vdW  Elec       q    Type
REMARK                         _______ _______ _______ _____ _____    ______ ____
ROOT
ATOM      1  O   UNL     1       1.960   9.590  17.266  0.00  0.00    +0.000 OA
ATOM      2  C   UNL     1       2.045   8.747  18.158  0.00  0.00    +0.000 C 
ATOM      3  N   UNL     1       1.425   8.877  19.395  0.00  0.00    +0.000 N 
ATOM      4  C   UNL     1       1.492   7.921  20.508  0.00  0.00    +0.000 C 
ATOM      5  C   UNL     1       1.920   8.633  21.803  0.00  0.00    +0.000 C 
ATOM      6  N   UNL     1       1.045   9.773  22.167  0.00  0.00    +0.000 NA
ATOM      7  C   UNL     1       1.010  10.715  21.022  0.00  0.00    +0.000 C 
ATOM      8  C   UNL     1       0.624  10.072  19.671  0.00  0.00    +0.000 C 
ENDROOT
BRANCH   2   9
ATOM      9  C   UNL     1       2.842   7.484  17.835  0.00  0.00    +0.000 A 
ATOM     10  C   UNL     1       4.214   7.719  17.353  0.00  0.00    +0.000 A 
ATOM     11  C   UNL     1       4.959   6.633  17.118  0.00  0.00    +0.000 A 
ATOM     12  C   UNL     1       4.399   5.275  17.274  0.00  0.00    +0.000 A 
ATOM     13  O   UNL     1       5.122   4.308  17.045  0.00  0.00    +0.000 OA
ATOM     14  N   UNL     1       3.067   5.206  17.664  0.00  0.00    +0.000 N 
ATOM     15  N   UNL     1       2.313   6.312  18.013  0.00  0.00    +0.000 NA
BRANCH  14  16
ATOM     16  C   UNL     1       2.394   3.906  17.738  0.00  0.00    +0.000 C 
BRANCH  16  17
ATOM     17  C   UNL     1       2.273   3.383  19.156  0.00  0.00    +0.000 A 
ATOM     18  C   UNL     1       1.042   3.440  19.830  0.00  0.00    +0.000 A 
ATOM     19  C   UNL     1       0.926   3.001  21.150  0.00  0.00    +0.000 A 
ATOM     20  C   UNL     1       2.038   2.490  21.815  0.00  0.00    +0.000 A 
ATOM     21  C   UNL     1       3.261   2.403  21.155  0.00  0.00    +0.000 A 
ATOM     22  C   UNL     1       3.381   2.846  19.833  0.00  0.00    +0.000 A 
ENDBRANCH  16  17
ENDBRANCH  14  16
ENDBRANCH   2   9
BRANCH   6  23
ATOM     23  C   UNL     1      -0.312   9.335  22.528  0.00  0.00    +0.000 C 
BRANCH  23  24
ATOM     24  C   UNL     1      -1.091  10.430  23.192  0.00  0.00    +0.000 C 
ATOM     25  C   UNL     1      -1.364  11.619  22.628  0.00  0.00    +0.000 C 
BRANCH  25  26
ATOM     26  C   UNL     1      -2.102  12.688  23.316  0.00  0.00    +0.000 A 
ATOM     27  C   UNL     1      -3.411  12.440  23.751  0.00  0.00    +0.000 A 
ATOM     28  C   UNL     1      -4.157  13.449  24.364  0.00  0.00    +0.000 A 
ATOM     29  C   UNL     1      -3.597  14.710  24.562  0.00  0.00    +0.000 A 
ATOM     30  C   UNL     1      -2.284  14.956  24.170  0.00  0.00    +0.000 A 
ATOM     31  C   UNL     1      -1.536  13.945  23.563  0.00  0.00    +0.000 A 
ENDBRANCH  25  26
ENDBRANCH  23  24
ENDBRANCH   6  23
TORSDOF 6
ENDMDL
MODEL 2
REMARK VINA RESULT:      -8.5      0.131      1.230
REMARK  Name = 
REMARK  6 active torsions:
REMARK  status: ('A' for Active; 'I' for Inactive)
REMARK    1  A    between atoms: C_2  and  C_3
REMARK    2  A    between atoms: N_8  and  C_9
REMARK    3  A    between atoms: C_9  and  C_10
REMARK    4  A    between atoms: N_20  and  C_21
REMARK    5  A    between atoms: C_21  and  C_22
REMARK    6  A    between atoms: C_23  and  C_24
REMARK                            x       y       z     vdW  Elec       q    Type
REMARK                         _______ _______ _______ _____ _____    ______ ____
ROOT
ATOM      1  O   UNL     1       2.146   9.675  17.280  0.00  0.00    +0.000 OA
ATOM      2  C   UNL     1       2.151   8.802  18.147  0.00  0.00    +0.000 C 
ATOM      3  N   UNL     1       1.497   8.931  19.367  0.00  0.00    +0.000 N 
ATOM      4  C   UNL     1       1.471   7.941  20.450  0.00  0.00    +0.000 C 
ATOM      5  C   UNL     1       1.895   8.588  21.781  0.00  0.00    +0.000 C 
ATOM      6  N   UNL     1       1.074   9.766  22.152  0.00  0.00    +0.000 NA
ATOM      7  C   UNL     1       1.133  10.742  21.037  0.00  0.00    +0.000 C 
ATOM      8  C   UNL     1       0.758  10.163  19.654  0.00  0.00    +0.000 C 
ENDROOT
BRANCH   2   9
ATOM      9  C   UNL     1       2.885   7.505  17.810  0.00  0.00    +0.000 A 
ATOM     10  C   UNL     1       4.246   7.680  17.272  0.00  0.00    +0.000 A 
ATOM     11  C   UNL     1       4.937   6.563  17.023  0.00  0.00    +0.000 A 
ATOM     12  C   UNL     1       4.332   5.229  17.220  0.00  0.00    +0.000 A 
ATOM     13  O   UNL     1       5.007   4.232  16.977  0.00  0.00    +0.000 OA
ATOM     14  N   UNL     1       3.015   5.218  17.663  0.00  0.00    +0.000 N 
ATOM     15  N   UNL     1       2.319   6.357  18.026  0.00  0.00    +0.000 NA
BRANCH  14  16
ATOM     16  C   UNL     1       2.295   3.947  17.781  0.00  0.00    +0.000 C 
BRANCH  16  17
ATOM     17  C   UNL     1       2.214   3.444  19.210  0.00  0.00    +0.000 A 
ATOM     18  C   UNL     1       3.354   2.925  19.844  0.00  0.00    +0.000 A 
ATOM     19  C   UNL     1       3.284   2.419  21.143  0.00  0.00    +0.000 A 
ATOM     20  C   UNL     1       2.073   2.431  21.832  0.00  0.00    +0.000 A 
ATOM     21  C   UNL     1       0.937   2.964  21.228  0.00  0.00    +0.000 A 
ATOM     22  C   UNL     1       1.004   3.468  19.924  0.00  0.00    +0.000 A 
ENDBRANCH  16  17
ENDBRANCH  14  16
ENDBRANCH   2   9
BRANCH   6  23
ATOM     23  C   UNL     1      -0.317   9.397  22.454  0.00  0.00    +0.000 C 
BRANCH  23  24
ATOM     24  C   UNL     1      -1.039  10.496  23.175  0.00  0.00    +0.000 C 
ATOM     25  C   UNL     1      -1.585  11.568  22.576  0.00  0.00    +0.000 C 
BRANCH  25  26
ATOM     26  C   UNL     1      -2.258  12.647  23.311  0.00  0.00    +0.000 A 
ATOM     27  C   UNL     1      -1.558  13.833  23.571  0.00  0.00    +0.000 A 
ATOM     28  C   UNL     1      -2.151  14.860  24.308  0.00  0.00    +0.000 A 
ATOM     29  C   UNL     1      -3.453  14.718  24.781  0.00  0.00    +0.000 A 
ATOM     30  C   UNL     1      -4.173  13.561  24.496  0.00  0.00    +0.000 A 
ATOM     31  C   UNL     1      -3.583  12.537  23.753  0.00  0.00    +0.000 A 
ENDBRANCH  25  26
ENDBRANCH  23  24
ENDBRANCH   6  23
TORSDOF 6
ENDMDL
MODEL 3
REMARK VINA RESULT:      -8.4      1.738      3.404
REMARK  Name = 
REMARK  6 active torsions:
REMARK  status: ('A' for Active; 'I' for Inactive)
REMARK    1  A    between atoms: C_2  and  C_3
REMARK    2  A    between atoms: N_8  and  C_9
REMARK    3  A    between atoms: C_9  and  C_10
REMARK    4  A    between atoms: N_20  and  C_21
REMARK    5  A    between atoms: C_21  and  C_22
REMARK    6  A    between atoms: C_23  and  C_24
REMARK                            x       y       z     vdW  Elec       q    Type
REMARK                         _______ _______ _______ _____ _____    ______ ____
ROOT
ATOM      1  O   UNL     1       2.058   8.392  17.980  0.00  0.00    +0.000 OA
ATOM      2  C   UNL     1       1.897   7.978  19.127  0.00  0.00    +0.000 C 
ATOM      3  N   UNL     1       1.183   8.670  20.099  0.00  0.00    +0.000 N 
ATOM      4  C   UNL     1       0.963   8.245  21.486  0.00  0.00    +0.000 C 
ATOM      5  C   UNL     1       1.371   9.362  22.463  0.00  0.00    +0.000 C 
ATOM      6  N   UNL     1       0.677  10.648  22.211  0.00  0.00    +0.000 NA
ATOM      7  C   UNL     1       0.930  11.044  20.804  0.00  0.00    +0.000 C 
ATOM      8  C   UNL     1       0.582   9.962  19.758  0.00  0.00    +0.000 C 
ENDROOT
BRANCH   2   9
ATOM      9  C   UNL     1       2.489   6.606  19.450  0.00  0.00    +0.000 A 
ATOM     10  C   UNL     1       1.590   5.697  20.183  0.00  0.00    +0.000 A 
ATOM     11  C   UNL     1       2.057   4.468  20.429  0.00  0.00    +0.000 A 
ATOM     12  C   UNL     1       3.427   4.078  20.039  0.00  0.00    +0.000 A 
ATOM     13  O   UNL     1       3.810   2.937  20.286  0.00  0.00    +0.000 OA
ATOM     14  N   UNL     1       4.187   5.062  19.419  0.00  0.00    +0.000 N 
ATOM     15  N   UNL     1       3.689   6.303  19.063  0.00  0.00    +0.000 NA
BRANCH  14  16
ATOM     16  C   UNL     1       5.593   4.804  19.095  0.00  0.00    +0.000 C 
BRANCH  16  17
ATOM     17  C   UNL     1       5.845   4.686  17.604  0.00  0.00    +0.000 A 
ATOM     18  C   UNL     1       4.846   4.185  16.755  0.00  0.00    +0.000 A 
ATOM     19  C   UNL     1       5.079   4.031  15.387  0.00  0.00    +0.000 A 
ATOM     20  C   UNL     1       6.312   4.383  14.846  0.00  0.00    +0.000 A 
ATOM     21  C   UNL     1       7.307   4.905  15.669  0.00  0.00    +0.000 A 
ATOM     22  C   UNL     1       7.077   5.057  17.041  0.00  0.00    +0.000 A 
ENDBRANCH  16  17
ENDBRANCH  14  16
ENDBRANCH   2   9
BRANCH   6  23
ATOM     23  C   UNL     1      -0.765  10.560  22.480  0.00  0.00    +0.000 C 
BRANCH  23  24
ATOM     24  C   UNL     1      -1.318  11.861  22.979  0.00  0.00    +0.000 C 
ATOM     25  C   UNL     1      -2.621  12.096  23.208  0.00  0.00    +0.000 C 
BRANCH  25  26
ATOM     26  C   UNL     1      -3.138  13.393  23.665  0.00  0.00    +0.000 A 
ATOM     27  C   UNL     1      -4.474  13.724  23.401  0.00  0.00    +0.000 A 
ATOM     28  C   UNL     1      -4.985  14.968  23.780  0.00  0.00    +0.000 A 
ATOM     29  C   UNL     1      -4.170  15.887  24.438  0.00  0.00    +0.000 A 
ATOM     30  C   UNL     1      -2.852  15.554  24.741  0.00  0.00    +0.000 A 
ATOM     31  C   UNL     1      -2.344  14.308  24.369  0.00  0.00    +0.000 A 
ENDBRANCH  25  26
ENDBRANCH  23  24
ENDBRANCH   6  23
TORSDOF 6
ENDMDL
MODEL 4
REMARK VINA RESULT:      -8.3      1.771      3.527
REMARK  Name = 
REMARK  6 active torsions:
REMARK  status: ('A' for Active; 'I' for Inactive)
REMARK    1  A    between atoms: C_2  and  C_3
REMARK    2  A    between atoms: N_8  and  C_9
REMARK    3  A    between atoms: C_9  and  C_10
REMARK    4  A    between atoms: N_20  and  C_21
REMARK    5  A    between atoms: C_21  and  C_22
REMARK    6  A    between atoms: C_23  and  C_24
REMARK                            x       y       z     vdW  Elec       q    Type
REMARK                         _______ _______ _______ _____ _____    ______ ____
ROOT
ATOM      1  O   UNL     1       2.349   8.325  17.823  0.00  0.00    +0.000 OA
ATOM      2  C   UNL     1       2.105   7.907  18.954  0.00  0.00    +0.000 C 
ATOM      3  N   UNL     1       1.346   8.609  19.883  0.00  0.00    +0.000 N 
ATOM      4  C   UNL     1       1.026   8.179  21.250  0.00  0.00    +0.000 C 
ATOM      5  C   UNL     1       1.397   9.280  22.260  0.00  0.00    +0.000 C 
ATOM      6  N   UNL     1       0.751  10.584  21.976  0.00  0.00    +0.000 NA
ATOM      7  C   UNL     1       1.105  10.984  20.591  0.00  0.00    +0.000 C 
ATOM      8  C   UNL     1       0.799   9.918  19.516  0.00  0.00    +0.000 C 
ENDROOT
BRANCH   2   9
ATOM      9  C   UNL     1       2.642   6.519  19.303  0.00  0.00    +0.000 A 
ATOM     10  C   UNL     1       1.713   5.665  20.065  0.00  0.00    +0.000 A 
ATOM     11  C   UNL     1       2.129   4.423  20.334  0.00  0.00    +0.000 A 
ATOM     12  C   UNL     1       3.479   3.967  19.940  0.00  0.00    +0.000 A 
ATOM     13  O   UNL     1       3.816   2.816  20.210  0.00  0.00    +0.000 OA
ATOM     14  N   UNL     1       4.273   4.904  19.291  0.00  0.00    +0.000 N 
ATOM     15  N   UNL     1       3.824   6.156  18.911  0.00  0.00    +0.000 NA
BRANCH  14  16
ATOM     16  C   UNL     1       5.663   4.579  18.960  0.00  0.00    +0.000 C 
BRANCH  16  17
ATOM     17  C   UNL     1       5.916   4.513  17.466  0.00  0.00    +0.000 A 
ATOM     18  C   UNL     1       7.078   5.079  16.919  0.00  0.00    +0.000 A 
ATOM     19  C   UNL     1       7.304   5.063  15.541  0.00  0.00    +0.000 A 
ATOM     20  C   UNL     1       6.372   4.474  14.689  0.00  0.00    +0.000 A 
ATOM     21  C   UNL     1       5.224   3.888  15.216  0.00  0.00    +0.000 A 
ATOM     22  C   UNL     1       4.995   3.905  16.596  0.00  0.00    +0.000 A 
ENDBRANCH  16  17
ENDBRANCH  14  16
ENDBRANCH   2   9
BRANCH   6  23
ATOM     23  C   UNL     1      -0.707  10.529  22.150  0.00  0.00    +0.000 C 
BRANCH  23  24
ATOM     24  C   UNL     1      -1.206  11.646  23.016  0.00  0.00    +0.000 C 
ATOM     25  C   UNL     1      -1.165  12.946  22.680  0.00  0.00    +0.000 C 
BRANCH  25  26
ATOM     26  C   UNL     1      -1.630  14.024  23.564  0.00  0.00    +0.000 A 
ATOM     27  C   UNL     1      -2.887  13.909  24.173  0.00  0.00    +0.000 A 
ATOM     28  C   UNL     1      -3.380  14.937  24.980  0.00  0.00    +0.000 A 
ATOM     29  C   UNL     1      -2.616  16.082  25.198  0.00  0.00    +0.000 A 
ATOM     30  C   UNL     1      -1.350  16.190  24.630  0.00  0.00    +0.000 A 
ATOM     31  C   UNL     1      -0.854  15.159  23.828  0.00  0.00    +0.000 A 
ENDBRANCH  25  26
ENDBRANCH  23  24
ENDBRANCH   6  23
TORSDOF 6
ENDMDL
MODEL 5
REMARK VINA RESULT:      -8.1      3.450      5.263
REMARK  Name = 
REMARK  6 active torsions:
REMARK  status: ('A' for Active; 'I' for Inactive)
REMARK    1  A    between atoms: C_2  and  C_3
REMARK    2  A    between atoms: N_8  and  C_9
REMARK    3  A    between atoms: C_9  and  C_10
REMARK    4  A    between atoms: N_20  and  C_21
REMARK    5  A    between atoms: C_21  and  C_22
REMARK    6  A    between atoms: C_23  and  C_24
REMARK                            x       y       z     vdW  Elec       q    Type
REMARK                         _______ _______ _______ _____ _____    ______ ____
ROOT
ATOM      1  O   UNL     1       1.253   6.418  21.345  0.00  0.00    +0.000 OA
ATOM      2  C   UNL     1       1.755   6.735  20.267  0.00  0.00    +0.000 C 
ATOM      3  N   UNL     1       1.793   8.042  19.794  0.00  0.00    +0.000 N 
ATOM      4  C   UNL     1       2.362   8.490  18.518  0.00  0.00    +0.000 C 
ATOM      5  C   UNL     1       1.337   9.332  17.738  0.00  0.00    +0.000 C 
ATOM      6  N   UNL     1       0.827  10.497  18.502  0.00  0.00    +0.000 NA
ATOM      7  C   UNL     1       0.257  10.000  19.778  0.00  0.00    +0.000 C 
ATOM      8  C   UNL     1       1.211   9.113  20.607  0.00  0.00    +0.000 C 
ENDROOT
BRANCH   2   9
ATOM      9  C   UNL     1       2.402   5.613  19.456  0.00  0.00    +0.000 A 
ATOM     10  C   UNL     1       1.457   4.726  18.755  0.00  0.00    +0.000 A 
ATOM     11  C   UNL     1       1.993   3.770  17.988  0.00  0.00    +0.000 A 
ATOM     12  C   UNL     1       3.457   3.583  17.910  0.00  0.00    +0.000 A 
ATOM     13  O   UNL     1       3.901   2.691  17.192  0.00  0.00    +0.000 OA
ATOM     14  N   UNL     1       4.222   4.447  18.684  0.00  0.00    +0.000 N 
ATOM     15  N   UNL     1       3.694   5.507  19.399  0.00  0.00    +0.000 NA
BRANCH  14  16
ATOM     16  C   UNL     1       5.675   4.268  18.757  0.00  0.00    +0.000 C 
BRANCH  16  17
ATOM     17  C   UNL     1       6.445   5.519  18.378  0.00  0.00    +0.000 A 
ATOM     18  C   UNL     1       7.601   5.881  19.089  0.00  0.00    +0.000 A 
ATOM     19  C   UNL     1       8.296   7.051  18.778  0.00  0.00    +0.000 A 
ATOM     20  C   UNL     1       7.850   7.875  17.747  0.00  0.00    +0.000 A 
ATOM     21  C   UNL     1       6.719   7.519  17.016  0.00  0.00    +0.000 A 
ATOM     22  C   UNL     1       6.019   6.348  17.327  0.00  0.00    +0.000 A 
ENDBRANCH  16  17
ENDBRANCH  14  16
ENDBRANCH   2   9
BRANCH   6  23
ATOM     23  C   UNL     1       1.876  11.497  18.749  0.00  0.00    +0.000 C 
BRANCH  23  24
ATOM     24  C   UNL     1       1.422  12.879  18.385  0.00  0.00    +0.000 C 
ATOM     25  C   UNL     1       1.678  13.980  19.111  0.00  0.00    +0.000 C 
BRANCH  25  26
ATOM     26  C   UNL     1       1.191  15.318  18.748  0.00  0.00    +0.000 A 
ATOM     27  C   UNL     1      -0.188  15.566  18.757  0.00  0.00    +0.000 A 
ATOM     28  C   UNL     1      -0.686  16.812  18.370  0.00  0.00    +0.000 A 
ATOM     29  C   UNL     1       0.188  17.826  17.985  0.00  0.00    +0.000 A 
ATOM     30  C   UNL     1       1.563  17.603  18.009  0.00  0.00    +0.000 A 
ATOM     31  C   UNL     1       2.061  16.360  18.402  0.00  0.00    +0.000 A 
ENDBRANCH  25  26
ENDBRANCH  23  24
ENDBRANCH   6  23
TORSDOF 6
ENDMDL
MODEL 6
REMARK VINA RESULT:      -8.1      0.774      1.045
REMARK  Name = 
REMARK  6 active torsions:
REMARK  status: ('A' for Active; 'I' for Inactive)
REMARK    1  A    between atoms: C_2  and  C_3
REMARK    2  A    between atoms: N_8  and  C_9
REMARK    3  A    between atoms: C_9  and  C_10
REMARK    4  A    between atoms: N_20  and  C_21
REMARK    5  A    between atoms: C_21  and  C_22
REMARK    6  A    between atoms: C_23  and  C_24
REMARK                            x       y       z     vdW  Elec       q    Type
REMARK                         _______ _______ _______ _____ _____    ______ ____
ROOT
ATOM      1  O   UNL     1       1.931   9.718  17.284  0.00  0.00    +0.000 OA
ATOM      2  C   UNL     1       1.990   8.884  18.187  0.00  0.00    +0.000 C 
ATOM      3  N   UNL     1       1.386   9.054  19.427  0.00  0.00    +0.000 N 
ATOM      4  C   UNL     1       1.425   8.112  20.552  0.00  0.00    +0.000 C 
ATOM      5  C   UNL     1       1.891   8.824  21.834  0.00  0.00    +0.000 C 
ATOM      6  N   UNL     1       1.062  10.002  22.189  0.00  0.00    +0.000 NA
ATOM      7  C   UNL     1       1.055  10.929  21.032  0.00  0.00    +0.000 C 
ATOM      8  C   UNL     1       0.634  10.284  19.693  0.00  0.00    +0.000 C 
ENDROOT
BRANCH   2   9
ATOM      9  C   UNL     1       2.736   7.587  17.875  0.00  0.00    +0.000 A 
ATOM     10  C   UNL     1       4.113   7.763  17.382  0.00  0.00    +0.000 A 
ATOM     11  C   UNL     1       4.813   6.646  17.156  0.00  0.00    +0.000 A 
ATOM     12  C   UNL     1       4.202   5.312  17.333  0.00  0.00    +0.000 A 
ATOM     13  O   UNL     1       4.885   4.315  17.113  0.00  0.00    +0.000 OA
ATOM     14  N   UNL     1       2.871   5.300  17.733  0.00  0.00    +0.000 N 
ATOM     15  N   UNL     1       2.163   6.439  18.072  0.00  0.00    +0.000 NA
BRANCH  14  16
ATOM     16  C   UNL     1       2.148   4.029  17.828  0.00  0.00    +0.000 C 
BRANCH  16  17
ATOM     17  C   UNL     1       2.160   3.445  19.228  0.00  0.00    +0.000 A 
ATOM     18  C   UNL     1       1.002   3.486  20.021  0.00  0.00    +0.000 A 
ATOM     19  C   UNL     1       1.010   2.991  21.326  0.00  0.00    +0.000 A 
ATOM     20  C   UNL     1       2.174   2.440  21.857  0.00  0.00    +0.000 A 
ATOM     21  C   UNL     1       3.325   2.370  21.076  0.00  0.00    +0.000 A 
ATOM     22  C   UNL     1       3.321   2.868  19.769  0.00  0.00    +0.000 A 
ENDBRANCH  16  17
ENDBRANCH  14  16
ENDBRANCH   2   9
BRANCH   6  23
ATOM     23  C   UNL     1      -0.307   9.621  22.566  0.00  0.00    +0.000 C 
BRANCH  23  24
ATOM     24  C   UNL     1      -1.269  10.756  22.382  0.00  0.00    +0.000 C 
ATOM     25  C   UNL     1      -1.922  11.370  23.382  0.00  0.00    +0.000 C 
BRANCH  25  26
ATOM     26  C   UNL     1      -2.886  12.459  23.169  0.00  0.00    +0.000 A 
ATOM     27  C   UNL     1      -2.826  13.197  21.979  0.00  0.00    +0.000 A 
ATOM     28  C   UNL     1      -3.696  14.268  21.765  0.00  0.00    +0.000 A 
ATOM     29  C   UNL     1      -4.643  14.603  22.731  0.00  0.00    +0.000 A 
ATOM     30  C   UNL     1      -4.738  13.852  23.900  0.00  0.00    +0.000 A 
ATOM     31  C   UNL     1      -3.873  12.777  24.110  0.00  0.00    +0.000 A 
ENDBRANCH  25  26
ENDBRANCH  23  24
ENDBRANCH   6  23
TORSDOF 6
ENDMDL
MODEL 7
REMARK VINA RESULT:      -8.0      3.853     10.402
REMARK  Name = 
REMARK  6 active torsions:
REMARK  status: ('A' for Active; 'I' for Inactive)
REMARK    1  A    between atoms: C_2  and  C_3
REMARK    2  A    between atoms: N_8  and  C_9
REMARK    3  A    between atoms: C_9  and  C_10
REMARK    4  A    between atoms: N_20  and  C_21
REMARK    5  A    between atoms: C_21  and  C_22
REMARK    6  A    between atoms: C_23  and  C_24
REMARK                            x       y       z     vdW  Elec       q    Type
REMARK                         _______ _______ _______ _____ _____    ______ ____
ROOT
ATOM      1  O   UNL     1       0.302  14.422  20.641  0.00  0.00    +0.000 OA
ATOM      2  C   UNL     1      -0.347  13.385  20.771  0.00  0.00    +0.000 C 
ATOM      3  N   UNL     1       0.110  12.138  20.361  0.00  0.00    +0.000 N 
ATOM      4  C   UNL     1      -0.612  10.865  20.472  0.00  0.00    +0.000 C 
ATOM      5  C   UNL     1      -0.655  10.151  19.110  0.00  0.00    +0.000 C 
ATOM      6  N   UNL     1       0.686   9.922  18.520  0.00  0.00    +0.000 NA
ATOM      7  C   UNL     1       1.377  11.230  18.420  0.00  0.00    +0.000 C 
ATOM      8  C   UNL     1       1.433  12.032  19.739  0.00  0.00    +0.000 C 
ENDROOT
BRANCH   2   9
ATOM      9  C   UNL     1      -1.702  13.507  21.468  0.00  0.00    +0.000 A 
ATOM     10  C   UNL     1      -1.675  13.299  22.926  0.00  0.00    +0.000 A 
ATOM     11  C   UNL     1      -2.834  13.457  23.573  0.00  0.00    +0.000 A 
ATOM     12  C   UNL     1      -4.082  13.760  22.843  0.00  0.00    +0.000 A 
ATOM     13  O   UNL     1      -5.123  13.896  23.482  0.00  0.00    +0.000 OA
ATOM     14  N   UNL     1      -3.971  13.856  21.461  0.00  0.00    +0.000 N 
ATOM     15  N   UNL     1      -2.766  13.800  20.784  0.00  0.00    +0.000 NA
BRANCH  14  16
ATOM     16  C   UNL     1      -5.172  14.044  20.643  0.00  0.00    +0.000 C 
BRANCH  16  17
ATOM     17  C   UNL     1      -5.697  12.748  20.056  0.00  0.00    +0.000 A 
ATOM     18  C   UNL     1      -5.289  12.333  18.778  0.00  0.00    +0.000 A 
ATOM     19  C   UNL     1      -5.797  11.164  18.208  0.00  0.00    +0.000 A 
ATOM     20  C   UNL     1      -6.716  10.387  18.910  0.00  0.00    +0.000 A 
ATOM     21  C   UNL     1      -7.114  10.771  20.188  0.00  0.00    +0.000 A 
ATOM     22  C   UNL     1      -6.608  11.943  20.760  0.00  0.00    +0.000 A 
ENDBRANCH  16  17
ENDBRANCH  14  16
ENDBRANCH   2   9
BRANCH   6  23
ATOM     23  C   UNL     1       1.480   8.967  19.307  0.00  0.00    +0.000 C 
BRANCH  23  24
ATOM     24  C   UNL     1       2.407   8.169  18.441  0.00  0.00    +0.000 C 
ATOM     25  C   UNL     1       2.559   6.836  18.515  0.00  0.00    +0.000 C 
BRANCH  25  26
ATOM     26  C   UNL     1       3.500   6.082  17.676  0.00  0.00    +0.000 A 
ATOM     27  C   UNL     1       4.445   6.784  16.914  0.00  0.00    +0.000 A 
ATOM     28  C   UNL     1       5.322   6.102  16.069  0.00  0.00    +0.000 A 
ATOM     29  C   UNL     1       5.274   4.712  15.987  0.00  0.00    +0.000 A 
ATOM     30  C   UNL     1       4.366   4.001  16.768  0.00  0.00    +0.000 A 
ATOM     31  C   UNL     1       3.494   4.683  17.618  0.00  0.00    +0.000 A 
ENDBRANCH  25  26
ENDBRANCH  23  24
ENDBRANCH   6  23
TORSDOF 6
ENDMDL
MODEL 8
REMARK VINA RESULT:      -8.0      1.620      3.340
REMARK  Name = 
REMARK  6 active torsions:
REMARK  status: ('A' for Active; 'I' for Inactive)
REMARK    1  A    between atoms: C_2  and  C_3
REMARK    2  A    between atoms: N_8  and  C_9
REMARK    3  A    between atoms: C_9  and  C_10
REMARK    4  A    between atoms: N_20  and  C_21
REMARK    5  A    between atoms: C_21  and  C_22
REMARK    6  A    between atoms: C_23  and  C_24
REMARK                            x       y       z     vdW  Elec       q    Type
REMARK                         _______ _______ _______ _____ _____    ______ ____
ROOT
ATOM      1  O   UNL     1       2.286   8.655  17.845  0.00  0.00    +0.000 OA
ATOM      2  C   UNL     1       1.887   8.170  18.903  0.00  0.00    +0.000 C 
ATOM      3  N   UNL     1       1.162   8.885  19.849  0.00  0.00    +0.000 N 
ATOM      4  C   UNL     1       0.667   8.377  21.134  0.00  0.00    +0.000 C 
ATOM      5  C   UNL     1       1.106   9.302  22.283  0.00  0.00    +0.000 C 
ATOM      6  N   UNL     1       0.686  10.712  22.100  0.00  0.00    +0.000 NA
ATOM      7  C   UNL     1       1.212  11.187  20.797  0.00  0.00    +0.000 C 
ATOM      8  C   UNL     1       0.846  10.293  19.591  0.00  0.00    +0.000 C 
ENDROOT
BRANCH   2   9
ATOM      9  C   UNL     1       2.182   6.688  19.132  0.00  0.00    +0.000 A 
ATOM     10  C   UNL     1       2.031   6.230  20.524  0.00  0.00    +0.000 A 
ATOM     11  C   UNL     1       2.224   4.926  20.748  0.00  0.00    +0.000 A 
ATOM     12  C   UNL     1       2.632   4.015  19.658  0.00  0.00    +0.000 A 
ATOM     13  O   UNL     1       2.798   2.825  19.913  0.00  0.00    +0.000 OA
ATOM     14  N   UNL     1       2.809   4.601  18.410  0.00  0.00    +0.000 N 
ATOM     15  N   UNL     1       2.513   5.924  18.136  0.00  0.00    +0.000 NA
BRANCH  14  16
ATOM     16  C   UNL     1       3.319   3.800  17.293  0.00  0.00    +0.000 C 
BRANCH  16  17
ATOM     17  C   UNL     1       4.761   4.117  16.948  0.00  0.00    +0.000 A 
ATOM     18  C   UNL     1       5.691   4.381  17.966  0.00  0.00    +0.000 A 
ATOM     19  C   UNL     1       7.012   4.716  17.662  0.00  0.00    +0.000 A 
ATOM     20  C   UNL     1       7.426   4.784  16.333  0.00  0.00    +0.000 A 
ATOM     21  C   UNL     1       6.523   4.502  15.311  0.00  0.00    +0.000 A 
ATOM     22  C   UNL     1       5.198   4.170  15.614  0.00  0.00    +0.000 A 
ENDBRANCH  16  17
ENDBRANCH  14  16
ENDBRANCH   2   9
BRANCH   6  23
ATOM     23  C   UNL     1      -0.775  10.866  22.165  0.00  0.00    +0.000 C 
BRANCH  23  24
ATOM     24  C   UNL     1      -1.168  12.165  22.801  0.00  0.00    +0.000 C 
ATOM     25  C   UNL     1      -2.424  12.492  23.150  0.00  0.00    +0.000 C 
BRANCH  25  26
ATOM     26  C   UNL     1      -2.786  13.787  23.742  0.00  0.00    +0.000 A 
ATOM     27  C   UNL     1      -1.792  14.550  24.370  0.00  0.00    +0.000 A 
ATOM     28  C   UNL     1      -2.112  15.763  24.984  0.00  0.00    +0.000 A 
ATOM     29  C   UNL     1      -3.423  16.233  24.964  0.00  0.00    +0.000 A 
ATOM     30  C   UNL     1      -4.412  15.503  24.309  0.00  0.00    +0.000 A 
ATOM     31  C   UNL     1      -4.091  14.293  23.689  0.00  0.00    +0.000 A 
ENDBRANCH  25  26
ENDBRANCH  23  24
ENDBRANCH   6  23
TORSDOF 6
ENDMDL
MODEL 9
REMARK VINA RESULT:      -8.0      1.790      3.596
REMARK  Name = 
REMARK  6 active torsions:
REMARK  status: ('A' for Active; 'I' for Inactive)
REMARK    1  A    between atoms: C_2  and  C_3
REMARK    2  A    between atoms: N_8  and  C_9
REMARK    3  A    between atoms: C_9  and  C_10
REMARK    4  A    between atoms: N_20  and  C_21
REMARK    5  A    between atoms: C_21  and  C_22
REMARK    6  A    between atoms: C_23  and  C_24
REMARK                            x       y       z     vdW  Elec       q    Type
REMARK                         _______ _______ _______ _____ _____    ______ ____
ROOT
ATOM      1  O   UNL     1       1.756   8.682  17.929  0.00  0.00    +0.000 OA
ATOM      2  C   UNL     1       1.677   8.197  19.057  0.00  0.00    +0.000 C 
ATOM      3  N   UNL     1       1.014   8.814  20.111  0.00  0.00    +0.000 N 
ATOM      4  C   UNL     1       0.891   8.303  21.482  0.00  0.00    +0.000 C 
ATOM      5  C   UNL     1       1.340   9.369  22.496  0.00  0.00    +0.000 C 
ATOM      6  N   UNL     1       0.608  10.652  22.367  0.00  0.00    +0.000 NA
ATOM      7  C   UNL     1       0.763  11.136  20.973  0.00  0.00    +0.000 C 
ATOM      8  C   UNL     1       0.368  10.110  19.888  0.00  0.00    +0.000 C 
ENDROOT
BRANCH   2   9
ATOM      9  C   UNL     1       2.313   6.822  19.259  0.00  0.00    +0.000 A 
ATOM     10  C   UNL     1       1.775   6.046  20.390  0.00  0.00    +0.000 A 
ATOM     11  C   UNL     1       2.268   4.814  20.557  0.00  0.00    +0.000 A 
ATOM     12  C   UNL     1       3.344   4.297  19.686  0.00  0.00    +0.000 A 
ATOM     13  O   UNL     1       3.765   3.159  19.879  0.00  0.00    +0.000 OA
ATOM     14  N   UNL     1       3.806   5.167  18.707  0.00  0.00    +0.000 N 
ATOM     15  N   UNL     1       3.238   6.403  18.450  0.00  0.00    +0.000 NA
BRANCH  14  16
ATOM     16  C   UNL     1       4.945   4.785  17.867  0.00  0.00    +0.000 C 
BRANCH  16  17
ATOM     17  C   UNL     1       6.140   5.702  18.038  0.00  0.00    +0.000 A 
ATOM     18  C   UNL     1       7.082   5.457  19.050  0.00  0.00    +0.000 A 
ATOM     19  C   UNL     1       8.164   6.317  19.246  0.00  0.00    +0.000 A 
ATOM     20  C   UNL     1       8.326   7.432  18.427  0.00  0.00    +0.000 A 
ATOM     21  C   UNL     1       7.415   7.678  17.403  0.00  0.00    +0.000 A 
ATOM     22  C   UNL     1       6.328   6.819  17.207  0.00  0.00    +0.000 A 
ENDBRANCH  16  17
ENDBRANCH  14  16
ENDBRANCH   2   9
BRANCH   6  23
ATOM     23  C   UNL     1      -0.813  10.516  22.720  0.00  0.00    +0.000 C 
BRANCH  23  24
ATOM     24  C   UNL     1      -1.461  11.850  22.938  0.00  0.00    +0.000 C 
ATOM     25  C   UNL     1      -2.726  12.022  23.357  0.00  0.00    +0.000 C 
BRANCH  25  26
ATOM     26  C   UNL     1      -3.347  13.342  23.530  0.00  0.00    +0.000 A 
ATOM     27  C   UNL     1      -4.389  13.722  22.674  0.00  0.00    +0.000 A 
ATOM     28  C   UNL     1      -4.968  14.989  22.780  0.00  0.00    +0.000 A 
ATOM     29  C   UNL     1      -4.522  15.882  23.752  0.00  0.00    +0.000 A 
ATOM     30  C   UNL     1      -3.514  15.501  24.634  0.00  0.00    +0.000 A 
ATOM     31  C   UNL     1      -2.940  14.233  24.532  0.00  0.00    +0.000 A 
ENDBRANCH  25  26
ENDBRANCH  23  24
ENDBRANCH   6  23
TORSDOF 6
ENDMDL
