MODEL 1
REMARK VINA RESULT:      -8.3      0.000      0.000
REMARK  Name = 
REMARK  5 active torsions:
REMARK  status: ('A' for Active; 'I' for Inactive)
REMARK    1  A    between atoms: O_1  and  C_2
REMARK    2  A    between atoms: C_2  and  C_3
REMARK    3  A    between atoms: C_3  and  C_4
REMARK    4  A    between atoms: C_9  and  N_10
REMARK    5  A    between atoms: C_14  and  C_15
REMARK                            x       y       z     vdW  Elec       q    Type
REMARK                         _______ _______ _______ _____ _____    ______ ____
ROOT
ATOM      1  N   UNL     1       4.060   6.535  17.401  0.00  0.00    +0.000 N 
ATOM      2  C   UNL     1       3.853   7.899  17.430  0.00  0.00    +0.000 A 
ATOM      3  C   UNL     1       2.684   8.111  18.111  0.00  0.00    +0.000 A 
ATOM      4  N   UNL     1       2.146   6.931  18.508  0.00  0.00    +0.000 NA
ATOM      5  C   UNL     1       2.954   5.974  18.078  0.00  0.00    +0.000 A 
ENDROOT
BRANCH   5   6
ATOM      6  C   UNL     1       2.713   4.558  18.367  0.00  0.00    +0.000 A 
ATOM      7  C   UNL     1       2.684   3.523  17.399  0.00  0.00    +0.000 A 
ATOM      8  C   UNL     1       2.351   2.178  17.699  0.00  0.00    +0.000 A 
ATOM      9  C   UNL     1       2.085   1.731  19.004  0.00  0.00    +0.000 A 
ATOM     10  C   UNL     1       2.181   2.723  19.998  0.00  0.00    +0.000 A 
ATOM     11  N   UNL     1       2.012   2.596  21.319  0.00  0.00    +0.000 NA
ATOM     12  O   UNL     1       2.209   3.859  21.843  0.00  0.00    +0.000 OA
ATOM     13  N   UNL     1       2.455   4.794  20.858  0.00  0.00    +0.000 NA
ATOM     14  C   UNL     1       2.482   4.123  19.695  0.00  0.00    +0.000 A 
ENDBRANCH   5   6
BRANCH   1  20
ATOM     15  C   UNL     1       6.256   5.307  17.503  0.00  0.00    +0.000 A 
ATOM     16  C   UNL     1       7.171   4.500  16.789  0.00  0.00    +0.000 A 
ATOM     17  C   UNL     1       7.036   4.256  15.422  0.00  0.00    +0.000 A 
ATOM     18  C   UNL     1       6.012   4.861  14.712  0.00  0.00    +0.000 A 
ATOM     19  C   UNL     1       5.100   5.674  15.380  0.00  0.00    +0.000 A 
ATOM     20  C   UNL     1       5.162   5.853  16.775  0.00  0.00    +0.000 A 
BRANCH  15  21
ATOM     21  C   UNL     1       6.461   5.513  18.994  0.00  0.00    +0.000 C 
BRANCH  21  22
ATOM     22  C   UNL     1       7.840   5.953  19.497  0.00  0.00    +0.000 C 
BRANCH  22  23
ATOM     23  O   UNL     1       8.145   5.244  20.694  0.00  0.00    +0.000 OA
ATOM     24  H   UNL     1       9.066   5.452  20.927  0.00  0.00    +0.000 HD
ENDBRANCH  22  23
ENDBRANCH  21  22
ENDBRANCH  15  21
ENDBRANCH   1  20
TORSDOF 5
ENDMDL
MODEL 2
REMARK VINA RESULT:      -8.0      2.288      5.840
REMARK  Name = 
REMARK  5 active torsions:
REMARK  status: ('A' for Active; 'I' for Inactive)
REMARK    1  A    between atoms: O_1  and  C_2
REMARK    2  A    between atoms: C_2  and  C_3
REMARK    3  A    between atoms: C_3  and  C_4
REMARK    4  A    between atoms: C_9  and  N_10
REMARK    5  A    between atoms: C_14  and  C_15
REMARK                            x       y       z     vdW  Elec       q    Type
REMARK                         _______ _______ _______ _____ _____    ______ ____
ROOT
ATOM      1  N   UNL     1       2.650   4.154  18.295  0.00  0.00    +0.000 N 
ATOM      2  C   UNL     1       1.820   3.095  17.994  0.00  0.00    +0.000 A 
ATOM      3  C   UNL     1       2.606   2.111  17.456  0.00  0.00    +0.000 A 
ATOM      4  N   UNL     1       3.900   2.514  17.404  0.00  0.00    +0.000 NA
ATOM      5  C   UNL     1       3.942   3.745  17.893  0.00  0.00    +0.000 A 
ENDROOT
BRANCH   5   6
ATOM      6  C   UNL     1       5.196   4.488  18.037  0.00  0.00    +0.000 A 
ATOM      7  C   UNL     1       5.810   4.818  19.271  0.00  0.00    +0.000 A 
ATOM      8  C   UNL     1       6.972   5.623  19.378  0.00  0.00    +0.000 A 
ATOM      9  C   UNL     1       7.666   6.112  18.258  0.00  0.00    +0.000 A 
ATOM     10  C   UNL     1       7.123   5.736  17.016  0.00  0.00    +0.000 A 
ATOM     11  N   UNL     1       7.573   6.023  15.790  0.00  0.00    +0.000 NA
ATOM     12  O   UNL     1       6.683   5.427  14.916  0.00  0.00    +0.000 OA
ATOM     13  N   UNL     1       5.646   4.804  15.582  0.00  0.00    +0.000 NA
ATOM     14  C   UNL     1       5.899   4.941  16.894  0.00  0.00    +0.000 A 
ENDBRANCH   5   6
BRANCH   1  20
ATOM     15  C   UNL     1       1.696   5.539  20.170  0.00  0.00    +0.000 A 
ATOM     16  C   UNL     1       1.528   6.845  20.680  0.00  0.00    +0.000 A 
ATOM     17  C   UNL     1       1.867   7.981  19.942  0.00  0.00    +0.000 A 
ATOM     18  C   UNL     1       2.332   7.845  18.645  0.00  0.00    +0.000 A 
ATOM     19  C   UNL     1       2.497   6.573  18.104  0.00  0.00    +0.000 A 
ATOM     20  C   UNL     1       2.253   5.415  18.866  0.00  0.00    +0.000 A 
BRANCH  15  21
ATOM     21  C   UNL     1       1.318   4.352  21.040  0.00  0.00    +0.000 C 
BRANCH  21  22
ATOM     22  C   UNL     1       2.434   3.467  21.607  0.00  0.00    +0.000 C 
BRANCH  22  23
ATOM     23  O   UNL     1       1.854   2.297  22.176  0.00  0.00    +0.000 OA
ATOM     24  H   UNL     1       1.663   2.494  23.109  0.00  0.00    +0.000 HD
ENDBRANCH  22  23
ENDBRANCH  21  22
ENDBRANCH  15  21
ENDBRANCH   1  20
TORSDOF 5
ENDMDL
MODEL 3
REMARK VINA RESULT:      -7.6      1.371      1.378
REMARK  Name = 
REMARK  5 active torsions:
REMARK  status: ('A' for Active; 'I' for Inactive)
REMARK    1  A    between atoms: O_1  and  C_2
REMARK    2  A    between atoms: C_2  and  C_3
REMARK    3  A    between atoms: C_3  and  C_4
REMARK    4  A    between atoms: C_9  and  N_10
REMARK    5  A    between atoms: C_14  and  C_15
REMARK                            x       y       z     vdW  Elec       q    Type
REMARK                         _______ _______ _______ _____ _____    ______ ____
ROOT
ATOM      1  N   UNL     1       4.120   6.534  17.207  0.00  0.00    +0.000 N 
ATOM      2  C   UNL     1       3.940   7.901  17.257  0.00  0.00    +0.000 A 
ATOM      3  C   UNL     1       2.843   8.132  18.043  0.00  0.00    +0.000 A 
ATOM      4  N   UNL     1       2.323   6.960  18.486  0.00  0.00    +0.000 NA
ATOM      5  C   UNL     1       3.072   5.990  17.983  0.00  0.00    +0.000 A 
ENDROOT
BRANCH   5   6
ATOM      6  C   UNL     1       2.834   4.578  18.291  0.00  0.00    +0.000 A 
ATOM      7  C   UNL     1       1.685   3.842  17.906  0.00  0.00    +0.000 A 
ATOM      8  C   UNL     1       1.441   2.504  18.304  0.00  0.00    +0.000 A 
ATOM      9  C   UNL     1       2.355   1.756  19.064  0.00  0.00    +0.000 A 
ATOM     10  C   UNL     1       3.541   2.436  19.398  0.00  0.00    +0.000 A 
ATOM     11  N   UNL     1       4.596   1.982  20.083  0.00  0.00    +0.000 NA
ATOM     12  O   UNL     1       5.487   3.037  20.141  0.00  0.00    +0.000 OA
ATOM     13  N   UNL     1       4.982   4.171  19.536  0.00  0.00    +0.000 NA
ATOM     14  C   UNL     1       3.785   3.832  19.029  0.00  0.00    +0.000 A 
ENDBRANCH   5   6
BRANCH   1  20
ATOM     15  C   UNL     1       6.491   5.727  16.940  0.00  0.00    +0.000 A 
ATOM     16  C   UNL     1       7.349   4.856  16.232  0.00  0.00    +0.000 A 
ATOM     17  C   UNL     1       6.922   4.139  15.113  0.00  0.00    +0.000 A 
ATOM     18  C   UNL     1       5.636   4.318  14.632  0.00  0.00    +0.000 A 
ATOM     19  C   UNL     1       4.767   5.179  15.296  0.00  0.00    +0.000 A 
ATOM     20  C   UNL     1       5.148   5.835  16.482  0.00  0.00    +0.000 A 
BRANCH  15  21
ATOM     21  C   UNL     1       7.025   6.461  18.159  0.00  0.00    +0.000 C 
BRANCH  21  22
ATOM     22  C   UNL     1       8.107   5.788  19.011  0.00  0.00    +0.000 C 
BRANCH  22  23
ATOM     23  O   UNL     1       7.560   5.468  20.287  0.00  0.00    +0.000 OA
ATOM     24  H   UNL     1       6.974   6.200  20.543  0.00  0.00    +0.000 HD
ENDBRANCH  22  23
ENDBRANCH  21  22
ENDBRANCH  15  21
ENDBRANCH   1  20
TORSDOF 5
ENDMDL
MODEL 4
REMARK VINA RESULT:      -7.4      1.981      5.296
REMARK  Name = 
REMARK  5 active torsions:
REMARK  status: ('A' for Active; 'I' for Inactive)
REMARK    1  A    between atoms: O_1  and  C_2
REMARK    2  A    between atoms: C_2  and  C_3
REMARK    3  A    between atoms: C_3  and  C_4
REMARK    4  A    between atoms: C_9  and  N_10
REMARK    5  A    between atoms: C_14  and  C_15
REMARK                            x       y       z     vdW  Elec       q    Type
REMARK                         _______ _______ _______ _____ _____    ______ ____
ROOT
ATOM      1  N   UNL     1       2.514   3.951  18.260  0.00  0.00    +0.000 N 
ATOM      2  C   UNL     1       1.675   2.869  18.426  0.00  0.00    +0.000 A 
ATOM      3  C   UNL     1       2.303   1.787  17.869  0.00  0.00    +0.000 A 
ATOM      4  N   UNL     1       3.505   2.149  17.356  0.00  0.00    +0.000 NA
ATOM      5  C   UNL     1       3.642   3.449  17.571  0.00  0.00    +0.000 A 
ENDROOT
BRANCH   5   6
ATOM      6  C   UNL     1       4.851   4.183  17.190  0.00  0.00    +0.000 A 
ATOM      7  C   UNL     1       5.187   4.569  15.868  0.00  0.00    +0.000 A 
ATOM      8  C   UNL     1       6.412   5.192  15.521  0.00  0.00    +0.000 A 
ATOM      9  C   UNL     1       7.382   5.549  16.472  0.00  0.00    +0.000 A 
ATOM     10  C   UNL     1       7.043   5.247  17.804  0.00  0.00    +0.000 A 
ATOM     11  N   UNL     1       7.745   5.489  18.916  0.00  0.00    +0.000 NA
ATOM     12  O   UNL     1       6.979   4.994  19.955  0.00  0.00    +0.000 OA
ATOM     13  N   UNL     1       5.818   4.399  19.503  0.00  0.00    +0.000 NA
ATOM     14  C   UNL     1       5.800   4.565  18.170  0.00  0.00    +0.000 A 
ENDBRANCH   5   6
BRANCH   1  20
ATOM     15  C   UNL     1       1.825   5.645  19.992  0.00  0.00    +0.000 A 
ATOM     16  C   UNL     1       1.793   7.017  20.328  0.00  0.00    +0.000 A 
ATOM     17  C   UNL     1       2.144   8.013  19.415  0.00  0.00    +0.000 A 
ATOM     18  C   UNL     1       2.482   7.669  18.117  0.00  0.00    +0.000 A 
ATOM     19  C   UNL     1       2.512   6.327  17.747  0.00  0.00    +0.000 A 
ATOM     20  C   UNL     1       2.256   5.304  18.680  0.00  0.00    +0.000 A 
BRANCH  15  21
ATOM     21  C   UNL     1       1.444   4.617  21.046  0.00  0.00    +0.000 C 
BRANCH  21  22
ATOM     22  C   UNL     1       2.549   3.769  21.684  0.00  0.00    +0.000 C 
BRANCH  22  23
ATOM     23  O   UNL     1       2.004   2.512  22.072  0.00  0.00    +0.000 OA
ATOM     24  H   UNL     1       1.535   2.150  21.301  0.00  0.00    +0.000 HD
ENDBRANCH  22  23
ENDBRANCH  21  22
ENDBRANCH  15  21
ENDBRANCH   1  20
TORSDOF 5
ENDMDL
MODEL 5
REMARK VINA RESULT:      -7.4      2.954      6.063
REMARK  Name = 
REMARK  5 active torsions:
REMARK  status: ('A' for Active; 'I' for Inactive)
REMARK    1  A    between atoms: O_1  and  C_2
REMARK    2  A    between atoms: C_2  and  C_3
REMARK    3  A    between atoms: C_3  and  C_4
REMARK    4  A    between atoms: C_9  and  N_10
REMARK    5  A    between atoms: C_14  and  C_15
REMARK                            x       y       z     vdW  Elec       q    Type
REMARK                         _______ _______ _______ _____ _____    ______ ____
ROOT
ATOM      1  N   UNL     1       6.014   5.315  17.880  0.00  0.00    +0.000 N 
ATOM      2  C   UNL     1       6.830   5.398  18.990  0.00  0.00    +0.000 A 
ATOM      3  C   UNL     1       8.041   4.866  18.637  0.00  0.00    +0.000 A 
ATOM      4  N   UNL     1       8.017   4.447  17.347  0.00  0.00    +0.000 NA
ATOM      5  C   UNL     1       6.802   4.699  16.881  0.00  0.00    +0.000 A 
ENDROOT
BRANCH   5   6
ATOM      6  C   UNL     1       6.422   4.421  15.494  0.00  0.00    +0.000 A 
ATOM      7  C   UNL     1       5.298   3.656  15.095  0.00  0.00    +0.000 A 
ATOM      8  C   UNL     1       5.014   3.324  13.747  0.00  0.00    +0.000 A 
ATOM      9  C   UNL     1       5.788   3.784  12.669  0.00  0.00    +0.000 A 
ATOM     10  C   UNL     1       6.870   4.610  13.029  0.00  0.00    +0.000 A 
ATOM     11  N   UNL     1       7.757   5.213  12.231  0.00  0.00    +0.000 NA
ATOM     12  O   UNL     1       8.612   5.897  13.075  0.00  0.00    +0.000 OA
ATOM     13  N   UNL     1       8.299   5.693  14.404  0.00  0.00    +0.000 NA
ATOM     14  C   UNL     1       7.197   4.925  14.421  0.00  0.00    +0.000 A 
ENDBRANCH   5   6
BRANCH   1  20
ATOM     15  C   UNL     1       3.539   4.884  18.058  0.00  0.00    +0.000 A 
ATOM     16  C   UNL     1       2.258   5.476  18.125  0.00  0.00    +0.000 A 
ATOM     17  C   UNL     1       2.061   6.843  17.923  0.00  0.00    +0.000 A 
ATOM     18  C   UNL     1       3.134   7.651  17.588  0.00  0.00    +0.000 A 
ATOM     19  C   UNL     1       4.409   7.099  17.499  0.00  0.00    +0.000 A 
ATOM     20  C   UNL     1       4.642   5.743  17.795  0.00  0.00    +0.000 A 
BRANCH  15  21
ATOM     21  C   UNL     1       3.677   3.390  18.305  0.00  0.00    +0.000 C 
BRANCH  21  22
ATOM     22  C   UNL     1       3.945   2.900  19.732  0.00  0.00    +0.000 C 
BRANCH  22  23
ATOM     23  O   UNL     1       5.216   2.260  19.771  0.00  0.00    +0.000 OA
ATOM     24  H   UNL     1       5.799   2.809  20.323  0.00  0.00    +0.000 HD
ENDBRANCH  22  23
ENDBRANCH  21  22
ENDBRANCH  15  21
ENDBRANCH   1  20
TORSDOF 5
ENDMDL
MODEL 6
REMARK VINA RESULT:      -7.4      1.687      3.615
REMARK  Name = 
REMARK  5 active torsions:
REMARK  status: ('A' for Active; 'I' for Inactive)
REMARK    1  A    between atoms: O_1  and  C_2
REMARK    2  A    between atoms: C_2  and  C_3
REMARK    3  A    between atoms: C_3  and  C_4
REMARK    4  A    between atoms: C_9  and  N_10
REMARK    5  A    between atoms: C_14  and  C_15
REMARK                            x       y       z     vdW  Elec       q    Type
REMARK                         _______ _______ _______ _____ _____    ______ ____
ROOT
ATOM      1  N   UNL     1       4.070   3.907  18.663  0.00  0.00    +0.000 N 
ATOM      2  C   UNL     1       3.945   2.681  19.283  0.00  0.00    +0.000 A 
ATOM      3  C   UNL     1       2.907   2.786  20.170  0.00  0.00    +0.000 A 
ATOM      4  N   UNL     1       2.377   4.034  20.134  0.00  0.00    +0.000 NA
ATOM      5  C   UNL     1       3.072   4.723  19.242  0.00  0.00    +0.000 A 
ENDROOT
BRANCH   5   6
ATOM      6  C   UNL     1       2.749   6.111  18.900  0.00  0.00    +0.000 A 
ATOM      7  C   UNL     1       3.081   6.747  17.678  0.00  0.00    +0.000 A 
ATOM      8  C   UNL     1       2.840   8.120  17.418  0.00  0.00    +0.000 A 
ATOM      9  C   UNL     1       2.182   8.964  18.328  0.00  0.00    +0.000 A 
ATOM     10  C   UNL     1       1.772   8.340  19.521  0.00  0.00    +0.000 A 
ATOM     11  N   UNL     1       1.107   8.873  20.552  0.00  0.00    +0.000 NA
ATOM     12  O   UNL     1       0.957   7.850  21.468  0.00  0.00    +0.000 OA
ATOM     13  N   UNL     1       1.563   6.684  21.043  0.00  0.00    +0.000 NA
ATOM     14  C   UNL     1       2.053   6.935  19.818  0.00  0.00    +0.000 A 
ENDBRANCH   5   6
BRANCH   1  20
ATOM     15  C   UNL     1       6.276   4.905  17.968  0.00  0.00    +0.000 A 
ATOM     16  C   UNL     1       7.220   5.025  16.924  0.00  0.00    +0.000 A 
ATOM     17  C   UNL     1       6.963   4.558  15.633  0.00  0.00    +0.000 A 
ATOM     18  C   UNL     1       5.727   4.010  15.334  0.00  0.00    +0.000 A 
ATOM     19  C   UNL     1       4.768   3.888  16.335  0.00  0.00    +0.000 A 
ATOM     20  C   UNL     1       5.044   4.263  17.664  0.00  0.00    +0.000 A 
BRANCH  15  21
ATOM     21  C   UNL     1       6.635   5.422  19.351  0.00  0.00    +0.000 C 
BRANCH  21  22
ATOM     22  C   UNL     1       8.112   5.634  19.701  0.00  0.00    +0.000 C 
BRANCH  22  23
ATOM     23  O   UNL     1       8.329   5.248  21.054  0.00  0.00    +0.000 OA
ATOM     24  H   UNL     1       8.748   4.370  21.041  0.00  0.00    +0.000 HD
ENDBRANCH  22  23
ENDBRANCH  21  22
ENDBRANCH  15  21
ENDBRANCH   1  20
TORSDOF 5
ENDMDL
MODEL 7
REMARK VINA RESULT:      -7.3      1.567      2.524
REMARK  Name = 
REMARK  5 active torsions:
REMARK  status: ('A' for Active; 'I' for Inactive)
REMARK    1  A    between atoms: O_1  and  C_2
REMARK    2  A    between atoms: C_2  and  C_3
REMARK    3  A    between atoms: C_3  and  C_4
REMARK    4  A    between atoms: C_9  and  N_10
REMARK    5  A    between atoms: C_14  and  C_15
REMARK                            x       y       z     vdW  Elec       q    Type
REMARK                         _______ _______ _______ _____ _____    ______ ____
ROOT
ATOM      1  N   UNL     1       4.232   6.388  17.951  0.00  0.00    +0.000 N 
ATOM      2  C   UNL     1       4.041   7.732  17.708  0.00  0.00    +0.000 A 
ATOM      3  C   UNL     1       2.690   7.956  17.741  0.00  0.00    +0.000 A 
ATOM      4  N   UNL     1       2.025   6.801  17.991  0.00  0.00    +0.000 NA
ATOM      5  C   UNL     1       2.936   5.847  18.108  0.00  0.00    +0.000 A 
ENDROOT
BRANCH   5   6
ATOM      6  C   UNL     1       2.583   4.462  18.431  0.00  0.00    +0.000 A 
ATOM      7  C   UNL     1       2.434   3.418  17.484  0.00  0.00    +0.000 A 
ATOM      8  C   UNL     1       1.996   2.112  17.819  0.00  0.00    +0.000 A 
ATOM      9  C   UNL     1       1.734   1.711  19.140  0.00  0.00    +0.000 A 
ATOM     10  C   UNL     1       1.946   2.707  20.112  0.00  0.00    +0.000 A 
ATOM     11  N   UNL     1       1.809   2.616  21.439  0.00  0.00    +0.000 NA
ATOM     12  O   UNL     1       2.130   3.866  21.933  0.00  0.00    +0.000 OA
ATOM     13  N   UNL     1       2.425   4.760  20.924  0.00  0.00    +0.000 NA
ATOM     14  C   UNL     1       2.358   4.071  19.773  0.00  0.00    +0.000 A 
ENDBRANCH   5   6
BRANCH   1  20
ATOM     15  C   UNL     1       6.102   5.104  16.855  0.00  0.00    +0.000 A 
ATOM     16  C   UNL     1       7.425   4.630  16.996  0.00  0.00    +0.000 A 
ATOM     17  C   UNL     1       8.119   4.714  18.204  0.00  0.00    +0.000 A 
ATOM     18  C   UNL     1       7.487   5.223  19.327  0.00  0.00    +0.000 A 
ATOM     19  C   UNL     1       6.178   5.687  19.228  0.00  0.00    +0.000 A 
ATOM     20  C   UNL     1       5.496   5.700  17.996  0.00  0.00    +0.000 A 
BRANCH  15  21
ATOM     21  C   UNL     1       5.417   4.992  15.502  0.00  0.00    +0.000 C 
BRANCH  21  22
ATOM     22  C   UNL     1       6.166   4.314  14.349  0.00  0.00    +0.000 C 
BRANCH  22  23
ATOM     23  O   UNL     1       7.108   5.232  13.804  0.00  0.00    +0.000 OA
ATOM     24  H   UNL     1       7.351   5.852  14.513  0.00  0.00    +0.000 HD
ENDBRANCH  22  23
ENDBRANCH  21  22
ENDBRANCH  15  21
ENDBRANCH   1  20
TORSDOF 5
ENDMDL
MODEL 8
REMARK VINA RESULT:      -7.3      2.166      4.292
REMARK  Name = 
REMARK  5 active torsions:
REMARK  status: ('A' for Active; 'I' for Inactive)
REMARK    1  A    between atoms: O_1  and  C_2
REMARK    2  A    between atoms: C_2  and  C_3
REMARK    3  A    between atoms: C_3  and  C_4
REMARK    4  A    between atoms: C_9  and  N_10
REMARK    5  A    between atoms: C_14  and  C_15
REMARK                            x       y       z     vdW  Elec       q    Type
REMARK                         _______ _______ _______ _____ _____    ______ ____
ROOT
ATOM      1  N   UNL     1       4.113   4.362  17.900  0.00  0.00    +0.000 N 
ATOM      2  C   UNL     1       3.860   3.024  17.679  0.00  0.00    +0.000 A 
ATOM      3  C   UNL     1       2.500   2.867  17.692  0.00  0.00    +0.000 A 
ATOM      4  N   UNL     1       1.888   4.056  17.918  0.00  0.00    +0.000 NA
ATOM      5  C   UNL     1       2.843   4.963  18.057  0.00  0.00    +0.000 A 
ENDROOT
BRANCH   5   6
ATOM      6  C   UNL     1       2.550   6.383  18.266  0.00  0.00    +0.000 A 
ATOM      7  C   UNL     1       2.777   7.410  17.316  0.00  0.00    +0.000 A 
ATOM      8  C   UNL     1       2.574   8.787  17.587  0.00  0.00    +0.000 A 
ATOM      9  C   UNL     1       2.059   9.256  18.807  0.00  0.00    +0.000 A 
ATOM     10  C   UNL     1       1.752   8.252  19.744  0.00  0.00    +0.000 A 
ATOM     11  N   UNL     1       1.230   8.387  20.967  0.00  0.00    +0.000 NA
ATOM     12  O   UNL     1       1.132   7.105  21.475  0.00  0.00    +0.000 OA
ATOM     13  N   UNL     1       1.632   6.163  20.599  0.00  0.00    +0.000 NA
ATOM     14  C   UNL     1       1.998   6.830  19.491  0.00  0.00    +0.000 A 
ENDBRANCH   5   6
BRANCH   1  20
ATOM     15  C   UNL     1       6.057   5.587  16.869  0.00  0.00    +0.000 A 
ATOM     16  C   UNL     1       7.234   6.325  17.126  0.00  0.00    +0.000 A 
ATOM     17  C   UNL     1       7.767   6.451  18.411  0.00  0.00    +0.000 A 
ATOM     18  C   UNL     1       7.169   5.790  19.471  0.00  0.00    +0.000 A 
ATOM     19  C   UNL     1       6.015   5.042  19.252  0.00  0.00    +0.000 A 
ATOM     20  C   UNL     1       5.409   4.984  17.983  0.00  0.00    +0.000 A 
BRANCH  15  21
ATOM     21  C   UNL     1       5.530   5.510  15.446  0.00  0.00    +0.000 C 
BRANCH  21  22
ATOM     22  C   UNL     1       6.404   4.858  14.369  0.00  0.00    +0.000 C 
BRANCH  22  23
ATOM     23  O   UNL     1       6.197   3.449  14.393  0.00  0.00    +0.000 OA
ATOM     24  H   UNL     1       5.832   3.226  15.267  0.00  0.00    +0.000 HD
ENDBRANCH  22  23
ENDBRANCH  21  22
ENDBRANCH  15  21
ENDBRANCH   1  20
TORSDOF 5
ENDMDL
MODEL 9
REMARK VINA RESULT:      -7.2      2.188      5.416
REMARK  Name = 
REMARK  5 active torsions:
REMARK  status: ('A' for Active; 'I' for Inactive)
REMARK    1  A    between atoms: O_1  and  C_2
REMARK    2  A    between atoms: C_2  and  C_3
REMARK    3  A    between atoms: C_3  and  C_4
REMARK    4  A    between atoms: C_9  and  N_10
REMARK    5  A    between atoms: C_14  and  C_15
REMARK                            x       y       z     vdW  Elec       q    Type
REMARK                         _______ _______ _______ _____ _____    ______ ____
ROOT
ATOM      1  N   UNL     1       2.559   6.305  18.697  0.00  0.00    +0.000 N 
ATOM      2  C   UNL     1       1.645   7.315  18.481  0.00  0.00    +0.000 A 
ATOM      3  C   UNL     1       2.293   8.296  17.778  0.00  0.00    +0.000 A 
ATOM      4  N   UNL     1       3.582   7.942  17.549  0.00  0.00    +0.000 NA
ATOM      5  C   UNL     1       3.761   6.754  18.105  0.00  0.00    +0.000 A 
ENDROOT
BRANCH   5   6
ATOM      6  C   UNL     1       5.032   6.031  18.015  0.00  0.00    +0.000 A 
ATOM      7  C   UNL     1       5.709   5.433  19.108  0.00  0.00    +0.000 A 
ATOM      8  C   UNL     1       6.985   4.826  19.002  0.00  0.00    +0.000 A 
ATOM      9  C   UNL     1       7.671   4.700  17.783  0.00  0.00    +0.000 A 
ATOM     10  C   UNL     1       6.989   5.218  16.666  0.00  0.00    +0.000 A 
ATOM     11  N   UNL     1       7.372   5.219  15.384  0.00  0.00    +0.000 NA
ATOM     12  O   UNL     1       6.356   5.848  14.692  0.00  0.00    +0.000 OA
ATOM     13  N   UNL     1       5.353   6.287  15.533  0.00  0.00    +0.000 NA
ATOM     14  C   UNL     1       5.690   5.884  16.769  0.00  0.00    +0.000 A 
ENDBRANCH   5   6
BRANCH   1  20
ATOM     15  C   UNL     1       2.239   3.808  18.771  0.00  0.00    +0.000 A 
ATOM     16  C   UNL     1       2.192   2.666  19.602  0.00  0.00    +0.000 A 
ATOM     17  C   UNL     1       2.202   2.760  20.995  0.00  0.00    +0.000 A 
ATOM     18  C   UNL     1       2.200   4.005  21.600  0.00  0.00    +0.000 A 
ATOM     19  C   UNL     1       2.232   5.153  20.812  0.00  0.00    +0.000 A 
ATOM     20  C   UNL     1       2.320   5.076  19.409  0.00  0.00    +0.000 A 
BRANCH  15  21
ATOM     21  C   UNL     1       2.241   3.624  17.262  0.00  0.00    +0.000 C 
BRANCH  21  22
ATOM     22  C   UNL     1       3.533   3.171  16.575  0.00  0.00    +0.000 C 
BRANCH  22  23
ATOM     23  O   UNL     1       4.404   2.607  17.550  0.00  0.00    +0.000 OA
ATOM     24  H   UNL     1       3.850   2.130  18.191  0.00  0.00    +0.000 HD
ENDBRANCH  22  23
ENDBRANCH  21  22
ENDBRANCH  15  21
ENDBRANCH   1  20
TORSDOF 5
ENDMDL
