MODEL 1
REMARK VINA RESULT:      -8.0      0.000      0.000
REMARK  Name = 
REMARK  8 active torsions:
REMARK  status: ('A' for Active; 'I' for Inactive)
REMARK    1  A    between atoms: C_1  and  C_2
REMARK    2  A    between atoms: C_2  and  O_3
REMARK    3  A    between atoms: O_3  and  C_4
REMARK    4  A    between atoms: C_4  and  C_6
REMARK    5  A    between atoms: C_6  and  C_7
REMARK    6  A    between atoms: C_7  and  C_8
REMARK    7  A    between atoms: C_19  and  C_21
REMARK    8  A    between atoms: C_25  and  C_26
REMARK                            x       y       z     vdW  Elec       q    Type
REMARK                         _______ _______ _______ _____ _____    ______ ____
ROOT
ATOM      1  C   UNL     1       5.769   4.800  16.537  0.00  0.00    +0.000 C 
ATOM      2  C   UNL     1       4.922   6.098  16.669  0.00  0.00    +0.000 C 
ATOM      3  C   UNL     1       3.790   5.990  17.699  0.00  0.00    +0.000 C 
ATOM      4  C   UNL     1       2.944   4.762  17.394  0.00  0.00    +0.000 C 
ATOM      5  N   UNL     1       3.784   3.572  17.451  0.00  0.00    +0.000 N 
ATOM      6  C   UNL     1       3.710   2.552  18.415  0.00  0.00    +0.000 C 
ATOM      7  O   UNL     1       4.341   1.502  18.247  0.00  0.00    +0.000 OA
ATOM      8  C   UNL     1       4.862   3.544  16.461  0.00  0.00    +0.000 C 
ENDROOT
BRANCH   6   9
ATOM      9  C   UNL     1       2.846   2.728  19.579  0.00  0.00    +0.000 A 
ATOM     10  O   UNL     1       3.385   3.012  20.807  0.00  0.00    +0.000 OA
ATOM     11  C   UNL     1       2.366   3.179  21.681  0.00  0.00    +0.000 A 
ATOM     12  C   UNL     1       1.164   2.949  21.059  0.00  0.00    +0.000 A 
ATOM     13  C   UNL     1       1.467   2.606  19.711  0.00  0.00    +0.000 A 
ATOM     14  C   UNL     1       0.497   2.225  18.654  0.00  0.00    +0.000 C 
ENDBRANCH   6   9
BRANCH   1  15
ATOM     15  C   UNL     1       6.613   4.693  17.821  0.00  0.00    +0.000 C 
ATOM     16  O   UNL     1       6.233   4.193  18.871  0.00  0.00    +0.000 OA
BRANCH  15  17
ATOM     17  O   UNL     1       7.787   5.374  17.703  0.00  0.00    +0.000 OA
BRANCH  17  19
ATOM     18  C   UNL     1       7.818   7.750  17.806  0.00  0.00    +0.000 C 
ATOM     19  C   UNL     1       7.941   6.472  18.617  0.00  0.00    +0.000 C 
ENDBRANCH  17  19
ENDBRANCH  15  17
ENDBRANCH   1  15
BRANCH   1  20
ATOM     20  C   UNL     1       6.718   4.874  15.295  0.00  0.00    +0.000 C 
BRANCH  20  21
ATOM     21  C   UNL     1       6.189   4.264  14.009  0.00  0.00    +0.000 A 
ATOM     22  C   UNL     1       4.830   4.384  13.667  0.00  0.00    +0.000 A 
ATOM     23  C   UNL     1       4.319   3.740  12.538  0.00  0.00    +0.000 A 
ATOM     24  C   UNL     1       5.160   2.987  11.722  0.00  0.00    +0.000 A 
ATOM     25  C   UNL     1       6.516   2.904  12.026  0.00  0.00    +0.000 A 
ATOM     26 CL   UNL     1       7.563   1.987  11.013  0.00  0.00    +0.000 Cl
ATOM     27  C   UNL     1       7.032   3.541  13.157  0.00  0.00    +0.000 A 
ENDBRANCH  20  21
ENDBRANCH   1  20
TORSDOF 6
ENDMDL
MODEL 2
REMARK VINA RESULT:      -7.6      1.377      1.622
REMARK  Name = 
REMARK  8 active torsions:
REMARK  status: ('A' for Active; 'I' for Inactive)
REMARK    1  A    between atoms: C_1  and  C_2
REMARK    2  A    between atoms: C_2  and  O_3
REMARK    3  A    between atoms: O_3  and  C_4
REMARK    4  A    between atoms: C_4  and  C_6
REMARK    5  A    between atoms: C_6  and  C_7
REMARK    6  A    between atoms: C_7  and  C_8
REMARK    7  A    between atoms: C_19  and  C_21
REMARK    8  A    between atoms: C_25  and  C_26
REMARK                            x       y       z     vdW  Elec       q    Type
REMARK                         _______ _______ _______ _____ _____    ______ ____
ROOT
ATOM      1  C   UNL     1       6.379   4.984  16.779  0.00  0.00    +0.000 C 
ATOM      2  C   UNL     1       5.503   6.128  16.193  0.00  0.00    +0.000 C 
ATOM      3  C   UNL     1       4.139   6.269  16.879  0.00  0.00    +0.000 C 
ATOM      4  C   UNL     1       3.429   4.923  16.876  0.00  0.00    +0.000 C 
ATOM      5  N   UNL     1       4.246   3.948  17.588  0.00  0.00    +0.000 N 
ATOM      6  C   UNL     1       3.934   3.351  18.823  0.00  0.00    +0.000 C 
ATOM      7  O   UNL     1       4.607   2.397  19.230  0.00  0.00    +0.000 OA
ATOM      8  C   UNL     1       5.550   3.688  16.977  0.00  0.00    +0.000 C 
ENDROOT
BRANCH   6   9
ATOM      9  C   UNL     1       2.786   3.836  19.583  0.00  0.00    +0.000 A 
ATOM     10  O   UNL     1       2.933   4.853  20.490  0.00  0.00    +0.000 OA
ATOM     11  C   UNL     1       1.713   5.136  21.001  0.00  0.00    +0.000 A 
ATOM     12  C   UNL     1       0.772   4.279  20.488  0.00  0.00    +0.000 A 
ATOM     13  C   UNL     1       1.465   3.400  19.608  0.00  0.00    +0.000 A 
ATOM     14  C   UNL     1       0.883   2.265  18.849  0.00  0.00    +0.000 C 
ENDBRANCH   6   9
BRANCH   1  15
ATOM     15  C   UNL     1       6.848   5.458  18.168  0.00  0.00    +0.000 C 
ATOM     16  O   UNL     1       7.036   4.729  19.132  0.00  0.00    +0.000 OA
BRANCH  15  17
ATOM     17  O   UNL     1       6.874   6.819  18.247  0.00  0.00    +0.000 OA
BRANCH  17  19
ATOM     18  C   UNL     1       8.129   8.809  17.906  0.00  0.00    +0.000 C 
ATOM     19  C   UNL     1       8.180   7.387  18.434  0.00  0.00    +0.000 C 
ENDBRANCH  17  19
ENDBRANCH  15  17
ENDBRANCH   1  15
BRANCH   1  20
ATOM     20  C   UNL     1       7.625   4.712  15.874  0.00  0.00    +0.000 C 
BRANCH  20  21
ATOM     21  C   UNL     1       7.364   4.628  14.380  0.00  0.00    +0.000 A 
ATOM     22  C   UNL     1       8.056   5.465  13.486  0.00  0.00    +0.000 A 
ATOM     23  C   UNL     1       7.748   5.463  12.123  0.00  0.00    +0.000 A 
ATOM     24  C   UNL     1       6.762   4.610  11.631  0.00  0.00    +0.000 A 
ATOM     25  C   UNL     1       6.108   3.744  12.502  0.00  0.00    +0.000 A 
ATOM     26 CL   UNL     1       4.899   2.678  11.897  0.00  0.00    +0.000 Cl
ATOM     27  C   UNL     1       6.407   3.745  13.866  0.00  0.00    +0.000 A 
ENDBRANCH  20  21
ENDBRANCH   1  20
TORSDOF 6
ENDMDL
MODEL 3
REMARK VINA RESULT:      -7.5      1.136      1.494
REMARK  Name = 
REMARK  8 active torsions:
REMARK  status: ('A' for Active; 'I' for Inactive)
REMARK    1  A    between atoms: C_1  and  C_2
REMARK    2  A    between atoms: C_2  and  O_3
REMARK    3  A    between atoms: O_3  and  C_4
REMARK    4  A    between atoms: C_4  and  C_6
REMARK    5  A    between atoms: C_6  and  C_7
REMARK    6  A    between atoms: C_7  and  C_8
REMARK    7  A    between atoms: C_19  and  C_21
REMARK    8  A    between atoms: C_25  and  C_26
REMARK                            x       y       z     vdW  Elec       q    Type
REMARK                         _______ _______ _______ _____ _____    ______ ____
ROOT
ATOM      1  C   UNL     1       5.023   5.717  16.561  0.00  0.00    +0.000 C 
ATOM      2  C   UNL     1       4.240   6.879  17.236  0.00  0.00    +0.000 C 
ATOM      3  C   UNL     1       3.368   6.428  18.414  0.00  0.00    +0.000 C 
ATOM      4  C   UNL     1       2.463   5.289  17.968  0.00  0.00    +0.000 C 
ATOM      5  N   UNL     1       3.283   4.178  17.502  0.00  0.00    +0.000 N 
ATOM      6  C   UNL     1       3.418   2.927  18.131  0.00  0.00    +0.000 C 
ATOM      7  O   UNL     1       3.985   2.002  17.541  0.00  0.00    +0.000 OA
ATOM      8  C   UNL     1       4.110   4.483  16.334  0.00  0.00    +0.000 C 
ENDROOT
BRANCH   6   9
ATOM      9  C   UNL     1       2.840   2.727  19.457  0.00  0.00    +0.000 A 
ATOM     10  O   UNL     1       3.647   2.657  20.563  0.00  0.00    +0.000 OA
ATOM     11  C   UNL     1       2.853   2.528  21.651  0.00  0.00    +0.000 A 
ATOM     12  C   UNL     1       1.537   2.451  21.273  0.00  0.00    +0.000 A 
ATOM     13  C   UNL     1       1.521   2.527  19.851  0.00  0.00    +0.000 A 
ATOM     14  C   UNL     1       0.328   2.440  18.971  0.00  0.00    +0.000 C 
ENDBRANCH   6   9
BRANCH   1  15
ATOM     15  C   UNL     1       6.133   5.305  17.545  0.00  0.00    +0.000 C 
ATOM     16  O   UNL     1       6.586   4.174  17.660  0.00  0.00    +0.000 OA
BRANCH  15  17
ATOM     17  O   UNL     1       6.443   6.320  18.400  0.00  0.00    +0.000 OA
BRANCH  17  19
ATOM     18  C   UNL     1       7.840   8.087  17.639  0.00  0.00    +0.000 C 
ATOM     19  C   UNL     1       7.813   6.748  18.354  0.00  0.00    +0.000 C 
ENDBRANCH  17  19
ENDBRANCH  15  17
ENDBRANCH   1  15
BRANCH   1  20
ATOM     20  C   UNL     1       5.669   6.183  15.214  0.00  0.00    +0.000 C 
BRANCH  20  21
ATOM     21  C   UNL     1       5.921   5.100  14.180  0.00  0.00    +0.000 A 
ATOM     22  C   UNL     1       7.222   4.618  13.953  0.00  0.00    +0.000 A 
ATOM     23  C   UNL     1       7.474   3.695  12.934  0.00  0.00    +0.000 A 
ATOM     24  C   UNL     1       6.428   3.223  12.145  0.00  0.00    +0.000 A 
ATOM     25  C   UNL     1       5.129   3.657  12.397  0.00  0.00    +0.000 A 
ATOM     26 CL   UNL     1       3.831   3.066  11.435  0.00  0.00    +0.000 Cl
ATOM     27  C   UNL     1       4.872   4.584  13.409  0.00  0.00    +0.000 A 
ENDBRANCH  20  21
ENDBRANCH   1  20
TORSDOF 6
ENDMDL
MODEL 4
REMARK VINA RESULT:      -7.2      1.445      1.907
REMARK  Name = 
REMARK  8 active torsions:
REMARK  status: ('A' for Active; 'I' for Inactive)
REMARK    1  A    between atoms: C_1  and  C_2
REMARK    2  A    between atoms: C_2  and  O_3
REMARK    3  A    between atoms: O_3  and  C_4
REMARK    4  A    between atoms: C_4  and  C_6
REMARK    5  A    between atoms: C_6  and  C_7
REMARK    6  A    between atoms: C_7  and  C_8
REMARK    7  A    between atoms: C_19  and  C_21
REMARK    8  A    between atoms: C_25  and  C_26
REMARK                            x       y       z     vdW  Elec       q    Type
REMARK                         _______ _______ _______ _____ _____    ______ ____
ROOT
ATOM      1  C   UNL     1       6.249   4.907  16.835  0.00  0.00    +0.000 C 
ATOM      2  C   UNL     1       5.187   5.767  16.093  0.00  0.00    +0.000 C 
ATOM      3  C   UNL     1       3.798   5.721  16.742  0.00  0.00    +0.000 C 
ATOM      4  C   UNL     1       3.367   4.272  16.913  0.00  0.00    +0.000 C 
ATOM      5  N   UNL     1       4.333   3.579  17.756  0.00  0.00    +0.000 N 
ATOM      6  C   UNL     1       4.102   3.096  19.056  0.00  0.00    +0.000 C 
ATOM      7  O   UNL     1       4.933   2.356  19.593  0.00  0.00    +0.000 OA
ATOM      8  C   UNL     1       5.684   3.508  17.197  0.00  0.00    +0.000 C 
ENDROOT
BRANCH   6   9
ATOM      9  C   UNL     1       2.854   3.437  19.735  0.00  0.00    +0.000 A 
ATOM     10  O   UNL     1       1.904   2.476  19.965  0.00  0.00    +0.000 OA
ATOM     11  C   UNL     1       0.889   3.050  20.652  0.00  0.00    +0.000 A 
ATOM     12  C   UNL     1       1.130   4.389  20.825  0.00  0.00    +0.000 A 
ATOM     13  C   UNL     1       2.375   4.661  20.191  0.00  0.00    +0.000 A 
ATOM     14  C   UNL     1       3.039   5.983  20.069  0.00  0.00    +0.000 C 
ENDBRANCH   6   9
BRANCH   1  15
ATOM     15  C   UNL     1       6.567   5.639  18.152  0.00  0.00    +0.000 C 
ATOM     16  O   UNL     1       6.529   5.132  19.265  0.00  0.00    +0.000 OA
BRANCH  15  17
ATOM     17  O   UNL     1       6.739   6.976  17.949  0.00  0.00    +0.000 OA
BRANCH  17  19
ATOM     18  C   UNL     1       8.081   8.937  17.872  0.00  0.00    +0.000 C 
ATOM     19  C   UNL     1       8.057   7.466  18.245  0.00  0.00    +0.000 C 
ENDBRANCH  17  19
ENDBRANCH  15  17
ENDBRANCH   1  15
BRANCH   1  20
ATOM     20  C   UNL     1       7.556   4.773  15.985  0.00  0.00    +0.000 C 
BRANCH  20  21
ATOM     21  C   UNL     1       7.370   4.662  14.482  0.00  0.00    +0.000 A 
ATOM     22  C   UNL     1       8.069   5.516  13.610  0.00  0.00    +0.000 A 
ATOM     23  C   UNL     1       7.827   5.486  12.234  0.00  0.00    +0.000 A 
ATOM     24  C   UNL     1       6.902   4.587  11.708  0.00  0.00    +0.000 A 
ATOM     25  C   UNL     1       6.243   3.704  12.559  0.00  0.00    +0.000 A 
ATOM     26 CL   UNL     1       5.110   2.582  11.911  0.00  0.00    +0.000 Cl
ATOM     27  C   UNL     1       6.476   3.734  13.935  0.00  0.00    +0.000 A 
ENDBRANCH  20  21
ENDBRANCH   1  20
TORSDOF 6
ENDMDL
MODEL 5
REMARK VINA RESULT:      -7.0      4.035      6.432
REMARK  Name = 
REMARK  8 active torsions:
REMARK  status: ('A' for Active; 'I' for Inactive)
REMARK    1  A    between atoms: C_1  and  C_2
REMARK    2  A    between atoms: C_2  and  O_3
REMARK    3  A    between atoms: O_3  and  C_4
REMARK    4  A    between atoms: C_4  and  C_6
REMARK    5  A    between atoms: C_6  and  C_7
REMARK    6  A    between atoms: C_7  and  C_8
REMARK    7  A    between atoms: C_19  and  C_21
REMARK    8  A    between atoms: C_25  and  C_26
REMARK                            x       y       z     vdW  Elec       q    Type
REMARK                         _______ _______ _______ _____ _____    ______ ____
ROOT
ATOM      1  C   UNL     1       2.832   5.562  19.603  0.00  0.00    +0.000 C 
ATOM      2  C   UNL     1       1.963   5.629  20.892  0.00  0.00    +0.000 C 
ATOM      3  C   UNL     1       0.939   6.771  20.884  0.00  0.00    +0.000 C 
ATOM      4  C   UNL     1       1.648   8.084  20.583  0.00  0.00    +0.000 C 
ATOM      5  N   UNL     1       2.300   7.991  19.283  0.00  0.00    +0.000 N 
ATOM      6  C   UNL     1       1.939   8.699  18.122  0.00  0.00    +0.000 C 
ATOM      7  O   UNL     1       2.685   8.683  17.138  0.00  0.00    +0.000 OA
ATOM      8  C   UNL     1       3.346   6.970  19.201  0.00  0.00    +0.000 C 
ENDROOT
BRANCH   6   9
ATOM      9  C   UNL     1       0.708   9.484  18.117  0.00  0.00    +0.000 A 
ATOM     10  O   UNL     1      -0.388   9.052  17.415  0.00  0.00    +0.000 OA
ATOM     11  C   UNL     1      -1.393   9.932  17.630  0.00  0.00    +0.000 A 
ATOM     12  C   UNL     1      -0.958  10.969  18.416  0.00  0.00    +0.000 A 
ATOM     13  C   UNL     1       0.416  10.715  18.694  0.00  0.00    +0.000 A 
ATOM     14  C   UNL     1       1.338  11.581  19.471  0.00  0.00    +0.000 C 
ENDBRANCH   6   9
BRANCH   1  15
ATOM     15  C   UNL     1       1.909   5.060  18.477  0.00  0.00    +0.000 C 
ATOM     16  O   UNL     1       1.809   5.572  17.370  0.00  0.00    +0.000 OA
BRANCH  15  17
ATOM     17  O   UNL     1       1.086   4.066  18.914  0.00  0.00    +0.000 OA
BRANCH  17  19
ATOM     18  C   UNL     1       1.770   1.854  19.457  0.00  0.00    +0.000 C 
ATOM     19  C   UNL     1       1.337   2.777  18.331  0.00  0.00    +0.000 C 
ENDBRANCH  17  19
ENDBRANCH  15  17
ENDBRANCH   1  15
BRANCH   1  20
ATOM     20  C   UNL     1       4.025   4.567  19.782  0.00  0.00    +0.000 C 
BRANCH  20  21
ATOM     21  C   UNL     1       5.186   4.731  18.817  0.00  0.00    +0.000 A 
ATOM     22  C   UNL     1       6.338   5.443  19.200  0.00  0.00    +0.000 A 
ATOM     23  C   UNL     1       7.365   5.684  18.284  0.00  0.00    +0.000 A 
ATOM     24  C   UNL     1       7.269   5.197  16.983  0.00  0.00    +0.000 A 
ATOM     25  C   UNL     1       6.155   4.448  16.611  0.00  0.00    +0.000 A 
ATOM     26 CL   UNL     1       6.038   3.832  15.009  0.00  0.00    +0.000 Cl
ATOM     27  C   UNL     1       5.122   4.210  17.520  0.00  0.00    +0.000 A 
ENDBRANCH  20  21
ENDBRANCH   1  20
TORSDOF 6
ENDMDL
MODEL 6
REMARK VINA RESULT:      -6.9      3.268      6.858
REMARK  Name = 
REMARK  8 active torsions:
REMARK  status: ('A' for Active; 'I' for Inactive)
REMARK    1  A    between atoms: C_1  and  C_2
REMARK    2  A    between atoms: C_2  and  O_3
REMARK    3  A    between atoms: O_3  and  C_4
REMARK    4  A    between atoms: C_4  and  C_6
REMARK    5  A    between atoms: C_6  and  C_7
REMARK    6  A    between atoms: C_7  and  C_8
REMARK    7  A    between atoms: C_19  and  C_21
REMARK    8  A    between atoms: C_25  and  C_26
REMARK                            x       y       z     vdW  Elec       q    Type
REMARK                         _______ _______ _______ _____ _____    ______ ____
ROOT
ATOM      1  C   UNL     1       5.063   5.683  18.325  0.00  0.00    +0.000 C 
ATOM      2  C   UNL     1       6.511   6.154  18.643  0.00  0.00    +0.000 C 
ATOM      3  C   UNL     1       7.462   6.067  17.443  0.00  0.00    +0.000 C 
ATOM      4  C   UNL     1       7.414   4.662  16.860  0.00  0.00    +0.000 C 
ATOM      5  N   UNL     1       6.052   4.363  16.437  0.00  0.00    +0.000 N 
ATOM      6  C   UNL     1       5.613   4.201  15.111  0.00  0.00    +0.000 C 
ATOM      7  O   UNL     1       4.481   3.758  14.890  0.00  0.00    +0.000 OA
ATOM      8  C   UNL     1       5.069   4.355  17.522  0.00  0.00    +0.000 C 
ENDROOT
BRANCH   6   9
ATOM      9  C   UNL     1       6.524   4.513  14.013  0.00  0.00    +0.000 A 
ATOM     10  O   UNL     1       7.466   5.499  14.151  0.00  0.00    +0.000 OA
ATOM     11  C   UNL     1       8.201   5.534  13.015  0.00  0.00    +0.000 A 
ATOM     12  C   UNL     1       7.717   4.627  12.107  0.00  0.00    +0.000 A 
ATOM     13  C   UNL     1       6.599   3.996  12.724  0.00  0.00    +0.000 A 
ATOM     14  C   UNL     1       5.713   2.971  12.117  0.00  0.00    +0.000 C 
ENDBRANCH   6   9
BRANCH   1  15
ATOM     15  C   UNL     1       4.434   6.768  17.431  0.00  0.00    +0.000 C 
ATOM     16  O   UNL     1       4.698   6.945  16.250  0.00  0.00    +0.000 OA
BRANCH  15  17
ATOM     17  O   UNL     1       3.662   7.625  18.158  0.00  0.00    +0.000 OA
BRANCH  17  19
ATOM     18  C   UNL     1       1.681   8.902  18.472  0.00  0.00    +0.000 C 
ATOM     19  C   UNL     1       2.527   8.156  17.455  0.00  0.00    +0.000 C 
ENDBRANCH  17  19
ENDBRANCH  15  17
ENDBRANCH   1  15
BRANCH   1  20
ATOM     20  C   UNL     1       4.221   5.534  19.634  0.00  0.00    +0.000 C 
BRANCH  20  21
ATOM     21  C   UNL     1       3.057   4.560  19.577  0.00  0.00    +0.000 A 
ATOM     22  C   UNL     1       2.312   4.406  18.394  0.00  0.00    +0.000 A 
ATOM     23  C   UNL     1       1.180   3.587  18.365  0.00  0.00    +0.000 A 
ATOM     24  C   UNL     1       0.791   2.893  19.508  0.00  0.00    +0.000 A 
ATOM     25  C   UNL     1       1.552   3.001  20.669  0.00  0.00    +0.000 A 
ATOM     26 CL   UNL     1       1.084   2.135  22.080  0.00  0.00    +0.000 Cl
ATOM     27  C   UNL     1       2.681   3.823  20.706  0.00  0.00    +0.000 A 
ENDBRANCH  20  21
ENDBRANCH   1  20
TORSDOF 6
ENDMDL
MODEL 7
REMARK VINA RESULT:      -6.9      0.784      1.157
REMARK  Name = 
REMARK  8 active torsions:
REMARK  status: ('A' for Active; 'I' for Inactive)
REMARK    1  A    between atoms: C_1  and  C_2
REMARK    2  A    between atoms: C_2  and  O_3
REMARK    3  A    between atoms: O_3  and  C_4
REMARK    4  A    between atoms: C_4  and  C_6
REMARK    5  A    between atoms: C_6  and  C_7
REMARK    6  A    between atoms: C_7  and  C_8
REMARK    7  A    between atoms: C_19  and  C_21
REMARK    8  A    between atoms: C_25  and  C_26
REMARK                            x       y       z     vdW  Elec       q    Type
REMARK                         _______ _______ _______ _____ _____    ______ ____
ROOT
ATOM      1  C   UNL     1       5.731   4.954  16.336  0.00  0.00    +0.000 C 
ATOM      2  C   UNL     1       5.035   6.320  16.599  0.00  0.00    +0.000 C 
ATOM      3  C   UNL     1       3.911   6.246  17.639  0.00  0.00    +0.000 C 
ATOM      4  C   UNL     1       2.930   5.151  17.249  0.00  0.00    +0.000 C 
ATOM      5  N   UNL     1       3.633   3.876  17.185  0.00  0.00    +0.000 N 
ATOM      6  C   UNL     1       3.458   2.788  18.059  0.00  0.00    +0.000 C 
ATOM      7  O   UNL     1       3.965   1.695  17.787  0.00  0.00    +0.000 OA
ATOM      8  C   UNL     1       4.688   3.816  16.172  0.00  0.00    +0.000 C 
ENDROOT
BRANCH   6   9
ATOM      9  C   UNL     1       2.633   2.955  19.252  0.00  0.00    +0.000 A 
ATOM     10  O   UNL     1       1.390   3.527  19.163  0.00  0.00    +0.000 OA
ATOM     11  C   UNL     1       0.832   3.504  20.395  0.00  0.00    +0.000 A 
ATOM     12  C   UNL     1       1.713   2.981  21.307  0.00  0.00    +0.000 A 
ATOM     13  C   UNL     1       2.901   2.669  20.587  0.00  0.00    +0.000 A 
ATOM     14  C   UNL     1       4.161   2.121  21.149  0.00  0.00    +0.000 C 
ENDBRANCH   6   9
BRANCH   1  15
ATOM     15  C   UNL     1       6.573   4.642  17.587  0.00  0.00    +0.000 C 
ATOM     16  O   UNL     1       6.195   3.974  18.540  0.00  0.00    +0.000 OA
BRANCH  15  17
ATOM     17  O   UNL     1       7.744   5.340  17.585  0.00  0.00    +0.000 OA
BRANCH  17  19
ATOM     18  C   UNL     1       7.989   7.663  18.028  0.00  0.00    +0.000 C 
ATOM     19  C   UNL     1       7.882   6.286  18.658  0.00  0.00    +0.000 C 
ENDBRANCH  17  19
ENDBRANCH  15  17
ENDBRANCH   1  15
BRANCH   1  20
ATOM     20  C   UNL     1       6.666   5.032  15.085  0.00  0.00    +0.000 C 
BRANCH  20  21
ATOM     21  C   UNL     1       6.175   4.324  13.834  0.00  0.00    +0.000 A 
ATOM     22  C   UNL     1       4.817   4.374  13.472  0.00  0.00    +0.000 A 
ATOM     23  C   UNL     1       4.342   3.643  12.380  0.00  0.00    +0.000 A 
ATOM     24  C   UNL     1       5.219   2.872  11.621  0.00  0.00    +0.000 A 
ATOM     25  C   UNL     1       6.574   2.857  11.943  0.00  0.00    +0.000 A 
ATOM     26 CL   UNL     1       7.664   1.917  11.000  0.00  0.00    +0.000 Cl
ATOM     27  C   UNL     1       7.053   3.580  13.037  0.00  0.00    +0.000 A 
ENDBRANCH  20  21
ENDBRANCH   1  20
TORSDOF 6
ENDMDL
MODEL 8
REMARK VINA RESULT:      -6.8      1.335      1.920
REMARK  Name = 
REMARK  8 active torsions:
REMARK  status: ('A' for Active; 'I' for Inactive)
REMARK    1  A    between atoms: C_1  and  C_2
REMARK    2  A    between atoms: C_2  and  O_3
REMARK    3  A    between atoms: O_3  and  C_4
REMARK    4  A    between atoms: C_4  and  C_6
REMARK    5  A    between atoms: C_6  and  C_7
REMARK    6  A    between atoms: C_7  and  C_8
REMARK    7  A    between atoms: C_19  and  C_21
REMARK    8  A    between atoms: C_25  and  C_26
REMARK                            x       y       z     vdW  Elec       q    Type
REMARK                         _______ _______ _______ _____ _____    ______ ____
ROOT
ATOM      1  C   UNL     1       4.858   5.791  16.623  0.00  0.00    +0.000 C 
ATOM      2  C   UNL     1       4.163   6.965  17.369  0.00  0.00    +0.000 C 
ATOM      3  C   UNL     1       3.332   6.518  18.578  0.00  0.00    +0.000 C 
ATOM      4  C   UNL     1       2.355   5.434  18.147  0.00  0.00    +0.000 C 
ATOM      5  N   UNL     1       3.099   4.302  17.609  0.00  0.00    +0.000 N 
ATOM      6  C   UNL     1       3.208   3.029  18.195  0.00  0.00    +0.000 C 
ATOM      7  O   UNL     1       3.702   2.097  17.551  0.00  0.00    +0.000 OA
ATOM      8  C   UNL     1       3.880   4.606  16.409  0.00  0.00    +0.000 C 
ENDROOT
BRANCH   6   9
ATOM      9  C   UNL     1       2.688   2.815  19.543  0.00  0.00    +0.000 A 
ATOM     10  O   UNL     1       1.389   3.133  19.845  0.00  0.00    +0.000 OA
ATOM     11  C   UNL     1       1.163   2.782  21.132  0.00  0.00    +0.000 A 
ATOM     12  C   UNL     1       2.311   2.293  21.701  0.00  0.00    +0.000 A 
ATOM     13  C   UNL     1       3.318   2.358  20.696  0.00  0.00    +0.000 A 
ATOM     14  C   UNL     1       4.747   1.983  20.846  0.00  0.00    +0.000 C 
ENDBRANCH   6   9
BRANCH   1  15
ATOM     15  C   UNL     1       5.996   5.300  17.538  0.00  0.00    +0.000 C 
ATOM     16  O   UNL     1       6.402   4.148  17.598  0.00  0.00    +0.000 OA
BRANCH  15  17
ATOM     17  O   UNL     1       6.394   6.275  18.404  0.00  0.00    +0.000 OA
BRANCH  17  19
ATOM     18  C   UNL     1       7.798   8.027  17.621  0.00  0.00    +0.000 C 
ATOM     19  C   UNL     1       7.772   6.661  18.284  0.00  0.00    +0.000 C 
ENDBRANCH  17  19
ENDBRANCH  15  17
ENDBRANCH   1  15
BRANCH   1  20
ATOM     20  C   UNL     1       5.457   6.268  15.259  0.00  0.00    +0.000 C 
BRANCH  20  21
ATOM     21  C   UNL     1       5.794   5.179  14.256  0.00  0.00    +0.000 A 
ATOM     22  C   UNL     1       7.120   4.735  14.102  0.00  0.00    +0.000 A 
ATOM     23  C   UNL     1       7.451   3.806  13.112  0.00  0.00    +0.000 A 
ATOM     24  C   UNL     1       6.461   3.291  12.278  0.00  0.00    +0.000 A 
ATOM     25  C   UNL     1       5.138   3.687  12.458  0.00  0.00    +0.000 A 
ATOM     26 CL   UNL     1       3.910   3.042  11.441  0.00  0.00    +0.000 Cl
ATOM     27  C   UNL     1       4.802   4.620  13.441  0.00  0.00    +0.000 A 
ENDBRANCH  20  21
ENDBRANCH   1  20
TORSDOF 6
ENDMDL
MODEL 9
REMARK VINA RESULT:      -6.8      9.883     12.143
REMARK  Name = 
REMARK  8 active torsions:
REMARK  status: ('A' for Active; 'I' for Inactive)
REMARK    1  A    between atoms: C_1  and  C_2
REMARK    2  A    between atoms: C_2  and  O_3
REMARK    3  A    between atoms: O_3  and  C_4
REMARK    4  A    between atoms: C_4  and  C_6
REMARK    5  A    between atoms: C_6  and  C_7
REMARK    6  A    between atoms: C_7  and  C_8
REMARK    7  A    between atoms: C_19  and  C_21
REMARK    8  A    between atoms: C_25  and  C_26
REMARK                            x       y       z     vdW  Elec       q    Type
REMARK                         _______ _______ _______ _____ _____    ______ ____
ROOT
ATOM      1  C   UNL     1      -0.315  11.442  19.443  0.00  0.00    +0.000 C 
ATOM      2  C   UNL     1       1.094  11.153  18.851  0.00  0.00    +0.000 C 
ATOM      3  C   UNL     1       2.021  12.374  18.850  0.00  0.00    +0.000 C 
ATOM      4  C   UNL     1       1.323  13.540  18.165  0.00  0.00    +0.000 C 
ATOM      5  N   UNL     1       0.092  13.851  18.881  0.00  0.00    +0.000 N 
ATOM      6  C   UNL     1      -0.160  15.015  19.628  0.00  0.00    +0.000 C 
ATOM      7  O   UNL     1      -1.306  15.253  20.025  0.00  0.00    +0.000 OA
ATOM      8  C   UNL     1      -0.895  12.770  18.887  0.00  0.00    +0.000 C 
ENDROOT
BRANCH   6   9
ATOM      9  C   UNL     1       0.930  15.953  19.881  0.00  0.00    +0.000 A 
ATOM     10  O   UNL     1       1.057  17.090  19.124  0.00  0.00    +0.000 OA
ATOM     11  C   UNL     1       2.105  17.796  19.606  0.00  0.00    +0.000 A 
ATOM     12  C   UNL     1       2.708  17.112  20.631  0.00  0.00    +0.000 A 
ATOM     13  C   UNL     1       1.986  15.894  20.783  0.00  0.00    +0.000 A 
ATOM     14  C   UNL     1       2.288  14.797  21.737  0.00  0.00    +0.000 C 
ENDBRANCH   6   9
BRANCH   1  15
ATOM     15  C   UNL     1      -0.128  11.611  20.962  0.00  0.00    +0.000 C 
ATOM     16  O   UNL     1       0.840  11.217  21.599  0.00  0.00    +0.000 OA
BRANCH  15  17
ATOM     17  O   UNL     1      -1.252  12.111  21.550  0.00  0.00    +0.000 OA
BRANCH  17  19
ATOM     18  C   UNL     1      -2.842  12.116  23.318  0.00  0.00    +0.000 C 
ATOM     19  C   UNL     1      -1.420  11.752  22.931  0.00  0.00    +0.000 C 
ENDBRANCH  17  19
ENDBRANCH  15  17
ENDBRANCH   1  15
BRANCH   1  20
ATOM     20  C   UNL     1      -1.294  10.253  19.169  0.00  0.00    +0.000 C 
BRANCH  20  21
ATOM     21  C   UNL     1      -2.226  10.411  17.981  0.00  0.00    +0.000 A 
ATOM     22  C   UNL     1      -1.870   9.901  16.719  0.00  0.00    +0.000 A 
ATOM     23  C   UNL     1      -2.677  10.132  15.602  0.00  0.00    +0.000 A 
ATOM     24  C   UNL     1      -3.861  10.853  15.733  0.00  0.00    +0.000 A 
ATOM     25  C   UNL     1      -4.246  11.319  16.988  0.00  0.00    +0.000 A 
ATOM     26 CL   UNL     1      -5.715  12.198  17.157  0.00  0.00    +0.000 Cl
ATOM     27  C   UNL     1      -3.441  11.097  18.107  0.00  0.00    +0.000 A 
ENDBRANCH  20  21
ENDBRANCH   1  20
TORSDOF 6
ENDMDL
