MODEL 1
REMARK VINA RESULT:      -8.3      0.000      0.000
REMARK  Name = 
REMARK  5 active torsions:
REMARK  status: ('A' for Active; 'I' for Inactive)
REMARK    1  A    between atoms: C_1  and  C_2
REMARK    2  A    between atoms: N_11  and  N_12
REMARK    3  A    between atoms: C_13  and  C_14
REMARK    4  A    between atoms: N_24  and  C_25
REMARK    5  A    between atoms: C_25  and  C_26
REMARK                            x       y       z     vdW  Elec       q    Type
REMARK                         _______ _______ _______ _____ _____    ______ ____
ROOT
ATOM      1  C   UNL     1       2.529   5.480  20.465  0.00  0.00    +0.000 C 
ATOM      2  C   UNL     1       2.006   6.858  20.140  0.00  0.00    +0.000 A 
ATOM      3  N   UNL     1       1.468   7.499  21.137  0.00  0.00    +0.000 NA
ATOM      4  C   UNL     1       1.060   8.760  20.873  0.00  0.00    +0.000 A 
ATOM      5  S   UNL     1       0.412   9.754  22.099  0.00  0.00    +0.000 S 
ATOM      6  C   UNL     1       0.247  11.061  21.028  0.00  0.00    +0.000 A 
ATOM      7  C   UNL     1       0.635  10.750  19.738  0.00  0.00    +0.000 A 
ATOM      8  C   UNL     1       1.147   9.416  19.666  0.00  0.00    +0.000 A 
ATOM      9  C   UNL     1       1.740   8.705  18.548  0.00  0.00    +0.000 A 
ATOM     10  O   UNL     1       1.875   9.244  17.449  0.00  0.00    +0.000 OA
ATOM     11  N   UNL     1       2.131   7.374  18.847  0.00  0.00    +0.000 N 
ATOM     12  C   UNL     1       0.573  11.788  18.651  0.00  0.00    +0.000 C 
ATOM     13  C   UNL     1      -0.128  13.086  19.145  0.00  0.00    +0.000 C 
ATOM     14  N   UNL     1       0.182  13.483  20.547  0.00  0.00    +0.000 NA
ATOM     15  C   UNL     1      -0.265  12.404  21.463  0.00  0.00    +0.000 C 
ENDROOT
BRANCH  11  16
ATOM     16  N   UNL     1       2.807   6.757  17.802  0.00  0.00    +0.000 NA
ATOM     17  C   UNL     1       4.090   6.603  17.833  0.00  0.00    +0.000 C 
BRANCH  17  18
ATOM     18  C   UNL     1       4.763   5.773  16.798  0.00  0.00    +0.000 A 
ATOM     19  C   UNL     1       5.208   6.404  15.622  0.00  0.00    +0.000 A 
ATOM     20  C   UNL     1       5.737   5.652  14.571  0.00  0.00    +0.000 A 
ATOM     21  C   UNL     1       5.832   4.269  14.690  0.00  0.00    +0.000 A 
ATOM     22 CL   UNL     1       6.453   3.341  13.384  0.00  0.00    +0.000 Cl
ATOM     23  C   UNL     1       5.414   3.631  15.858  0.00  0.00    +0.000 A 
ATOM     24  C   UNL     1       4.879   4.381  16.913  0.00  0.00    +0.000 A 
ATOM     25 CL   UNL     1       4.382   3.521  18.325  0.00  0.00    +0.000 Cl
ENDBRANCH  17  18
ENDBRANCH  11  16
BRANCH  14  26
ATOM     26  C   UNL     1       1.619  13.795  20.679  0.00  0.00    +0.000 C 
BRANCH  26  27
ATOM     27  C   UNL     1       2.169  14.774  19.665  0.00  0.00    +0.000 A 
ATOM     28  C   UNL     1       3.211  14.384  18.808  0.00  0.00    +0.000 A 
ATOM     29  C   UNL     1       3.682  15.254  17.824  0.00  0.00    +0.000 A 
ATOM     30  C   UNL     1       3.123  16.523  17.690  0.00  0.00    +0.000 A 
ATOM     31  C   UNL     1       2.097  16.926  18.551  0.00  0.00    +0.000 A 
ATOM     32  C   UNL     1       1.628  16.058  19.536  0.00  0.00    +0.000 A 
ENDBRANCH  26  27
ENDBRANCH  14  26
TORSDOF 4
ENDMDL
MODEL 2
REMARK VINA RESULT:      -7.7      2.379      3.909
REMARK  Name = 
REMARK  5 active torsions:
REMARK  status: ('A' for Active; 'I' for Inactive)
REMARK    1  A    between atoms: C_1  and  C_2
REMARK    2  A    between atoms: N_11  and  N_12
REMARK    3  A    between atoms: C_13  and  C_14
REMARK    4  A    between atoms: N_24  and  C_25
REMARK    5  A    between atoms: C_25  and  C_26
REMARK                            x       y       z     vdW  Elec       q    Type
REMARK                         _______ _______ _______ _____ _____    ______ ____
ROOT
ATOM      1  C   UNL     1      -0.332   8.567  21.589  0.00  0.00    +0.000 C 
ATOM      2  C   UNL     1       0.243   9.739  20.832  0.00  0.00    +0.000 A 
ATOM      3  N   UNL     1       0.047  10.905  21.377  0.00  0.00    +0.000 NA
ATOM      4  C   UNL     1       0.619  11.953  20.743  0.00  0.00    +0.000 A 
ATOM      5  S   UNL     1       0.520  13.532  21.383  0.00  0.00    +0.000 S 
ATOM      6  C   UNL     1       1.473  14.159  20.125  0.00  0.00    +0.000 A 
ATOM      7  C   UNL     1       1.835  13.201  19.197  0.00  0.00    +0.000 A 
ATOM      8  C   UNL     1       1.366  11.907  19.588  0.00  0.00    +0.000 A 
ATOM      9  C   UNL     1       1.583  10.611  18.972  0.00  0.00    +0.000 A 
ATOM     10  O   UNL     1       2.266  10.496  17.953  0.00  0.00    +0.000 OA
ATOM     11  N   UNL     1       0.946   9.535  19.641  0.00  0.00    +0.000 N 
ATOM     12  C   UNL     1       2.693  13.566  18.017  0.00  0.00    +0.000 C 
ATOM     13  C   UNL     1       2.910  15.105  17.929  0.00  0.00    +0.000 C 
ATOM     14  N   UNL     1       3.092  15.798  19.234  0.00  0.00    +0.000 NA
ATOM     15  C   UNL     1       1.870  15.605  20.056  0.00  0.00    +0.000 C 
ENDROOT
BRANCH  11  16
ATOM     16  N   UNL     1       1.270   8.294  19.107  0.00  0.00    +0.000 NA
ATOM     17  C   UNL     1       2.226   7.579  19.602  0.00  0.00    +0.000 C 
BRANCH  17  18
ATOM     18  C   UNL     1       2.425   6.180  19.139  0.00  0.00    +0.000 A 
ATOM     19  C   UNL     1       1.748   5.150  19.817  0.00  0.00    +0.000 A 
ATOM     20  C   UNL     1       1.992   3.812  19.499  0.00  0.00    +0.000 A 
ATOM     21  C   UNL     1       2.906   3.496  18.498  0.00  0.00    +0.000 A 
ATOM     22 CL   UNL     1       3.231   1.849  18.129  0.00  0.00    +0.000 Cl
ATOM     23  C   UNL     1       3.569   4.507  17.802  0.00  0.00    +0.000 A 
ATOM     24  C   UNL     1       3.330   5.849  18.121  0.00  0.00    +0.000 A 
ATOM     25 CL   UNL     1       4.189   7.044  17.217  0.00  0.00    +0.000 Cl
ENDBRANCH  17  18
ENDBRANCH  11  16
BRANCH  14  26
ATOM     26  C   UNL     1       4.318  15.315  19.898  0.00  0.00    +0.000 C 
BRANCH  26  27
ATOM     27  C   UNL     1       5.617  15.683  19.217  0.00  0.00    +0.000 A 
ATOM     28  C   UNL     1       6.129  16.985  19.343  0.00  0.00    +0.000 A 
ATOM     29  C   UNL     1       7.359  17.320  18.776  0.00  0.00    +0.000 A 
ATOM     30  C   UNL     1       8.087  16.362  18.072  0.00  0.00    +0.000 A 
ATOM     31  C   UNL     1       7.576  15.068  17.927  0.00  0.00    +0.000 A 
ATOM     32  C   UNL     1       6.345  14.734  18.492  0.00  0.00    +0.000 A 
ENDBRANCH  26  27
ENDBRANCH  14  26
TORSDOF 4
ENDMDL
MODEL 3
REMARK VINA RESULT:      -7.6      0.966      1.341
REMARK  Name = 
REMARK  5 active torsions:
REMARK  status: ('A' for Active; 'I' for Inactive)
REMARK    1  A    between atoms: C_1  and  C_2
REMARK    2  A    between atoms: N_11  and  N_12
REMARK    3  A    between atoms: C_13  and  C_14
REMARK    4  A    between atoms: N_24  and  C_25
REMARK    5  A    between atoms: C_25  and  C_26
REMARK                            x       y       z     vdW  Elec       q    Type
REMARK                         _______ _______ _______ _____ _____    ______ ____
ROOT
ATOM      1  C   UNL     1       2.321   5.540  20.438  0.00  0.00    +0.000 C 
ATOM      2  C   UNL     1       1.861   6.950  20.164  0.00  0.00    +0.000 A 
ATOM      3  N   UNL     1       1.287   7.554  21.166  0.00  0.00    +0.000 NA
ATOM      4  C   UNL     1       0.935   8.841  20.951  0.00  0.00    +0.000 A 
ATOM      5  S   UNL     1       0.251   9.787  22.196  0.00  0.00    +0.000 S 
ATOM      6  C   UNL     1       0.187  11.156  21.193  0.00  0.00    +0.000 A 
ATOM      7  C   UNL     1       0.636  10.904  19.911  0.00  0.00    +0.000 A 
ATOM      8  C   UNL     1       1.110   9.559  19.790  0.00  0.00    +0.000 A 
ATOM      9  C   UNL     1       1.742   8.890  18.668  0.00  0.00    +0.000 A 
ATOM     10  O   UNL     1       1.955   9.484  17.610  0.00  0.00    +0.000 OA
ATOM     11  N   UNL     1       2.074   7.533  18.911  0.00  0.00    +0.000 N 
ATOM     12  C   UNL     1       0.668  12.001  18.882  0.00  0.00    +0.000 C 
ATOM     13  C   UNL     1      -0.019  13.293  19.411  0.00  0.00    +0.000 C 
ATOM     14  N   UNL     1       0.225  13.602  20.848  0.00  0.00    +0.000 NA
ATOM     15  C   UNL     1      -0.306  12.490  21.675  0.00  0.00    +0.000 C 
ENDROOT
BRANCH  11  16
ATOM     16  N   UNL     1       2.788   6.951  17.871  0.00  0.00    +0.000 NA
ATOM     17  C   UNL     1       4.019   6.588  18.024  0.00  0.00    +0.000 C 
BRANCH  17  18
ATOM     18  C   UNL     1       4.698   5.798  16.963  0.00  0.00    +0.000 A 
ATOM     19  C   UNL     1       5.170   6.476  15.824  0.00  0.00    +0.000 A 
ATOM     20  C   UNL     1       5.706   5.767  14.748  0.00  0.00    +0.000 A 
ATOM     21  C   UNL     1       5.781   4.378  14.805  0.00  0.00    +0.000 A 
ATOM     22 CL   UNL     1       6.411   3.503  13.466  0.00  0.00    +0.000 Cl
ATOM     23  C   UNL     1       5.336   3.693  15.935  0.00  0.00    +0.000 A 
ATOM     24  C   UNL     1       4.794   4.401  17.015  0.00  0.00    +0.000 A 
ATOM     25 CL   UNL     1       4.264   3.483  18.378  0.00  0.00    +0.000 Cl
ENDBRANCH  17  18
ENDBRANCH  11  16
BRANCH  14  26
ATOM     26  C   UNL     1       1.661  13.856  21.075  0.00  0.00    +0.000 C 
BRANCH  26  27
ATOM     27  C   UNL     1       2.109  15.286  20.869  0.00  0.00    +0.000 A 
ATOM     28  C   UNL     1       1.242  16.345  21.187  0.00  0.00    +0.000 A 
ATOM     29  C   UNL     1       1.666  17.668  21.066  0.00  0.00    +0.000 A 
ATOM     30  C   UNL     1       2.956  17.949  20.620  0.00  0.00    +0.000 A 
ATOM     31  C   UNL     1       3.820  16.902  20.285  0.00  0.00    +0.000 A 
ATOM     32  C   UNL     1       3.395  15.579  20.403  0.00  0.00    +0.000 A 
ENDBRANCH  26  27
ENDBRANCH  14  26
TORSDOF 4
ENDMDL
MODEL 4
REMARK VINA RESULT:      -7.5      1.047      1.101
REMARK  Name = 
REMARK  5 active torsions:
REMARK  status: ('A' for Active; 'I' for Inactive)
REMARK    1  A    between atoms: C_1  and  C_2
REMARK    2  A    between atoms: N_11  and  N_12
REMARK    3  A    between atoms: C_13  and  C_14
REMARK    4  A    between atoms: N_24  and  C_25
REMARK    5  A    between atoms: C_25  and  C_26
REMARK                            x       y       z     vdW  Elec       q    Type
REMARK                         _______ _______ _______ _____ _____    ______ ____
ROOT
ATOM      1  C   UNL     1       1.935   6.414  21.251  0.00  0.00    +0.000 C 
ATOM      2  C   UNL     1       1.476   7.706  20.623  0.00  0.00    +0.000 A 
ATOM      3  N   UNL     1       0.624   8.396  21.328  0.00  0.00    +0.000 NA
ATOM      4  C   UNL     1       0.261   9.589  20.806  0.00  0.00    +0.000 A 
ATOM      5  S   UNL     1      -0.782  10.641  21.653  0.00  0.00    +0.000 S 
ATOM      6  C   UNL     1      -0.667  11.821  20.437  0.00  0.00    +0.000 A 
ATOM      7  C   UNL     1       0.117  11.419  19.372  0.00  0.00    +0.000 A 
ATOM      8  C   UNL     1       0.688  10.130  19.615  0.00  0.00    +0.000 A 
ATOM      9  C   UNL     1       1.632   9.364  18.822  0.00  0.00    +0.000 A 
ATOM     10  O   UNL     1       2.077   9.803  17.761  0.00  0.00    +0.000 OA
ATOM     11  N   UNL     1       1.972   8.104  19.378  0.00  0.00    +0.000 N 
ATOM     12  C   UNL     1       0.348  12.338  18.204  0.00  0.00    +0.000 C 
ATOM     13  C   UNL     1      -0.532  13.618  18.307  0.00  0.00    +0.000 C 
ATOM     14  N   UNL     1      -0.692  14.172  19.680  0.00  0.00    +0.000 NA
ATOM     15  C   UNL     1      -1.351  13.154  20.536  0.00  0.00    +0.000 C 
ENDROOT
BRANCH  11  16
ATOM     16  N   UNL     1       2.968   7.446  18.668  0.00  0.00    +0.000 NA
ATOM     17  C   UNL     1       2.805   6.232  18.254  0.00  0.00    +0.000 C 
BRANCH  17  18
ATOM     18  C   UNL     1       3.803   5.621  17.336  0.00  0.00    +0.000 A 
ATOM     19  C   UNL     1       4.600   6.475  16.552  0.00  0.00    +0.000 A 
ATOM     20  C   UNL     1       5.466   5.952  15.590  0.00  0.00    +0.000 A 
ATOM     21  C   UNL     1       5.546   4.574  15.410  0.00  0.00    +0.000 A 
ATOM     22 CL   UNL     1       6.588   3.931  14.203  0.00  0.00    +0.000 Cl
ATOM     23  C   UNL     1       4.778   3.714  16.193  0.00  0.00    +0.000 A 
ATOM     24  C   UNL     1       3.906   4.235  17.157  0.00  0.00    +0.000 A 
ATOM     25 CL   UNL     1       2.986   3.107  18.087  0.00  0.00    +0.000 Cl
ENDBRANCH  17  18
ENDBRANCH  11  16
BRANCH  14  26
ATOM     26  C   UNL     1       0.617  14.610  20.205  0.00  0.00    +0.000 C 
BRANCH  26  27
ATOM     27  C   UNL     1       1.438  15.470  19.271  0.00  0.00    +0.000 A 
ATOM     28  C   UNL     1       2.693  15.020  18.827  0.00  0.00    +0.000 A 
ATOM     29  C   UNL     1       3.433  15.772  17.914  0.00  0.00    +0.000 A 
ATOM     30  C   UNL     1       2.931  16.982  17.439  0.00  0.00    +0.000 A 
ATOM     31  C   UNL     1       1.690  17.446  17.889  0.00  0.00    +0.000 A 
ATOM     32  C   UNL     1       0.953  16.696  18.804  0.00  0.00    +0.000 A 
ENDBRANCH  26  27
ENDBRANCH  14  26
TORSDOF 4
ENDMDL
MODEL 5
REMARK VINA RESULT:      -7.3      3.637      6.055
REMARK  Name = 
REMARK  5 active torsions:
REMARK  status: ('A' for Active; 'I' for Inactive)
REMARK    1  A    between atoms: C_1  and  C_2
REMARK    2  A    between atoms: N_11  and  N_12
REMARK    3  A    between atoms: C_13  and  C_14
REMARK    4  A    between atoms: N_24  and  C_25
REMARK    5  A    between atoms: C_25  and  C_26
REMARK                            x       y       z     vdW  Elec       q    Type
REMARK                         _______ _______ _______ _____ _____    ______ ____
ROOT
ATOM      1  C   UNL     1       2.075   9.013  17.553  0.00  0.00    +0.000 C 
ATOM      2  C   UNL     1       1.400   9.712  18.706  0.00  0.00    +0.000 A 
ATOM      3  N   UNL     1       0.853  10.859  18.421  0.00  0.00    +0.000 NA
ATOM      4  C   UNL     1       0.185  11.459  19.431  0.00  0.00    +0.000 A 
ATOM      5  S   UNL     1      -0.653  12.925  19.187  0.00  0.00    +0.000 S 
ATOM      6  C   UNL     1      -1.212  12.935  20.790  0.00  0.00    +0.000 A 
ATOM      7  C   UNL     1      -0.742  11.866  21.529  0.00  0.00    +0.000 A 
ATOM      8  C   UNL     1       0.041  10.987  20.716  0.00  0.00    +0.000 A 
ATOM      9  C   UNL     1       0.653   9.713  21.043  0.00  0.00    +0.000 A 
ATOM     10  O   UNL     1       0.536   9.219  22.166  0.00  0.00    +0.000 OA
ATOM     11  N   UNL     1       1.372   9.121  19.973  0.00  0.00    +0.000 N 
ATOM     12  C   UNL     1      -1.142  11.698  22.970  0.00  0.00    +0.000 C 
ATOM     13  C   UNL     1      -1.940  12.931  23.484  0.00  0.00    +0.000 C 
ATOM     14  N   UNL     1      -2.888  13.530  22.504  0.00  0.00    +0.000 NA
ATOM     15  C   UNL     1      -2.125  14.002  21.322  0.00  0.00    +0.000 C 
ENDROOT
BRANCH  11  16
ATOM     16  N   UNL     1       1.842   7.848  20.270  0.00  0.00    +0.000 NA
ATOM     17  C   UNL     1       1.610   6.847  19.486  0.00  0.00    +0.000 C 
BRANCH  17  18
ATOM     18  C   UNL     1       2.283   5.543  19.726  0.00  0.00    +0.000 A 
ATOM     19  C   UNL     1       1.833   4.747  20.796  0.00  0.00    +0.000 A 
ATOM     20  C   UNL     1       2.506   3.572  21.138  0.00  0.00    +0.000 A 
ATOM     21  C   UNL     1       3.626   3.182  20.410  0.00  0.00    +0.000 A 
ATOM     22 CL   UNL     1       4.474   1.753  20.851  0.00  0.00    +0.000 Cl
ATOM     23  C   UNL     1       4.072   3.949  19.334  0.00  0.00    +0.000 A 
ATOM     24  C   UNL     1       3.402   5.130  18.990  0.00  0.00    +0.000 A 
ATOM     25 CL   UNL     1       4.013   6.027  17.647  0.00  0.00    +0.000 Cl
ENDBRANCH  17  18
ENDBRANCH  11  16
BRANCH  14  26
ATOM     26  C   UNL     1      -3.943  12.557  22.161  0.00  0.00    +0.000 C 
BRANCH  26  27
ATOM     27  C   UNL     1      -5.353  12.969  22.522  0.00  0.00    +0.000 A 
ATOM     28  C   UNL     1      -5.834  12.750  23.824  0.00  0.00    +0.000 A 
ATOM     29  C   UNL     1      -7.108  13.185  24.190  0.00  0.00    +0.000 A 
ATOM     30  C   UNL     1      -7.917  13.837  23.260  0.00  0.00    +0.000 A 
ATOM     31  C   UNL     1      -7.452  14.043  21.958  0.00  0.00    +0.000 A 
ATOM     32  C   UNL     1      -6.179  13.606  21.591  0.00  0.00    +0.000 A 
ENDBRANCH  26  27
ENDBRANCH  14  26
TORSDOF 4
ENDMDL
MODEL 6
REMARK VINA RESULT:      -7.3      2.790      4.341
REMARK  Name = 
REMARK  5 active torsions:
REMARK  status: ('A' for Active; 'I' for Inactive)
REMARK    1  A    between atoms: C_1  and  C_2
REMARK    2  A    between atoms: N_11  and  N_12
REMARK    3  A    between atoms: C_13  and  C_14
REMARK    4  A    between atoms: N_24  and  C_25
REMARK    5  A    between atoms: C_25  and  C_26
REMARK                            x       y       z     vdW  Elec       q    Type
REMARK                         _______ _______ _______ _____ _____    ______ ____
ROOT
ATOM      1  C   UNL     1      -0.167   9.268  23.379  0.00  0.00    +0.000 C 
ATOM      2  C   UNL     1      -0.397  10.516  22.563  0.00  0.00    +0.000 A 
ATOM      3  N   UNL     1      -0.717  11.577  23.246  0.00  0.00    +0.000 NA
ATOM      4  C   UNL     1      -0.855  12.716  22.531  0.00  0.00    +0.000 A 
ATOM      5  S   UNL     1      -1.190  14.204  23.296  0.00  0.00    +0.000 S 
ATOM      6  C   UNL     1      -1.134  15.039  21.819  0.00  0.00    +0.000 A 
ATOM      7  C   UNL     1      -0.907  14.205  20.740  0.00  0.00    +0.000 A 
ATOM      8  C   UNL     1      -0.704  12.856  21.170  0.00  0.00    +0.000 A 
ATOM      9  C   UNL     1      -0.354  11.675  20.402  0.00  0.00    +0.000 A 
ATOM     10  O   UNL     1      -0.175  11.737  19.184  0.00  0.00    +0.000 OA
ATOM     11  N   UNL     1      -0.246  10.490  21.173  0.00  0.00    +0.000 N 
ATOM     12  C   UNL     1      -0.811  14.767  19.348  0.00  0.00    +0.000 C 
ATOM     13  C   UNL     1      -1.177  16.279  19.320  0.00  0.00    +0.000 C 
ATOM     14  N   UNL     1      -0.699  17.072  20.486  0.00  0.00    +0.000 NA
ATOM     15  C   UNL     1      -1.311  16.526  21.723  0.00  0.00    +0.000 C 
ENDROOT
BRANCH  11  16
ATOM     16  N   UNL     1       0.211   9.402  20.440  0.00  0.00    +0.000 NA
ATOM     17  C   UNL     1       1.382   8.896  20.650  0.00  0.00    +0.000 C 
BRANCH  17  18
ATOM     18  C   UNL     1       1.769   7.620  19.990  0.00  0.00    +0.000 A 
ATOM     19  C   UNL     1       1.748   6.440  20.755  0.00  0.00    +0.000 A 
ATOM     20  C   UNL     1       2.215   5.239  20.218  0.00  0.00    +0.000 A 
ATOM     21  C   UNL     1       2.698   5.207  18.913  0.00  0.00    +0.000 A 
ATOM     22 CL   UNL     1       3.304   3.736  18.263  0.00  0.00    +0.000 Cl
ATOM     23  C   UNL     1       2.705   6.365  18.135  0.00  0.00    +0.000 A 
ATOM     24  C   UNL     1       2.241   7.572  18.672  0.00  0.00    +0.000 A 
ATOM     25 CL   UNL     1       2.283   8.962  17.649  0.00  0.00    +0.000 Cl
ENDBRANCH  17  18
ENDBRANCH  11  16
BRANCH  14  26
ATOM     26  C   UNL     1       0.777  17.076  20.524  0.00  0.00    +0.000 C 
BRANCH  26  27
ATOM     27  C   UNL     1       1.463  17.176  19.180  0.00  0.00    +0.000 A 
ATOM     28  C   UNL     1       2.538  16.323  18.877  0.00  0.00    +0.000 A 
ATOM     29  C   UNL     1       3.137  16.358  17.618  0.00  0.00    +0.000 A 
ATOM     30  C   UNL     1       2.674  17.248  16.650  0.00  0.00    +0.000 A 
ATOM     31  C   UNL     1       1.616  18.113  16.949  0.00  0.00    +0.000 A 
ATOM     32  C   UNL     1       1.020  18.080  18.209  0.00  0.00    +0.000 A 
ENDBRANCH  26  27
ENDBRANCH  14  26
TORSDOF 4
ENDMDL
MODEL 7
REMARK VINA RESULT:      -7.3      0.887      1.230
REMARK  Name = 
REMARK  5 active torsions:
REMARK  status: ('A' for Active; 'I' for Inactive)
REMARK    1  A    between atoms: C_1  and  C_2
REMARK    2  A    between atoms: N_11  and  N_12
REMARK    3  A    between atoms: C_13  and  C_14
REMARK    4  A    between atoms: N_24  and  C_25
REMARK    5  A    between atoms: C_25  and  C_26
REMARK                            x       y       z     vdW  Elec       q    Type
REMARK                         _______ _______ _______ _____ _____    ______ ____
ROOT
ATOM      1  C   UNL     1       3.051   5.297  20.101  0.00  0.00    +0.000 C 
ATOM      2  C   UNL     1       2.388   6.630  19.858  0.00  0.00    +0.000 A 
ATOM      3  N   UNL     1       1.758   7.133  20.881  0.00  0.00    +0.000 NA
ATOM      4  C   UNL     1       1.220   8.359  20.694  0.00  0.00    +0.000 A 
ATOM      5  S   UNL     1       0.437   9.182  21.967  0.00  0.00    +0.000 S 
ATOM      6  C   UNL     1       0.155  10.540  20.988  0.00  0.00    +0.000 A 
ATOM      7  C   UNL     1       0.606  10.371  19.693  0.00  0.00    +0.000 A 
ATOM      8  C   UNL     1       1.264   9.109  19.541  0.00  0.00    +0.000 A 
ATOM      9  C   UNL     1       1.958   8.551  18.395  0.00  0.00    +0.000 A 
ATOM     10  O   UNL     1       2.060   9.182  17.342  0.00  0.00    +0.000 OA
ATOM     11  N   UNL     1       2.486   7.252  18.611  0.00  0.00    +0.000 N 
ATOM     12  C   UNL     1       0.456  11.474  18.681  0.00  0.00    +0.000 C 
ATOM     13  C   UNL     1      -0.395  12.648  19.244  0.00  0.00    +0.000 C 
ATOM     14  N   UNL     1      -0.165  12.970  20.680  0.00  0.00    +0.000 NA
ATOM     15  C   UNL     1      -0.512  11.784  21.501  0.00  0.00    +0.000 C 
ENDROOT
BRANCH  11  16
ATOM     16  N   UNL     1       3.251   6.792  17.547  0.00  0.00    +0.000 NA
ATOM     17  C   UNL     1       4.540   6.730  17.625  0.00  0.00    +0.000 C 
BRANCH  17  18
ATOM     18  C   UNL     1       5.318   6.057  16.551  0.00  0.00    +0.000 A 
ATOM     19  C   UNL     1       4.888   6.208  15.220  0.00  0.00    +0.000 A 
ATOM     20  C   UNL     1       5.510   5.502  14.189  0.00  0.00    +0.000 A 
ATOM     21  C   UNL     1       6.571   4.648  14.479  0.00  0.00    +0.000 A 
ATOM     22 CL   UNL     1       7.316   3.754  13.214  0.00  0.00    +0.000 Cl
ATOM     23  C   UNL     1       7.023   4.505  15.790  0.00  0.00    +0.000 A 
ATOM     24  C   UNL     1       6.398   5.208  16.828  0.00  0.00    +0.000 A 
ATOM     25 CL   UNL     1       7.013   4.978  18.425  0.00  0.00    +0.000 Cl
ENDBRANCH  17  18
ENDBRANCH  11  16
BRANCH  14  26
ATOM     26  C   UNL     1       1.225  13.425  20.880  0.00  0.00    +0.000 C 
BRANCH  26  27
ATOM     27  C   UNL     1       1.707  14.490  19.920  0.00  0.00    +0.000 A 
ATOM     28  C   UNL     1       1.080  15.747  19.897  0.00  0.00    +0.000 A 
ATOM     29  C   UNL     1       1.556  16.761  19.065  0.00  0.00    +0.000 A 
ATOM     30  C   UNL     1       2.657  16.529  18.243  0.00  0.00    +0.000 A 
ATOM     31  C   UNL     1       3.276  15.275  18.246  0.00  0.00    +0.000 A 
ATOM     32  C   UNL     1       2.798  14.261  19.076  0.00  0.00    +0.000 A 
ENDBRANCH  26  27
ENDBRANCH  14  26
TORSDOF 4
ENDMDL
MODEL 8
REMARK VINA RESULT:      -7.3      4.204      9.810
REMARK  Name = 
REMARK  5 active torsions:
REMARK  status: ('A' for Active; 'I' for Inactive)
REMARK    1  A    between atoms: C_1  and  C_2
REMARK    2  A    between atoms: N_11  and  N_12
REMARK    3  A    between atoms: C_13  and  C_14
REMARK    4  A    between atoms: N_24  and  C_25
REMARK    5  A    between atoms: C_25  and  C_26
REMARK                            x       y       z     vdW  Elec       q    Type
REMARK                         _______ _______ _______ _____ _____    ______ ____
ROOT
ATOM      1  C   UNL     1       0.721   4.092  20.535  0.00  0.00    +0.000 C 
ATOM      2  C   UNL     1       1.927   4.571  19.766  0.00  0.00    +0.000 A 
ATOM      3  N   UNL     1       2.680   3.632  19.269  0.00  0.00    +0.000 NA
ATOM      4  C   UNL     1       3.723   4.051  18.519  0.00  0.00    +0.000 A 
ATOM      5  S   UNL     1       4.750   2.937  17.734  0.00  0.00    +0.000 S 
ATOM      6  C   UNL     1       5.654   4.187  17.025  0.00  0.00    +0.000 A 
ATOM      7  C   UNL     1       5.221   5.444  17.404  0.00  0.00    +0.000 A 
ATOM      8  C   UNL     1       4.067   5.355  18.245  0.00  0.00    +0.000 A 
ATOM      9  C   UNL     1       3.236   6.407  18.800  0.00  0.00    +0.000 A 
ATOM     10  O   UNL     1       3.470   7.594  18.569  0.00  0.00    +0.000 OA
ATOM     11  N   UNL     1       2.167   5.939  19.607  0.00  0.00    +0.000 N 
ATOM     12  C   UNL     1       5.893   6.678  16.865  0.00  0.00    +0.000 C 
ATOM     13  C   UNL     1       7.165   6.319  16.045  0.00  0.00    +0.000 C 
ATOM     14  N   UNL     1       7.056   5.094  15.204  0.00  0.00    +0.000 NA
ATOM     15  C   UNL     1       6.796   3.927  16.085  0.00  0.00    +0.000 C 
ENDROOT
BRANCH  11  16
ATOM     16  N   UNL     1       1.314   6.953  20.024  0.00  0.00    +0.000 NA
ATOM     17  C   UNL     1       1.672   7.800  20.932  0.00  0.00    +0.000 C 
BRANCH  17  18
ATOM     18  C   UNL     1       0.821   8.985  21.221  0.00  0.00    +0.000 A 
ATOM     19  C   UNL     1       0.319   9.144  22.525  0.00  0.00    +0.000 A 
ATOM     20  C   UNL     1      -0.581  10.171  22.818  0.00  0.00    +0.000 A 
ATOM     21  C   UNL     1      -0.978  11.049  21.814  0.00  0.00    +0.000 A 
ATOM     22 CL   UNL     1      -2.110  12.293  22.167  0.00  0.00    +0.000 Cl
ATOM     23  C   UNL     1      -0.472  10.917  20.521  0.00  0.00    +0.000 A 
ATOM     24  C   UNL     1       0.427   9.886  20.222  0.00  0.00    +0.000 A 
ATOM     25 CL   UNL     1       1.008   9.786  18.599  0.00  0.00    +0.000 Cl
ENDBRANCH  17  18
ENDBRANCH  11  16
BRANCH  14  26
ATOM     26  C   UNL     1       6.020   5.280  14.170  0.00  0.00    +0.000 C 
BRANCH  26  27
ATOM     27  C   UNL     1       5.987   4.228  13.084  0.00  0.00    +0.000 A 
ATOM     28  C   UNL     1       7.190   3.743  12.542  0.00  0.00    +0.000 A 
ATOM     29  C   UNL     1       7.177   2.726  11.588  0.00  0.00    +0.000 A 
ATOM     30  C   UNL     1       5.966   2.186  11.160  0.00  0.00    +0.000 A 
ATOM     31  C   UNL     1       4.763   2.675  11.680  0.00  0.00    +0.000 A 
ATOM     32  C   UNL     1       4.776   3.694  12.632  0.00  0.00    +0.000 A 
ENDBRANCH  26  27
ENDBRANCH  14  26
TORSDOF 4
ENDMDL
MODEL 9
REMARK VINA RESULT:      -7.2      3.412      5.546
REMARK  Name = 
REMARK  5 active torsions:
REMARK  status: ('A' for Active; 'I' for Inactive)
REMARK    1  A    between atoms: C_1  and  C_2
REMARK    2  A    between atoms: N_11  and  N_12
REMARK    3  A    between atoms: C_13  and  C_14
REMARK    4  A    between atoms: N_24  and  C_25
REMARK    5  A    between atoms: C_25  and  C_26
REMARK                            x       y       z     vdW  Elec       q    Type
REMARK                         _______ _______ _______ _____ _____    ______ ____
ROOT
ATOM      1  C   UNL     1       2.200   9.252  17.702  0.00  0.00    +0.000 C 
ATOM      2  C   UNL     1       1.422   9.884  18.828  0.00  0.00    +0.000 A 
ATOM      3  N   UNL     1       0.901  11.048  18.562  0.00  0.00    +0.000 NA
ATOM      4  C   UNL     1       0.142  11.590  19.541  0.00  0.00    +0.000 A 
ATOM      5  S   UNL     1      -0.673  13.070  19.308  0.00  0.00    +0.000 S 
ATOM      6  C   UNL     1      -1.376  12.989  20.852  0.00  0.00    +0.000 A 
ATOM      7  C   UNL     1      -0.972  11.877  21.567  0.00  0.00    +0.000 A 
ATOM      8  C   UNL     1      -0.117  11.044  20.778  0.00  0.00    +0.000 A 
ATOM      9  C   UNL     1       0.466   9.751  21.084  0.00  0.00    +0.000 A 
ATOM     10  O   UNL     1       0.250   9.192  22.161  0.00  0.00    +0.000 OA
ATOM     11  N   UNL     1       1.280   9.220  20.050  0.00  0.00    +0.000 N 
ATOM     12  C   UNL     1      -1.501  11.626  22.953  0.00  0.00    +0.000 C 
ATOM     13  C   UNL     1      -2.344  12.829  23.464  0.00  0.00    +0.000 C 
ATOM     14  N   UNL     1      -3.201  13.487  22.439  0.00  0.00    +0.000 NA
ATOM     15  C   UNL     1      -2.335  14.025  21.360  0.00  0.00    +0.000 C 
ENDROOT
BRANCH  11  16
ATOM     16  N   UNL     1       1.724   7.930  20.314  0.00  0.00    +0.000 NA
ATOM     17  C   UNL     1       1.680   7.008  19.410  0.00  0.00    +0.000 C 
BRANCH  17  18
ATOM     18  C   UNL     1       2.335   5.695  19.655  0.00  0.00    +0.000 A 
ATOM     19  C   UNL     1       1.801   4.859  20.652  0.00  0.00    +0.000 A 
ATOM     20  C   UNL     1       2.447   3.672  21.003  0.00  0.00    +0.000 A 
ATOM     21  C   UNL     1       3.625   3.310  20.355  0.00  0.00    +0.000 A 
ATOM     22 CL   UNL     1       4.438   1.865  20.810  0.00  0.00    +0.000 Cl
ATOM     23  C   UNL     1       4.155   4.118  19.351  0.00  0.00    +0.000 A 
ATOM     24  C   UNL     1       3.512   5.311  18.999  0.00  0.00    +0.000 A 
ATOM     25 CL   UNL     1       4.229   6.260  17.747  0.00  0.00    +0.000 Cl
ENDBRANCH  17  18
ENDBRANCH  11  16
BRANCH  14  26
ATOM     26  C   UNL     1      -4.218  12.539  21.945  0.00  0.00    +0.000 C 
BRANCH  26  27
ATOM     27  C   UNL     1      -5.073  13.037  20.801  0.00  0.00    +0.000 A 
ATOM     28  C   UNL     1      -5.030  12.383  19.558  0.00  0.00    +0.000 A 
ATOM     29  C   UNL     1      -5.862  12.790  18.515  0.00  0.00    +0.000 A 
ATOM     30  C   UNL     1      -6.740  13.857  18.698  0.00  0.00    +0.000 A 
ATOM     31  C   UNL     1      -6.776  14.525  19.926  0.00  0.00    +0.000 A 
ATOM     32  C   UNL     1      -5.942  14.120  20.968  0.00  0.00    +0.000 A 
ENDBRANCH  26  27
ENDBRANCH  14  26
TORSDOF 4
ENDMDL
