MODEL 1
REMARK VINA RESULT:      -8.7      0.000      0.000
REMARK  Name = 
REMARK  7 active torsions:
REMARK  status: ('A' for Active; 'I' for Inactive)
REMARK    1  A    between atoms: C_1  and  C_2
REMARK    2  A    between atoms: C_4  and  C_5
REMARK    3  A    between atoms: C_10  and  C_11
REMARK    4  A    between atoms: N_19  and  C_20
REMARK    5  A    between atoms: C_20  and  C_21
REMARK    6  A    between atoms: C_20  and  C_22
REMARK    7  A    between atoms: N_29  and  C_30
REMARK                            x       y       z     vdW  Elec       q    Type
REMARK                         _______ _______ _______ _____ _____    ______ ____
ROOT
ATOM      1  C   UNL     1       0.408  10.201  20.914  0.00  0.00    +0.000 A 
ATOM      2  N   UNL     1       0.652   9.029  21.468  0.00  0.00    +0.000 NA
ATOM      3  C   UNL     1       1.292   8.274  20.546  0.00  0.00    +0.000 A 
ATOM      4  C   UNL     1       1.754   6.970  20.698  0.00  0.00    +0.000 A 
ATOM      5  N   UNL     1       2.435   6.367  19.708  0.00  0.00    +0.000 NA
ATOM      6  C   UNL     1       2.696   7.040  18.560  0.00  0.00    +0.000 A 
ATOM      7  C   UNL     1       2.229   8.346  18.321  0.00  0.00    +0.000 A 
ATOM      8  C   UNL     1       1.473   8.964  19.349  0.00  0.00    +0.000 A 
ATOM      9  N   UNL     1       0.752  10.162  19.542  0.00  0.00    +0.000 N 
ENDROOT
BRANCH   1  13
ATOM     10  C   UNL     1      -3.226  12.476  23.708  0.00  0.00    +0.000 C 
ATOM     11  C   UNL     1      -1.941  12.415  22.952  0.00  0.00    +0.000 A 
ATOM     12  C   UNL     1      -1.515  11.340  22.263  0.00  0.00    +0.000 A 
ATOM     13  C   UNL     1      -0.207  11.292  21.630  0.00  0.00    +0.000 A 
ATOM     14  C   UNL     1       0.473  12.460  21.579  0.00  0.00    +0.000 A 
ATOM     15  N   UNL     1       0.034  13.624  22.179  0.00  0.00    +0.000 N 
ATOM     16  C   UNL     1       0.788  14.858  22.012  0.00  0.00    +0.000 C 
ATOM     17  C   UNL     1      -1.117  13.666  22.958  0.00  0.00    +0.000 A 
ATOM     18  O   UNL     1      -1.486  14.655  23.587  0.00  0.00    +0.000 OA
ENDBRANCH   1  13
BRANCH   6  19
ATOM     19  C   UNL     1       3.464   6.175  17.580  0.00  0.00    +0.000 C 
ATOM     20  C   UNL     1       3.648   4.685  17.882  0.00  0.00    +0.000 C 
ATOM     21  C   UNL     1       4.441   4.030  16.745  0.00  0.00    +0.000 C 
ATOM     22  O   UNL     1       5.695   4.686  16.559  0.00  0.00    +0.000 OA
ATOM     23  C   UNL     1       5.532   6.047  16.162  0.00  0.00    +0.000 C 
ATOM     24  C   UNL     1       4.813   6.831  17.249  0.00  0.00    +0.000 C 
ENDBRANCH   6  19
BRANCH   9  25
ATOM     25  C   UNL     1       0.108  11.007  18.504  0.00  0.00    +0.000 C 
ATOM     26  C   UNL     1       0.549  12.479  18.570  0.00  0.00    +0.000 C 
BRANCH  25  27
ATOM     27  C   UNL     1      -1.406  10.879  18.370  0.00  0.00    +0.000 A 
ATOM     28  C   UNL     1      -1.962   9.803  17.656  0.00  0.00    +0.000 A 
ATOM     29  C   UNL     1      -3.342   9.708  17.443  0.00  0.00    +0.000 A 
ATOM     30  C   UNL     1      -4.194  10.684  17.948  0.00  0.00    +0.000 A 
ATOM     31  C   UNL     1      -3.664  11.777  18.625  0.00  0.00    +0.000 A 
ATOM     32  C   UNL     1      -2.282  11.885  18.806  0.00  0.00    +0.000 A 
ENDBRANCH  25  27
ENDBRANCH   9  25
TORSDOF 4
ENDMDL
MODEL 2
REMARK VINA RESULT:      -8.7      0.732      1.588
REMARK  Name = 
REMARK  7 active torsions:
REMARK  status: ('A' for Active; 'I' for Inactive)
REMARK    1  A    between atoms: C_1  and  C_2
REMARK    2  A    between atoms: C_4  and  C_5
REMARK    3  A    between atoms: C_10  and  C_11
REMARK    4  A    between atoms: N_19  and  C_20
REMARK    5  A    between atoms: C_20  and  C_21
REMARK    6  A    between atoms: C_20  and  C_22
REMARK    7  A    between atoms: N_29  and  C_30
REMARK                            x       y       z     vdW  Elec       q    Type
REMARK                         _______ _______ _______ _____ _____    ______ ____
ROOT
ATOM      1  C   UNL     1       0.247  10.744  20.989  0.00  0.00    +0.000 A 
ATOM      2  N   UNL     1       0.510   9.614  21.617  0.00  0.00    +0.000 NA
ATOM      3  C   UNL     1       1.093   8.784  20.723  0.00  0.00    +0.000 A 
ATOM      4  C   UNL     1       1.552   7.489  20.948  0.00  0.00    +0.000 A 
ATOM      5  N   UNL     1       2.174   6.805  19.973  0.00  0.00    +0.000 NA
ATOM      6  C   UNL     1       2.380   7.387  18.765  0.00  0.00    +0.000 A 
ATOM      7  C   UNL     1       1.912   8.677  18.453  0.00  0.00    +0.000 A 
ATOM      8  C   UNL     1       1.217   9.380  19.469  0.00  0.00    +0.000 A 
ATOM      9  N   UNL     1       0.518  10.598  19.608  0.00  0.00    +0.000 N 
ENDROOT
BRANCH   1  13
ATOM     10  C   UNL     1       0.087  15.623  22.528  0.00  0.00    +0.000 C 
ATOM     11  C   UNL     1      -0.415  14.221  22.420  0.00  0.00    +0.000 A 
ATOM     12  C   UNL     1       0.257  13.217  21.824  0.00  0.00    +0.000 A 
ATOM     13  C   UNL     1      -0.320  11.894  21.651  0.00  0.00    +0.000 A 
ATOM     14  C   UNL     1      -1.477  11.657  22.310  0.00  0.00    +0.000 A 
ATOM     15  N   UNL     1      -2.158  12.623  23.025  0.00  0.00    +0.000 N 
ATOM     16  C   UNL     1      -3.356  12.266  23.770  0.00  0.00    +0.000 C 
ATOM     17  C   UNL     1      -1.743  13.949  23.058  0.00  0.00    +0.000 A 
ATOM     18  O   UNL     1      -2.373  14.855  23.599  0.00  0.00    +0.000 OA
ENDBRANCH   1  13
BRANCH   6  19
ATOM     19  C   UNL     1       3.088   6.441  17.815  0.00  0.00    +0.000 C 
ATOM     20  C   UNL     1       3.234   4.966  18.199  0.00  0.00    +0.000 C 
ATOM     21  C   UNL     1       3.969   4.219  17.078  0.00  0.00    +0.000 C 
ATOM     22  O   UNL     1       5.236   4.821  16.815  0.00  0.00    +0.000 OA
ATOM     23  C   UNL     1       5.103   6.161  16.343  0.00  0.00    +0.000 C 
ATOM     24  C   UNL     1       4.445   7.031  17.404  0.00  0.00    +0.000 C 
ENDBRANCH   6  19
BRANCH   9  25
ATOM     25  C   UNL     1      -0.172  11.371  18.544  0.00  0.00    +0.000 C 
ATOM     26  C   UNL     1       0.125  12.878  18.608  0.00  0.00    +0.000 C 
BRANCH  25  27
ATOM     27  C   UNL     1      -1.663  11.099  18.369  0.00  0.00    +0.000 A 
ATOM     28  C   UNL     1      -2.095  10.011  17.588  0.00  0.00    +0.000 A 
ATOM     29  C   UNL     1      -3.453   9.790  17.339  0.00  0.00    +0.000 A 
ATOM     30  C   UNL     1      -4.409  10.648  17.873  0.00  0.00    +0.000 A 
ATOM     31  C   UNL     1      -4.005  11.751  18.616  0.00  0.00    +0.000 A 
ATOM     32  C   UNL     1      -2.645  11.987  18.835  0.00  0.00    +0.000 A 
ENDBRANCH  25  27
ENDBRANCH   9  25
TORSDOF 4
ENDMDL
MODEL 3
REMARK VINA RESULT:      -8.3      1.463      8.009
REMARK  Name = 
REMARK  7 active torsions:
REMARK  status: ('A' for Active; 'I' for Inactive)
REMARK    1  A    between atoms: C_1  and  C_2
REMARK    2  A    between atoms: C_4  and  C_5
REMARK    3  A    between atoms: C_10  and  C_11
REMARK    4  A    between atoms: N_19  and  C_20
REMARK    5  A    between atoms: C_20  and  C_21
REMARK    6  A    between atoms: C_20  and  C_22
REMARK    7  A    between atoms: N_29  and  C_30
REMARK                            x       y       z     vdW  Elec       q    Type
REMARK                         _______ _______ _______ _____ _____    ______ ____
ROOT
ATOM      1  C   UNL     1       1.564   8.136  20.176  0.00  0.00    +0.000 A 
ATOM      2  N   UNL     1       1.700   8.185  21.488  0.00  0.00    +0.000 NA
ATOM      3  C   UNL     1       0.863   9.143  21.943  0.00  0.00    +0.000 A 
ATOM      4  C   UNL     1       0.664   9.531  23.265  0.00  0.00    +0.000 A 
ATOM      5  N   UNL     1      -0.257  10.460  23.573  0.00  0.00    +0.000 NA
ATOM      6  C   UNL     1      -1.017  11.009  22.594  0.00  0.00    +0.000 A 
ATOM      7  C   UNL     1      -0.847  10.695  21.233  0.00  0.00    +0.000 A 
ATOM      8  C   UNL     1       0.155   9.747  20.905  0.00  0.00    +0.000 A 
ATOM      9  N   UNL     1       0.735   9.197  19.741  0.00  0.00    +0.000 N 
ENDROOT
BRANCH   1  13
ATOM     10  C   UNL     1       4.769   6.623  16.484  0.00  0.00    +0.000 C 
ATOM     11  C   UNL     1       3.772   6.422  17.576  0.00  0.00    +0.000 A 
ATOM     12  C   UNL     1       3.142   7.420  18.224  0.00  0.00    +0.000 A 
ATOM     13  C   UNL     1       2.258   7.176  19.352  0.00  0.00    +0.000 A 
ATOM     14  C   UNL     1       1.928   5.885  19.582  0.00  0.00    +0.000 A 
ATOM     15  N   UNL     1       2.464   4.824  18.879  0.00  0.00    +0.000 N 
ATOM     16  C   UNL     1       1.996   3.470  19.137  0.00  0.00    +0.000 C 
ATOM     17  C   UNL     1       3.456   4.998  17.921  0.00  0.00    +0.000 A 
ATOM     18  O   UNL     1       4.027   4.074  17.345  0.00  0.00    +0.000 OA
ENDBRANCH   1  13
BRANCH   6  19
ATOM     19  C   UNL     1      -1.981  12.035  23.158  0.00  0.00    +0.000 C 
ATOM     20  C   UNL     1      -3.328  12.257  22.465  0.00  0.00    +0.000 C 
ATOM     21  C   UNL     1      -4.122  13.326  23.226  0.00  0.00    +0.000 C 
ATOM     22  O   UNL     1      -3.375  14.539  23.321  0.00  0.00    +0.000 OA
ATOM     23  C   UNL     1      -2.172  14.367  24.069  0.00  0.00    +0.000 C 
ATOM     24  C   UNL     1      -1.255  13.372  23.373  0.00  0.00    +0.000 C 
ENDBRANCH   6  19
BRANCH   9  25
ATOM     25  C   UNL     1       0.823   9.818  18.395  0.00  0.00    +0.000 C 
ATOM     26  C   UNL     1       1.906  10.905  18.306  0.00  0.00    +0.000 C 
BRANCH  25  27
ATOM     27  C   UNL     1      -0.491  10.282  17.777  0.00  0.00    +0.000 A 
ATOM     28  C   UNL     1      -1.018  11.545  18.104  0.00  0.00    +0.000 A 
ATOM     29  C   UNL     1      -2.263  11.960  17.620  0.00  0.00    +0.000 A 
ATOM     30  C   UNL     1      -3.004  11.123  16.793  0.00  0.00    +0.000 A 
ATOM     31  C   UNL     1      -2.522   9.856  16.486  0.00  0.00    +0.000 A 
ATOM     32  C   UNL     1      -1.293   9.432  16.998  0.00  0.00    +0.000 A 
ENDBRANCH  25  27
ENDBRANCH   9  25
TORSDOF 4
ENDMDL
MODEL 4
REMARK VINA RESULT:      -8.2      2.181      9.211
REMARK  Name = 
REMARK  7 active torsions:
REMARK  status: ('A' for Active; 'I' for Inactive)
REMARK    1  A    between atoms: C_1  and  C_2
REMARK    2  A    between atoms: C_4  and  C_5
REMARK    3  A    between atoms: C_10  and  C_11
REMARK    4  A    between atoms: N_19  and  C_20
REMARK    5  A    between atoms: C_20  and  C_21
REMARK    6  A    between atoms: C_20  and  C_22
REMARK    7  A    between atoms: N_29  and  C_30
REMARK                            x       y       z     vdW  Elec       q    Type
REMARK                         _______ _______ _______ _____ _____    ______ ____
ROOT
ATOM      1  C   UNL     1       3.472   7.232  18.132  0.00  0.00    +0.000 A 
ATOM      2  N   UNL     1       3.124   8.316  17.464  0.00  0.00    +0.000 NA
ATOM      3  C   UNL     1       2.129   8.913  18.158  0.00  0.00    +0.000 A 
ATOM      4  C   UNL     1       1.464  10.092  17.833  0.00  0.00    +0.000 A 
ATOM      5  N   UNL     1       0.534  10.602  18.659  0.00  0.00    +0.000 NA
ATOM      6  C   UNL     1       0.255   9.977  19.829  0.00  0.00    +0.000 A 
ATOM      7  C   UNL     1       0.858   8.763  20.206  0.00  0.00    +0.000 A 
ATOM      8  C   UNL     1       1.806   8.204  19.314  0.00  0.00    +0.000 A 
ATOM      9  N   UNL     1       2.575   7.025  19.207  0.00  0.00    +0.000 N 
ENDROOT
BRANCH   1  13
ATOM     10  C   UNL     1       5.894   3.930  15.064  0.00  0.00    +0.000 C 
ATOM     11  C   UNL     1       5.735   4.777  16.282  0.00  0.00    +0.000 A 
ATOM     12  C   UNL     1       4.626   5.482  16.578  0.00  0.00    +0.000 A 
ATOM     13  C   UNL     1       4.557   6.375  17.723  0.00  0.00    +0.000 A 
ATOM     14  C   UNL     1       5.584   6.299  18.600  0.00  0.00    +0.000 A 
ATOM     15  N   UNL     1       6.701   5.512  18.400  0.00  0.00    +0.000 N 
ATOM     16  C   UNL     1       7.725   5.428  19.431  0.00  0.00    +0.000 C 
ATOM     17  C   UNL     1       6.896   4.789  17.229  0.00  0.00    +0.000 A 
ATOM     18  O   UNL     1       7.919   4.158  16.972  0.00  0.00    +0.000 OA
ENDBRANCH   1  13
BRANCH   6  19
ATOM     19  C   UNL     1      -0.825  10.713  20.599  0.00  0.00    +0.000 C 
ATOM     20  C   UNL     1      -1.384  12.023  20.037  0.00  0.00    +0.000 C 
ATOM     21  C   UNL     1      -2.463  12.564  20.983  0.00  0.00    +0.000 C 
ATOM     22  O   UNL     1      -1.940  12.739  22.299  0.00  0.00    +0.000 OA
ATOM     23  C   UNL     1      -1.524  11.503  22.878  0.00  0.00    +0.000 C 
ATOM     24  C   UNL     1      -0.394  10.893  22.063  0.00  0.00    +0.000 C 
ENDBRANCH   6  19
BRANCH   9  25
ATOM     25  C   UNL     1       2.268   5.690  19.782  0.00  0.00    +0.000 C 
ATOM     26  C   UNL     1       2.788   5.522  21.219  0.00  0.00    +0.000 C 
BRANCH  25  27
ATOM     27  C   UNL     1       2.614   4.484  18.915  0.00  0.00    +0.000 A 
ATOM     28  C   UNL     1       1.838   4.187  17.779  0.00  0.00    +0.000 A 
ATOM     29  C   UNL     1       2.079   3.039  17.016  0.00  0.00    +0.000 A 
ATOM     30  C   UNL     1       3.105   2.169  17.369  0.00  0.00    +0.000 A 
ATOM     31  C   UNL     1       3.860   2.422  18.508  0.00  0.00    +0.000 A 
ATOM     32  C   UNL     1       3.595   3.552  19.287  0.00  0.00    +0.000 A 
ENDBRANCH  25  27
ENDBRANCH   9  25
TORSDOF 4
ENDMDL
MODEL 5
REMARK VINA RESULT:      -8.2      2.391      9.191
REMARK  Name = 
REMARK  7 active torsions:
REMARK  status: ('A' for Active; 'I' for Inactive)
REMARK    1  A    between atoms: C_1  and  C_2
REMARK    2  A    between atoms: C_4  and  C_5
REMARK    3  A    between atoms: C_10  and  C_11
REMARK    4  A    between atoms: N_19  and  C_20
REMARK    5  A    between atoms: C_20  and  C_21
REMARK    6  A    between atoms: C_20  and  C_22
REMARK    7  A    between atoms: N_29  and  C_30
REMARK                            x       y       z     vdW  Elec       q    Type
REMARK                         _______ _______ _______ _____ _____    ______ ____
ROOT
ATOM      1  C   UNL     1       3.599   7.002  17.742  0.00  0.00    +0.000 A 
ATOM      2  N   UNL     1       2.903   7.916  17.094  0.00  0.00    +0.000 NA
ATOM      3  C   UNL     1       2.050   8.475  17.980  0.00  0.00    +0.000 A 
ATOM      4  C   UNL     1       1.132   9.494  17.740  0.00  0.00    +0.000 A 
ATOM      5  N   UNL     1       0.390   9.996  18.743  0.00  0.00    +0.000 NA
ATOM      6  C   UNL     1       0.552   9.525  20.004  0.00  0.00    +0.000 A 
ATOM      7  C   UNL     1       1.432   8.472  20.315  0.00  0.00    +0.000 A 
ATOM      8  C   UNL     1       2.181   7.914  19.249  0.00  0.00    +0.000 A 
ATOM      9  N   UNL     1       3.080   6.844  19.049  0.00  0.00    +0.000 N 
ENDROOT
BRANCH   1  13
ATOM     10  C   UNL     1       5.754   4.108  14.113  0.00  0.00    +0.000 C 
ATOM     11  C   UNL     1       5.714   4.839  15.414  0.00  0.00    +0.000 A 
ATOM     12  C   UNL     1       4.622   5.455  15.906  0.00  0.00    +0.000 A 
ATOM     13  C   UNL     1       4.661   6.243  17.126  0.00  0.00    +0.000 A 
ATOM     14  C   UNL     1       5.793   6.150  17.861  0.00  0.00    +0.000 A 
ATOM     15  N   UNL     1       6.909   5.445  17.454  0.00  0.00    +0.000 N 
ATOM     16  C   UNL     1       8.058   5.330  18.339  0.00  0.00    +0.000 C 
ATOM     17  C   UNL     1       6.984   4.835  16.208  0.00  0.00    +0.000 A 
ATOM     18  O   UNL     1       7.993   4.285  15.770  0.00  0.00    +0.000 OA
ENDBRANCH   1  13
BRANCH   6  19
ATOM     19  C   UNL     1      -0.384  10.221  20.973  0.00  0.00    +0.000 C 
ATOM     20  C   UNL     1      -0.599  11.732  20.851  0.00  0.00    +0.000 C 
ATOM     21  C   UNL     1      -1.590  12.193  21.926  0.00  0.00    +0.000 C 
ATOM     22  O   UNL     1      -1.128  11.833  23.228  0.00  0.00    +0.000 OA
ATOM     23  C   UNL     1      -1.036  10.418  23.390  0.00  0.00    +0.000 C 
ATOM     24  C   UNL     1      -0.019   9.841  22.416  0.00  0.00    +0.000 C 
ENDBRANCH   6  19
BRANCH   9  25
ATOM     25  C   UNL     1       3.173   5.583  19.829  0.00  0.00    +0.000 C 
ATOM     26  C   UNL     1       4.621   5.106  20.027  0.00  0.00    +0.000 C 
BRANCH  25  27
ATOM     27  C   UNL     1       2.262   4.444  19.385  0.00  0.00    +0.000 A 
ATOM     28  C   UNL     1       1.106   4.135  20.125  0.00  0.00    +0.000 A 
ATOM     29  C   UNL     1       0.300   3.042  19.791  0.00  0.00    +0.000 A 
ATOM     30  C   UNL     1       0.629   2.239  18.705  0.00  0.00    +0.000 A 
ATOM     31  C   UNL     1       1.787   2.501  17.981  0.00  0.00    +0.000 A 
ATOM     32  C   UNL     1       2.607   3.575  18.338  0.00  0.00    +0.000 A 
ENDBRANCH  25  27
ENDBRANCH   9  25
TORSDOF 4
ENDMDL
MODEL 6
REMARK VINA RESULT:      -8.2      0.868      1.865
REMARK  Name = 
REMARK  7 active torsions:
REMARK  status: ('A' for Active; 'I' for Inactive)
REMARK    1  A    between atoms: C_1  and  C_2
REMARK    2  A    between atoms: C_4  and  C_5
REMARK    3  A    between atoms: C_10  and  C_11
REMARK    4  A    between atoms: N_19  and  C_20
REMARK    5  A    between atoms: C_20  and  C_21
REMARK    6  A    between atoms: C_20  and  C_22
REMARK    7  A    between atoms: N_29  and  C_30
REMARK                            x       y       z     vdW  Elec       q    Type
REMARK                         _______ _______ _______ _____ _____    ______ ____
ROOT
ATOM      1  C   UNL     1       0.345  10.380  21.071  0.00  0.00    +0.000 A 
ATOM      2  N   UNL     1       0.435   9.258  21.760  0.00  0.00    +0.000 NA
ATOM      3  C   UNL     1       1.071   8.357  20.979  0.00  0.00    +0.000 A 
ATOM      4  C   UNL     1       1.396   7.042  21.302  0.00  0.00    +0.000 A 
ATOM      5  N   UNL     1       2.093   6.280  20.442  0.00  0.00    +0.000 NA
ATOM      6  C   UNL     1       2.505   6.800  19.259  0.00  0.00    +0.000 A 
ATOM      7  C   UNL     1       2.182   8.106  18.849  0.00  0.00    +0.000 A 
ATOM      8  C   UNL     1       1.410   8.894  19.739  0.00  0.00    +0.000 A 
ATOM      9  N   UNL     1       0.791  10.163  19.745  0.00  0.00    +0.000 N 
ENDROOT
BRANCH   1  13
ATOM     10  C   UNL     1       0.209  15.383  22.142  0.00  0.00    +0.000 C 
ATOM     11  C   UNL     1      -0.303  13.981  22.161  0.00  0.00    +0.000 A 
ATOM     12  C   UNL     1       0.366  12.920  21.670  0.00  0.00    +0.000 A 
ATOM     13  C   UNL     1      -0.219  11.591  21.615  0.00  0.00    +0.000 A 
ATOM     14  C   UNL     1      -1.385  11.425  22.280  0.00  0.00    +0.000 A 
ATOM     15  N   UNL     1      -2.066  12.459  22.894  0.00  0.00    +0.000 N 
ATOM     16  C   UNL     1      -3.275  12.182  23.655  0.00  0.00    +0.000 C 
ATOM     17  C   UNL     1      -1.640  13.779  22.806  0.00  0.00    +0.000 A 
ATOM     18  O   UNL     1      -2.269  14.736  23.253  0.00  0.00    +0.000 OA
ENDBRANCH   1  13
BRANCH   6  19
ATOM     19  C   UNL     1       3.264   5.771  18.443  0.00  0.00    +0.000 C 
ATOM     20  C   UNL     1       4.191   6.243  17.320  0.00  0.00    +0.000 C 
ATOM     21  C   UNL     1       4.848   5.026  16.657  0.00  0.00    +0.000 C 
ATOM     22  O   UNL     1       3.859   4.117  16.174  0.00  0.00    +0.000 OA
ATOM     23  C   UNL     1       3.065   3.581  17.232  0.00  0.00    +0.000 C 
ATOM     24  C   UNL     1       2.297   4.693  17.931  0.00  0.00    +0.000 C 
ENDBRANCH   6  19
BRANCH   9  25
ATOM     25  C   UNL     1       0.313  10.942  18.574  0.00  0.00    +0.000 C 
ATOM     26  C   UNL     1       0.785  12.405  18.593  0.00  0.00    +0.000 C 
BRANCH  25  27
ATOM     27  C   UNL     1      -1.174  10.836  18.253  0.00  0.00    +0.000 A 
ATOM     28  C   UNL     1      -1.638   9.832  17.383  0.00  0.00    +0.000 A 
ATOM     29  C   UNL     1      -2.982   9.765  17.002  0.00  0.00    +0.000 A 
ATOM     30  C   UNL     1      -3.893  10.697  17.490  0.00  0.00    +0.000 A 
ATOM     31  C   UNL     1      -3.451  11.720  18.321  0.00  0.00    +0.000 A 
ATOM     32  C   UNL     1      -2.101  11.803  18.672  0.00  0.00    +0.000 A 
ENDBRANCH  25  27
ENDBRANCH   9  25
TORSDOF 4
ENDMDL
MODEL 7
REMARK VINA RESULT:      -8.0      0.554      1.016
REMARK  Name = 
REMARK  7 active torsions:
REMARK  status: ('A' for Active; 'I' for Inactive)
REMARK    1  A    between atoms: C_1  and  C_2
REMARK    2  A    between atoms: C_4  and  C_5
REMARK    3  A    between atoms: C_10  and  C_11
REMARK    4  A    between atoms: N_19  and  C_20
REMARK    5  A    between atoms: C_20  and  C_21
REMARK    6  A    between atoms: C_20  and  C_22
REMARK    7  A    between atoms: N_29  and  C_30
REMARK                            x       y       z     vdW  Elec       q    Type
REMARK                         _______ _______ _______ _____ _____    ______ ____
ROOT
ATOM      1  C   UNL     1       0.241  10.218  21.074  0.00  0.00    +0.000 A 
ATOM      2  N   UNL     1       0.387   9.070  21.707  0.00  0.00    +0.000 NA
ATOM      3  C   UNL     1       1.096   8.253  20.898  0.00  0.00    +0.000 A 
ATOM      4  C   UNL     1       1.497   6.946  21.162  0.00  0.00    +0.000 A 
ATOM      5  N   UNL     1       2.260   6.274  20.281  0.00  0.00    +0.000 NA
ATOM      6  C   UNL     1       2.663   6.880  19.137  0.00  0.00    +0.000 A 
ATOM      7  C   UNL     1       2.266   8.183  18.786  0.00  0.00    +0.000 A 
ATOM      8  C   UNL     1       1.426   8.874  19.695  0.00  0.00    +0.000 A 
ATOM      9  N   UNL     1       0.727  10.100  19.750  0.00  0.00    +0.000 N 
ENDROOT
BRANCH   1  13
ATOM     10  C   UNL     1      -3.617  12.749  23.289  0.00  0.00    +0.000 C 
ATOM     11  C   UNL     1      -2.249  12.606  22.709  0.00  0.00    +0.000 A 
ATOM     12  C   UNL     1      -1.787  11.487  22.120  0.00  0.00    +0.000 A 
ATOM     13  C   UNL     1      -0.412  11.362  21.665  0.00  0.00    +0.000 A 
ATOM     14  C   UNL     1       0.322  12.498  21.664  0.00  0.00    +0.000 A 
ATOM     15  N   UNL     1      -0.138  13.702  22.161  0.00  0.00    +0.000 N 
ATOM     16  C   UNL     1       0.686  14.896  22.050  0.00  0.00    +0.000 C 
ATOM     17  C   UNL     1      -1.377  13.822  22.780  0.00  0.00    +0.000 A 
ATOM     18  O   UNL     1      -1.779  14.849  23.321  0.00  0.00    +0.000 OA
ENDBRANCH   1  13
BRANCH   6  19
ATOM     19  C   UNL     1       3.503   5.945  18.289  0.00  0.00    +0.000 C 
ATOM     20  C   UNL     1       4.301   6.515  17.113  0.00  0.00    +0.000 C 
ATOM     21  C   UNL     1       5.072   5.382  16.425  0.00  0.00    +0.000 C 
ATOM     22  O   UNL     1       4.185   4.346  16.004  0.00  0.00    +0.000 OA
ATOM     23  C   UNL     1       3.524   3.729  17.108  0.00  0.00    +0.000 C 
ATOM     24  C   UNL     1       2.657   4.744  17.840  0.00  0.00    +0.000 C 
ENDBRANCH   6  19
BRANCH   9  25
ATOM     25  C   UNL     1       0.226  10.906  18.609  0.00  0.00    +0.000 C 
ATOM     26  C   UNL     1       0.718  12.362  18.641  0.00  0.00    +0.000 C 
BRANCH  25  27
ATOM     27  C   UNL     1      -1.271  10.825  18.329  0.00  0.00    +0.000 A 
ATOM     28  C   UNL     1      -1.789   9.767  17.560  0.00  0.00    +0.000 A 
ATOM     29  C   UNL     1      -3.144   9.715  17.215  0.00  0.00    +0.000 A 
ATOM     30  C   UNL     1      -4.011  10.717  17.639  0.00  0.00    +0.000 A 
ATOM     31  C   UNL     1      -3.515  11.792  18.369  0.00  0.00    +0.000 A 
ATOM     32  C   UNL     1      -2.155  11.857  18.683  0.00  0.00    +0.000 A 
ENDBRANCH  25  27
ENDBRANCH   9  25
TORSDOF 4
ENDMDL
MODEL 8
REMARK VINA RESULT:      -7.9      1.270      2.261
REMARK  Name = 
REMARK  7 active torsions:
REMARK  status: ('A' for Active; 'I' for Inactive)
REMARK    1  A    between atoms: C_1  and  C_2
REMARK    2  A    between atoms: C_4  and  C_5
REMARK    3  A    between atoms: C_10  and  C_11
REMARK    4  A    between atoms: N_19  and  C_20
REMARK    5  A    between atoms: C_20  and  C_21
REMARK    6  A    between atoms: C_20  and  C_22
REMARK    7  A    between atoms: N_29  and  C_30
REMARK                            x       y       z     vdW  Elec       q    Type
REMARK                         _______ _______ _______ _____ _____    ______ ____
ROOT
ATOM      1  C   UNL     1      -0.261  11.022  21.191  0.00  0.00    +0.000 A 
ATOM      2  N   UNL     1      -0.179   9.910  21.898  0.00  0.00    +0.000 NA
ATOM      3  C   UNL     1       0.551   9.030  21.177  0.00  0.00    +0.000 A 
ATOM      4  C   UNL     1       0.903   7.732  21.538  0.00  0.00    +0.000 A 
ATOM      5  N   UNL     1       1.693   6.992  20.741  0.00  0.00    +0.000 NA
ATOM      6  C   UNL     1       2.173   7.519  19.588  0.00  0.00    +0.000 A 
ATOM      7  C   UNL     1       1.830   8.808  19.140  0.00  0.00    +0.000 A 
ATOM      8  C   UNL     1       0.960   9.571  19.960  0.00  0.00    +0.000 A 
ATOM      9  N   UNL     1       0.292  10.813  19.906  0.00  0.00    +0.000 N 
ENDROOT
BRANCH   1  13
ATOM     10  C   UNL     1      -0.478  15.800  23.012  0.00  0.00    +0.000 C 
ATOM     11  C   UNL     1      -1.049  14.493  22.571  0.00  0.00    +0.000 A 
ATOM     12  C   UNL     1      -0.312  13.428  22.201  0.00  0.00    +0.000 A 
ATOM     13  C   UNL     1      -0.914  12.212  21.678  0.00  0.00    +0.000 A 
ATOM     14  C   UNL     1      -2.259  12.120  21.785  0.00  0.00    +0.000 A 
ATOM     15  N   UNL     1      -3.059  13.144  22.256  0.00  0.00    +0.000 N 
ATOM     16  C   UNL     1      -4.490  12.935  22.413  0.00  0.00    +0.000 C 
ATOM     17  C   UNL     1      -2.543  14.392  22.586  0.00  0.00    +0.000 A 
ATOM     18  O   UNL     1      -3.232  15.356  22.913  0.00  0.00    +0.000 OA
ENDBRANCH   1  13
BRANCH   6  19
ATOM     19  C   UNL     1       3.032   6.516  18.843  0.00  0.00    +0.000 C 
ATOM     20  C   UNL     1       3.766   6.957  17.573  0.00  0.00    +0.000 C 
ATOM     21  C   UNL     1       4.571   5.777  17.015  0.00  0.00    +0.000 C 
ATOM     22  O   UNL     1       3.723   4.656  16.769  0.00  0.00    +0.000 OA
ATOM     23  C   UNL     1       3.126   4.165  17.968  0.00  0.00    +0.000 C 
ATOM     24  C   UNL     1       2.233   5.230  18.588  0.00  0.00    +0.000 C 
ENDBRANCH   6  19
BRANCH   9  25
ATOM     25  C   UNL     1      -0.127  11.562  18.694  0.00  0.00    +0.000 C 
ATOM     26  C   UNL     1       0.040  13.083  18.840  0.00  0.00    +0.000 C 
BRANCH  25  27
ATOM     27  C   UNL     1      -1.490  11.200  18.112  0.00  0.00    +0.000 A 
ATOM     28  C   UNL     1      -2.626  11.957  18.455  0.00  0.00    +0.000 A 
ATOM     29  C   UNL     1      -3.901  11.595  18.006  0.00  0.00    +0.000 A 
ATOM     30  C   UNL     1      -4.065  10.474  17.200  0.00  0.00    +0.000 A 
ATOM     31  C   UNL     1      -2.963   9.690  16.879  0.00  0.00    +0.000 A 
ATOM     32  C   UNL     1      -1.696  10.036  17.357  0.00  0.00    +0.000 A 
ENDBRANCH  25  27
ENDBRANCH   9  25
TORSDOF 4
ENDMDL
MODEL 9
REMARK VINA RESULT:      -7.9      1.638      3.213
REMARK  Name = 
REMARK  7 active torsions:
REMARK  status: ('A' for Active; 'I' for Inactive)
REMARK    1  A    between atoms: C_1  and  C_2
REMARK    2  A    between atoms: C_4  and  C_5
REMARK    3  A    between atoms: C_10  and  C_11
REMARK    4  A    between atoms: N_19  and  C_20
REMARK    5  A    between atoms: C_20  and  C_21
REMARK    6  A    between atoms: C_20  and  C_22
REMARK    7  A    between atoms: N_29  and  C_30
REMARK                            x       y       z     vdW  Elec       q    Type
REMARK                         _______ _______ _______ _____ _____    ______ ____
ROOT
ATOM      1  C   UNL     1      -0.516  11.086  21.832  0.00  0.00    +0.000 A 
ATOM      2  N   UNL     1      -0.343   9.913  22.411  0.00  0.00    +0.000 NA
ATOM      3  C   UNL     1       0.332   9.131  21.539  0.00  0.00    +0.000 A 
ATOM      4  C   UNL     1       0.745   7.815  21.732  0.00  0.00    +0.000 A 
ATOM      5  N   UNL     1       1.470   7.183  20.793  0.00  0.00    +0.000 NA
ATOM      6  C   UNL     1       1.825   7.836  19.659  0.00  0.00    +0.000 A 
ATOM      7  C   UNL     1       1.413   9.152  19.379  0.00  0.00    +0.000 A 
ATOM      8  C   UNL     1       0.611   9.802  20.350  0.00  0.00    +0.000 A 
ATOM      9  N   UNL     1      -0.086  11.023  20.485  0.00  0.00    +0.000 N 
ENDROOT
BRANCH   1  13
ATOM     10  C   UNL     1      -0.889  15.920  23.470  0.00  0.00    +0.000 C 
ATOM     11  C   UNL     1      -1.342  14.507  23.312  0.00  0.00    +0.000 A 
ATOM     12  C   UNL     1      -0.617  13.538  22.720  0.00  0.00    +0.000 A 
ATOM     13  C   UNL     1      -1.144  12.202  22.497  0.00  0.00    +0.000 A 
ATOM     14  C   UNL     1      -2.317  11.914  23.105  0.00  0.00    +0.000 A 
ATOM     15  N   UNL     1      -3.055  12.842  23.814  0.00  0.00    +0.000 N 
ATOM     16  C   UNL     1      -4.269  12.431  24.505  0.00  0.00    +0.000 C 
ATOM     17  C   UNL     1      -2.684  14.179  23.892  0.00  0.00    +0.000 A 
ATOM     18  O   UNL     1      -3.362  15.052  24.428  0.00  0.00    +0.000 OA
ENDBRANCH   1  13
BRANCH   6  19
ATOM     19  C   UNL     1       2.629   6.939  18.738  0.00  0.00    +0.000 C 
ATOM     20  C   UNL     1       3.430   5.778  19.336  0.00  0.00    +0.000 C 
ATOM     21  C   UNL     1       4.142   5.018  18.211  0.00  0.00    +0.000 C 
ATOM     22  O   UNL     1       4.976   5.896  17.455  0.00  0.00    +0.000 OA
ATOM     23  C   UNL     1       4.222   6.914  16.798  0.00  0.00    +0.000 C 
ATOM     24  C   UNL     1       3.517   7.793  17.820  0.00  0.00    +0.000 C 
ENDBRANCH   6  19
BRANCH   9  25
ATOM     25  C   UNL     1      -0.636  11.875  19.400  0.00  0.00    +0.000 C 
ATOM     26  C   UNL     1      -1.049  11.071  18.157  0.00  0.00    +0.000 C 
BRANCH  25  27
ATOM     27  C   UNL     1       0.183  13.106  19.026  0.00  0.00    +0.000 A 
ATOM     28  C   UNL     1       1.537  12.970  18.666  0.00  0.00    +0.000 A 
ATOM     29  C   UNL     1       2.334  14.089  18.403  0.00  0.00    +0.000 A 
ATOM     30  C   UNL     1       1.792  15.367  18.488  0.00  0.00    +0.000 A 
ATOM     31  C   UNL     1       0.467  15.528  18.878  0.00  0.00    +0.000 A 
ATOM     32  C   UNL     1      -0.316  14.409  19.172  0.00  0.00    +0.000 A 
ENDBRANCH  25  27
ENDBRANCH   9  25
TORSDOF 4
ENDMDL
