MODEL 1
REMARK VINA RESULT:      -8.1      0.000      0.000
REMARK  Name = 
REMARK  7 active torsions:
REMARK  status: ('A' for Active; 'I' for Inactive)
REMARK    1  A    between atoms: C_1  and  C_2
REMARK    2  A    between atoms: N_6  and  C_7
REMARK    3  A    between atoms: C_7  and  C_8
REMARK    4  A    between atoms: N_13  and  C_14
REMARK    5  A    between atoms: C_26  and  C_27
REMARK    6  A    between atoms: N_28  and  C_29
REMARK    7  A    between atoms: C_29  and  C_30
REMARK                            x       y       z     vdW  Elec       q    Type
REMARK                         _______ _______ _______ _____ _____    ______ ____
ROOT
ATOM      1  C   UNL     1       4.819   7.150  15.843  0.00  0.00    +0.000 C 
ATOM      2  C   UNL     1       4.319   6.481  17.080  0.00  0.00    +0.000 A 
ATOM      3  C   UNL     1       3.396   7.013  17.957  0.00  0.00    +0.000 A 
ATOM      4  C   UNL     1       2.766   8.295  17.931  0.00  0.00    +0.000 A 
ATOM      5  N   UNL     1       1.910   8.627  18.855  0.00  0.00    +0.000 NA
ATOM      6  N   UNL     1       1.591   7.712  19.862  0.00  0.00    +0.000 N 
ATOM      7  C   UNL     1       2.147   6.415  20.008  0.00  0.00    +0.000 A 
ATOM      8  O   UNL     1       1.876   5.658  20.934  0.00  0.00    +0.000 OA
ATOM      9  C   UNL     1       3.118   6.083  18.967  0.00  0.00    +0.000 A 
ATOM     10  C   UNL     1       3.913   4.976  18.731  0.00  0.00    +0.000 A 
ATOM     11  C   UNL     1       4.028   3.697  19.502  0.00  0.00    +0.000 C 
ATOM     12  N   UNL     1       4.663   5.225  17.577  0.00  0.00    +0.000 N 
ENDROOT
BRANCH   6  13
ATOM     13  C   UNL     1       0.622   8.202  20.836  0.00  0.00    +0.000 C 
BRANCH  13  14
ATOM     14  C   UNL     1       1.064   9.477  21.566  0.00  0.00    +0.000 C 
ATOM     15  O   UNL     1       1.815   9.471  22.542  0.00  0.00    +0.000 OA
ATOM     16  N   UNL     1       0.622  10.680  21.017  0.00  0.00    +0.000 N 
ATOM     17  C   UNL     1       1.165  11.926  21.563  0.00  0.00    +0.000 C 
ATOM     18  C   UNL     1       1.328  12.977  20.464  0.00  0.00    +0.000 C 
ATOM     19  N   UNL     1       0.040  13.172  19.796  0.00  0.00    +0.000 N 
ATOM     20  C   UNL     1      -0.604  11.967  19.249  0.00  0.00    +0.000 C 
ATOM     21  C   UNL     1      -0.656  10.849  20.310  0.00  0.00    +0.000 C 
BRANCH  19  22
ATOM     22  C   UNL     1      -0.491  14.438  19.632  0.00  0.00    +0.000 A 
ATOM     23  C   UNL     1       0.006  15.299  18.634  0.00  0.00    +0.000 A 
ATOM     24  C   UNL     1      -0.487  16.591  18.485  0.00  0.00    +0.000 A 
ATOM     25  C   UNL     1      -1.481  17.028  19.348  0.00  0.00    +0.000 A 
ATOM     26  F   UNL     1      -1.955  18.273  19.217  0.00  0.00    +0.000 F 
ATOM     27  C   UNL     1      -1.992  16.214  20.338  0.00  0.00    +0.000 A 
ATOM     28  C   UNL     1      -1.496  14.917  20.473  0.00  0.00    +0.000 A 
ENDBRANCH  19  22
ENDBRANCH  13  14
ENDBRANCH   6  13
BRANCH  12  29
ATOM     29  C   UNL     1       5.705   4.311  17.073  0.00  0.00    +0.000 C 
BRANCH  29  30
ATOM     30  C   UNL     1       6.019   4.427  15.594  0.00  0.00    +0.000 A 
ATOM     31  C   UNL     1       7.214   5.007  15.143  0.00  0.00    +0.000 A 
ATOM     32  C   UNL     1       7.605   4.899  13.810  0.00  0.00    +0.000 A 
ATOM     33  C   UNL     1       6.808   4.201  12.914  0.00  0.00    +0.000 A 
ATOM     34  F   UNL     1       7.238   4.009  11.661  0.00  0.00    +0.000 F 
ATOM     35  C   UNL     1       5.593   3.665  13.314  0.00  0.00    +0.000 A 
ATOM     36  C   UNL     1       5.187   3.790  14.647  0.00  0.00    +0.000 A 
ENDBRANCH  29  30
ENDBRANCH  12  29
TORSDOF 5
ENDMDL
MODEL 2
REMARK VINA RESULT:      -7.8      0.588      1.017
REMARK  Name = 
REMARK  7 active torsions:
REMARK  status: ('A' for Active; 'I' for Inactive)
REMARK    1  A    between atoms: C_1  and  C_2
REMARK    2  A    between atoms: N_6  and  C_7
REMARK    3  A    between atoms: C_7  and  C_8
REMARK    4  A    between atoms: N_13  and  C_14
REMARK    5  A    between atoms: C_26  and  C_27
REMARK    6  A    between atoms: N_28  and  C_29
REMARK    7  A    between atoms: C_29  and  C_30
REMARK                            x       y       z     vdW  Elec       q    Type
REMARK                         _______ _______ _______ _____ _____    ______ ____
ROOT
ATOM      1  C   UNL     1       4.816   7.232  15.789  0.00  0.00    +0.000 C 
ATOM      2  C   UNL     1       4.299   6.607  17.041  0.00  0.00    +0.000 A 
ATOM      3  C   UNL     1       3.366   7.171  17.887  0.00  0.00    +0.000 A 
ATOM      4  C   UNL     1       2.739   8.452  17.809  0.00  0.00    +0.000 A 
ATOM      5  N   UNL     1       1.871   8.818  18.709  0.00  0.00    +0.000 NA
ATOM      6  N   UNL     1       1.537   7.939  19.744  0.00  0.00    +0.000 N 
ATOM      7  C   UNL     1       2.089   6.647  19.942  0.00  0.00    +0.000 A 
ATOM      8  O   UNL     1       1.805   5.923  20.890  0.00  0.00    +0.000 OA
ATOM      9  C   UNL     1       3.073   6.277  18.925  0.00  0.00    +0.000 A 
ATOM     10  C   UNL     1       3.869   5.162  18.738  0.00  0.00    +0.000 A 
ATOM     11  C   UNL     1       3.971   3.910  19.555  0.00  0.00    +0.000 C 
ATOM     12  N   UNL     1       4.634   5.369  17.587  0.00  0.00    +0.000 N 
ENDROOT
BRANCH   6  13
ATOM     13  C   UNL     1       0.557   8.464  20.687  0.00  0.00    +0.000 C 
BRANCH  13  14
ATOM     14  C   UNL     1       1.039   9.697  21.462  0.00  0.00    +0.000 C 
ATOM     15  O   UNL     1       1.624   9.628  22.544  0.00  0.00    +0.000 OA
ATOM     16  N   UNL     1       0.841  10.928  20.838  0.00  0.00    +0.000 N 
ATOM     17  C   UNL     1       1.446  12.114  21.449  0.00  0.00    +0.000 C 
ATOM     18  C   UNL     1       1.908  13.103  20.377  0.00  0.00    +0.000 C 
ATOM     19  N   UNL     1       0.773  13.433  19.514  0.00  0.00    +0.000 N 
ATOM     20  C   UNL     1       0.074  12.300  18.886  0.00  0.00    +0.000 C 
ATOM     21  C   UNL     1      -0.281  11.231  19.938  0.00  0.00    +0.000 C 
BRANCH  19  22
ATOM     22  C   UNL     1       0.437  14.750  19.255  0.00  0.00    +0.000 A 
ATOM     23  C   UNL     1      -0.820  15.256  19.637  0.00  0.00    +0.000 A 
ATOM     24  C   UNL     1      -1.189  16.565  19.345  0.00  0.00    +0.000 A 
ATOM     25  C   UNL     1      -0.294  17.372  18.658  0.00  0.00    +0.000 A 
ATOM     26  F   UNL     1      -0.646  18.631  18.366  0.00  0.00    +0.000 F 
ATOM     27  C   UNL     1       0.945  16.911  18.267  0.00  0.00    +0.000 A 
ATOM     28  C   UNL     1       1.308  15.599  18.572  0.00  0.00    +0.000 A 
ENDBRANCH  19  22
ENDBRANCH  13  14
ENDBRANCH   6  13
BRANCH  12  29
ATOM     29  C   UNL     1       5.681   4.436  17.128  0.00  0.00    +0.000 C 
BRANCH  29  30
ATOM     30  C   UNL     1       6.000   4.486  15.647  0.00  0.00    +0.000 A 
ATOM     31  C   UNL     1       7.217   5.002  15.177  0.00  0.00    +0.000 A 
ATOM     32  C   UNL     1       7.603   4.831  13.849  0.00  0.00    +0.000 A 
ATOM     33  C   UNL     1       6.781   4.132  12.978  0.00  0.00    +0.000 A 
ATOM     34  F   UNL     1       7.204   3.878  11.733  0.00  0.00    +0.000 F 
ATOM     35  C   UNL     1       5.546   3.658  13.395  0.00  0.00    +0.000 A 
ATOM     36  C   UNL     1       5.144   3.848  14.722  0.00  0.00    +0.000 A 
ENDBRANCH  29  30
ENDBRANCH  12  29
TORSDOF 5
ENDMDL
MODEL 3
REMARK VINA RESULT:      -7.7      6.532      9.851
REMARK  Name = 
REMARK  7 active torsions:
REMARK  status: ('A' for Active; 'I' for Inactive)
REMARK    1  A    between atoms: C_1  and  C_2
REMARK    2  A    between atoms: N_6  and  C_7
REMARK    3  A    between atoms: C_7  and  C_8
REMARK    4  A    between atoms: N_13  and  C_14
REMARK    5  A    between atoms: C_26  and  C_27
REMARK    6  A    between atoms: N_28  and  C_29
REMARK    7  A    between atoms: C_29  and  C_30
REMARK                            x       y       z     vdW  Elec       q    Type
REMARK                         _______ _______ _______ _____ _____    ______ ____
ROOT
ATOM      1  C   UNL     1      -3.036  13.425  20.661  0.00  0.00    +0.000 C 
ATOM      2  C   UNL     1      -1.693  13.274  20.027  0.00  0.00    +0.000 A 
ATOM      3  C   UNL     1      -0.777  14.291  19.850  0.00  0.00    +0.000 A 
ATOM      4  C   UNL     1      -0.902  15.680  20.160  0.00  0.00    +0.000 A 
ATOM      5  N   UNL     1       0.080  16.501  19.920  0.00  0.00    +0.000 NA
ATOM      6  N   UNL     1       1.272  16.012  19.377  0.00  0.00    +0.000 N 
ATOM      7  C   UNL     1       1.524  14.662  19.017  0.00  0.00    +0.000 A 
ATOM      8  O   UNL     1       2.567  14.280  18.498  0.00  0.00    +0.000 OA
ATOM      9  C   UNL     1       0.394  13.774  19.281  0.00  0.00    +0.000 A 
ATOM     10  C   UNL     1       0.180  12.424  19.067  0.00  0.00    +0.000 A 
ATOM     11  C   UNL     1       1.090  11.391  18.475  0.00  0.00    +0.000 C 
ATOM     12  N   UNL     1      -1.109  12.118  19.513  0.00  0.00    +0.000 N 
ENDROOT
BRANCH   6  13
ATOM     13  C   UNL     1       2.294  17.028  19.153  0.00  0.00    +0.000 C 
BRANCH  13  14
ATOM     14  C   UNL     1       3.288  17.176  20.313  0.00  0.00    +0.000 C 
ATOM     15  O   UNL     1       3.010  17.739  21.372  0.00  0.00    +0.000 OA
ATOM     16  N   UNL     1       4.529  16.566  20.135  0.00  0.00    +0.000 N 
ATOM     17  C   UNL     1       5.442  16.520  21.280  0.00  0.00    +0.000 C 
ATOM     18  C   UNL     1       6.251  15.221  21.278  0.00  0.00    +0.000 C 
ATOM     19  N   UNL     1       6.949  15.097  19.997  0.00  0.00    +0.000 N 
ATOM     20  C   UNL     1       6.117  15.173  18.786  0.00  0.00    +0.000 C 
ATOM     21  C   UNL     1       5.197  16.410  18.835  0.00  0.00    +0.000 C 
BRANCH  19  22
ATOM     22  C   UNL     1       8.308  14.846  19.952  0.00  0.00    +0.000 A 
ATOM     23  C   UNL     1       8.986  14.800  18.718  0.00  0.00    +0.000 A 
ATOM     24  C   UNL     1      10.344  14.506  18.652  0.00  0.00    +0.000 A 
ATOM     25  C   UNL     1      11.028  14.249  19.831  0.00  0.00    +0.000 A 
ATOM     26  F   UNL     1      12.333  13.957  19.775  0.00  0.00    +0.000 F 
ATOM     27  C   UNL     1      10.398  14.284  21.057  0.00  0.00    +0.000 A 
ATOM     28  C   UNL     1       9.037  14.588  21.113  0.00  0.00    +0.000 A 
ENDBRANCH  19  22
ENDBRANCH  13  14
ENDBRANCH   6  13
BRANCH  12  29
ATOM     29  C   UNL     1      -1.732  10.791  19.349  0.00  0.00    +0.000 C 
BRANCH  29  30
ATOM     30  C   UNL     1      -2.485  10.576  18.050  0.00  0.00    +0.000 A 
ATOM     31  C   UNL     1      -3.667  11.275  17.764  0.00  0.00    +0.000 A 
ATOM     32  C   UNL     1      -4.222  11.253  16.487  0.00  0.00    +0.000 A 
ATOM     33  C   UNL     1      -3.594  10.539  15.476  0.00  0.00    +0.000 A 
ATOM     34  F   UNL     1      -4.071  10.609  14.227  0.00  0.00    +0.000 F 
ATOM     35  C   UNL     1      -2.456   9.792  15.738  0.00  0.00    +0.000 A 
ATOM     36  C   UNL     1      -1.908   9.793  17.026  0.00  0.00    +0.000 A 
ENDBRANCH  29  30
ENDBRANCH  12  29
TORSDOF 5
ENDMDL
MODEL 4
REMARK VINA RESULT:      -7.6      6.402      8.693
REMARK  Name = 
REMARK  7 active torsions:
REMARK  status: ('A' for Active; 'I' for Inactive)
REMARK    1  A    between atoms: C_1  and  C_2
REMARK    2  A    between atoms: N_6  and  C_7
REMARK    3  A    between atoms: C_7  and  C_8
REMARK    4  A    between atoms: N_13  and  C_14
REMARK    5  A    between atoms: C_26  and  C_27
REMARK    6  A    between atoms: N_28  and  C_29
REMARK    7  A    between atoms: C_29  and  C_30
REMARK                            x       y       z     vdW  Elec       q    Type
REMARK                         _______ _______ _______ _____ _____    ______ ____
ROOT
ATOM      1  C   UNL     1       8.065  12.296  23.374  0.00  0.00    +0.000 C 
ATOM      2  C   UNL     1       7.811  13.618  22.730  0.00  0.00    +0.000 A 
ATOM      3  C   UNL     1       6.584  14.245  22.655  0.00  0.00    +0.000 A 
ATOM      4  C   UNL     1       5.308  13.784  23.101  0.00  0.00    +0.000 A 
ATOM      5  N   UNL     1       4.247  14.523  22.944  0.00  0.00    +0.000 NA
ATOM      6  N   UNL     1       4.366  15.785  22.356  0.00  0.00    +0.000 N 
ATOM      7  C   UNL     1       5.568  16.359  21.864  0.00  0.00    +0.000 A 
ATOM      8  O   UNL     1       5.624  17.452  21.311  0.00  0.00    +0.000 OA
ATOM      9  C   UNL     1       6.733  15.495  22.039  0.00  0.00    +0.000 A 
ATOM     10  C   UNL     1       8.067  15.621  21.692  0.00  0.00    +0.000 A 
ATOM     11  C   UNL     1       8.776  16.745  21.002  0.00  0.00    +0.000 C 
ATOM     12  N   UNL     1       8.729  14.460  22.105  0.00  0.00    +0.000 N 
ENDROOT
BRANCH   6  13
ATOM     13  C   UNL     1       3.109  16.515  22.235  0.00  0.00    +0.000 C 
BRANCH  13  14
ATOM     14  C   UNL     1       2.522  16.511  20.817  0.00  0.00    +0.000 C 
ATOM     15  O   UNL     1       2.667  17.442  20.025  0.00  0.00    +0.000 OA
ATOM     16  N   UNL     1       1.860  15.346  20.433  0.00  0.00    +0.000 N 
ATOM     17  C   UNL     1       1.445  15.221  19.034  0.00  0.00    +0.000 C 
ATOM     18  C   UNL     1       1.560  13.771  18.559  0.00  0.00    +0.000 C 
ATOM     19  N   UNL     1       0.781  12.914  19.455  0.00  0.00    +0.000 N 
ATOM     20  C   UNL     1       1.100  13.001  20.888  0.00  0.00    +0.000 C 
ATOM     21  C   UNL     1       1.118  14.471  21.353  0.00  0.00    +0.000 C 
BRANCH  19  22
ATOM     22  C   UNL     1      -0.149  12.022  18.952  0.00  0.00    +0.000 A 
ATOM     23  C   UNL     1      -1.166  12.462  18.084  0.00  0.00    +0.000 A 
ATOM     24  C   UNL     1      -2.135  11.586  17.605  0.00  0.00    +0.000 A 
ATOM     25  C   UNL     1      -2.089  10.258  18.005  0.00  0.00    +0.000 A 
ATOM     26  F   UNL     1      -3.022   9.411  17.556  0.00  0.00    +0.000 F 
ATOM     27  C   UNL     1      -1.108   9.791  18.855  0.00  0.00    +0.000 A 
ATOM     28  C   UNL     1      -0.137  10.677  19.323  0.00  0.00    +0.000 A 
ENDBRANCH  19  22
ENDBRANCH  13  14
ENDBRANCH   6  13
BRANCH  12  29
ATOM     29  C   UNL     1      10.147  14.185  21.810  0.00  0.00    +0.000 C 
BRANCH  29  30
ATOM     30  C   UNL     1      10.406  13.256  20.640  0.00  0.00    +0.000 A 
ATOM     31  C   UNL     1      10.252  11.867  20.760  0.00  0.00    +0.000 A 
ATOM     32  C   UNL     1      10.259  11.044  19.636  0.00  0.00    +0.000 A 
ATOM     33  C   UNL     1      10.411  11.604  18.375  0.00  0.00    +0.000 A 
ATOM     34  F   UNL     1      10.309  10.824  17.292  0.00  0.00    +0.000 F 
ATOM     35  C   UNL     1      10.622  12.966  18.225  0.00  0.00    +0.000 A 
ATOM     36  C   UNL     1      10.638  13.793  19.354  0.00  0.00    +0.000 A 
ENDBRANCH  29  30
ENDBRANCH  12  29
TORSDOF 5
ENDMDL
MODEL 5
REMARK VINA RESULT:      -7.5      2.929      4.095
REMARK  Name = 
REMARK  7 active torsions:
REMARK  status: ('A' for Active; 'I' for Inactive)
REMARK    1  A    between atoms: C_1  and  C_2
REMARK    2  A    between atoms: N_6  and  C_7
REMARK    3  A    between atoms: C_7  and  C_8
REMARK    4  A    between atoms: N_13  and  C_14
REMARK    5  A    between atoms: C_26  and  C_27
REMARK    6  A    between atoms: N_28  and  C_29
REMARK    7  A    between atoms: C_29  and  C_30
REMARK                            x       y       z     vdW  Elec       q    Type
REMARK                         _______ _______ _______ _____ _____    ______ ____
ROOT
ATOM      1  C   UNL     1       2.211   4.852  21.099  0.00  0.00    +0.000 C 
ATOM      2  C   UNL     1       2.347   5.835  19.984  0.00  0.00    +0.000 A 
ATOM      3  C   UNL     1       1.932   7.151  20.026  0.00  0.00    +0.000 A 
ATOM      4  C   UNL     1       1.252   7.847  21.072  0.00  0.00    +0.000 A 
ATOM      5  N   UNL     1       0.937   9.103  20.932  0.00  0.00    +0.000 NA
ATOM      6  N   UNL     1       1.289   9.777  19.759  0.00  0.00    +0.000 N 
ATOM      7  C   UNL     1       1.956   9.204  18.644  0.00  0.00    +0.000 A 
ATOM      8  O   UNL     1       2.206   9.817  17.612  0.00  0.00    +0.000 OA
ATOM      9  C   UNL     1       2.276   7.790  18.828  0.00  0.00    +0.000 A 
ATOM     10  C   UNL     1       2.876   6.842  18.019  0.00  0.00    +0.000 A 
ATOM     11  C   UNL     1       3.425   6.974  16.632  0.00  0.00    +0.000 C 
ATOM     12  N   UNL     1       2.908   5.634  18.724  0.00  0.00    +0.000 N 
ENDROOT
BRANCH   6  13
ATOM     13  C   UNL     1       0.880  11.176  19.722  0.00  0.00    +0.000 C 
BRANCH  13  14
ATOM     14  C   UNL     1      -0.641  11.380  19.717  0.00  0.00    +0.000 C 
ATOM     15  O   UNL     1      -1.399  10.783  18.952  0.00  0.00    +0.000 OA
ATOM     16  N   UNL     1      -1.145  12.241  20.691  0.00  0.00    +0.000 N 
ATOM     17  C   UNL     1      -2.599  12.325  20.847  0.00  0.00    +0.000 C 
ATOM     18  C   UNL     1      -2.978  12.529  22.315  0.00  0.00    +0.000 C 
ATOM     19  N   UNL     1      -2.289  13.716  22.825  0.00  0.00    +0.000 N 
ATOM     20  C   UNL     1      -0.825  13.739  22.674  0.00  0.00    +0.000 C 
ATOM     21  C   UNL     1      -0.422  13.404  21.224  0.00  0.00    +0.000 C 
BRANCH  19  22
ATOM     22  C   UNL     1      -2.986  14.716  23.476  0.00  0.00    +0.000 A 
ATOM     23  C   UNL     1      -2.573  15.167  24.744  0.00  0.00    +0.000 A 
ATOM     24  C   UNL     1      -3.288  16.142  25.432  0.00  0.00    +0.000 A 
ATOM     25  C   UNL     1      -4.433  16.665  24.847  0.00  0.00    +0.000 A 
ATOM     26  F   UNL     1      -5.132  17.597  25.507  0.00  0.00    +0.000 F 
ATOM     27  C   UNL     1      -4.869  16.247  23.608  0.00  0.00    +0.000 A 
ATOM     28  C   UNL     1      -4.139  15.274  22.923  0.00  0.00    +0.000 A 
ENDBRANCH  19  22
ENDBRANCH  13  14
ENDBRANCH   6  13
BRANCH  12  29
ATOM     29  C   UNL     1       3.381   4.365  18.141  0.00  0.00    +0.000 C 
BRANCH  29  30
ATOM     30  C   UNL     1       4.722   4.427  17.435  0.00  0.00    +0.000 A 
ATOM     31  C   UNL     1       4.884   3.942  16.129  0.00  0.00    +0.000 A 
ATOM     32  C   UNL     1       6.042   4.212  15.403  0.00  0.00    +0.000 A 
ATOM     33  C   UNL     1       7.049   4.978  15.973  0.00  0.00    +0.000 A 
ATOM     34  F   UNL     1       8.111   5.325  15.236  0.00  0.00    +0.000 F 
ATOM     35  C   UNL     1       6.945   5.425  17.282  0.00  0.00    +0.000 A 
ATOM     36  C   UNL     1       5.792   5.136  18.022  0.00  0.00    +0.000 A 
ENDBRANCH  29  30
ENDBRANCH  12  29
TORSDOF 5
ENDMDL
MODEL 6
REMARK VINA RESULT:      -7.5      2.519      3.167
REMARK  Name = 
REMARK  7 active torsions:
REMARK  status: ('A' for Active; 'I' for Inactive)
REMARK    1  A    between atoms: C_1  and  C_2
REMARK    2  A    between atoms: N_6  and  C_7
REMARK    3  A    between atoms: C_7  and  C_8
REMARK    4  A    between atoms: N_13  and  C_14
REMARK    5  A    between atoms: C_26  and  C_27
REMARK    6  A    between atoms: N_28  and  C_29
REMARK    7  A    between atoms: C_29  and  C_30
REMARK                            x       y       z     vdW  Elec       q    Type
REMARK                         _______ _______ _______ _____ _____    ______ ____
ROOT
ATOM      1  C   UNL     1       4.650   7.172  16.382  0.00  0.00    +0.000 C 
ATOM      2  C   UNL     1       3.900   6.891  17.642  0.00  0.00    +0.000 A 
ATOM      3  C   UNL     1       2.953   7.720  18.207  0.00  0.00    +0.000 A 
ATOM      4  C   UNL     1       2.518   9.012  17.780  0.00  0.00    +0.000 A 
ATOM      5  N   UNL     1       1.601   9.653  18.448  0.00  0.00    +0.000 NA
ATOM      6  N   UNL     1       1.025   9.060  19.574  0.00  0.00    +0.000 N 
ATOM      7  C   UNL     1       1.368   7.790  20.107  0.00  0.00    +0.000 A 
ATOM      8  O   UNL     1       0.873   7.323  21.127  0.00  0.00    +0.000 OA
ATOM      9  C   UNL     1       2.413   7.108  19.346  0.00  0.00    +0.000 A 
ATOM     10  C   UNL     1       3.069   5.901  19.508  0.00  0.00    +0.000 A 
ATOM     11  C   UNL     1       2.899   4.852  20.564  0.00  0.00    +0.000 C 
ATOM     12  N   UNL     1       3.994   5.772  18.467  0.00  0.00    +0.000 N 
ENDROOT
BRANCH   6  13
ATOM     13  C   UNL     1       0.013   9.877  20.234  0.00  0.00    +0.000 C 
BRANCH  13  14
ATOM     14  C   UNL     1       0.462  11.317  20.513  0.00  0.00    +0.000 C 
ATOM     15  O   UNL     1       1.546  11.770  20.142  0.00  0.00    +0.000 OA
ATOM     16  N   UNL     1      -0.466  12.132  21.160  0.00  0.00    +0.000 N 
ATOM     17  C   UNL     1      -0.159  13.559  21.283  0.00  0.00    +0.000 C 
ATOM     18  C   UNL     1      -1.432  14.401  21.174  0.00  0.00    +0.000 C 
ATOM     19  N   UNL     1      -2.393  13.944  22.179  0.00  0.00    +0.000 N 
ATOM     20  C   UNL     1      -2.732  12.512  22.160  0.00  0.00    +0.000 C 
ATOM     21  C   UNL     1      -1.454  11.650  22.136  0.00  0.00    +0.000 C 
BRANCH  19  22
ATOM     22  C   UNL     1      -2.994  14.840  23.044  0.00  0.00    +0.000 A 
ATOM     23  C   UNL     1      -2.541  14.967  24.372  0.00  0.00    +0.000 A 
ATOM     24  C   UNL     1      -3.163  15.831  25.267  0.00  0.00    +0.000 A 
ATOM     25  C   UNL     1      -4.254  16.569  24.831  0.00  0.00    +0.000 A 
ATOM     26  F   UNL     1      -4.863  17.397  25.689  0.00  0.00    +0.000 F 
ATOM     27  C   UNL     1      -4.726  16.470  23.539  0.00  0.00    +0.000 A 
ATOM     28  C   UNL     1      -4.090  15.607  22.647  0.00  0.00    +0.000 A 
ENDBRANCH  19  22
ENDBRANCH  13  14
ENDBRANCH   6  13
BRANCH  12  29
ATOM     29  C   UNL     1       4.955   4.658  18.368  0.00  0.00    +0.000 C 
BRANCH  29  30
ATOM     30  C   UNL     1       5.611   4.476  17.012  0.00  0.00    +0.000 A 
ATOM     31  C   UNL     1       4.882   4.032  15.900  0.00  0.00    +0.000 A 
ATOM     32  C   UNL     1       5.422   4.092  14.617  0.00  0.00    +0.000 A 
ATOM     33  C   UNL     1       6.697   4.606  14.432  0.00  0.00    +0.000 A 
ATOM     34  F   UNL     1       7.170   4.761  13.189  0.00  0.00    +0.000 F 
ATOM     35  C   UNL     1       7.467   5.001  15.515  0.00  0.00    +0.000 A 
ATOM     36  C   UNL     1       6.936   4.921  16.808  0.00  0.00    +0.000 A 
ENDBRANCH  29  30
ENDBRANCH  12  29
TORSDOF 5
ENDMDL
MODEL 7
REMARK VINA RESULT:      -7.4      4.589      6.321
REMARK  Name = 
REMARK  7 active torsions:
REMARK  status: ('A' for Active; 'I' for Inactive)
REMARK    1  A    between atoms: C_1  and  C_2
REMARK    2  A    between atoms: N_6  and  C_7
REMARK    3  A    between atoms: C_7  and  C_8
REMARK    4  A    between atoms: N_13  and  C_14
REMARK    5  A    between atoms: C_26  and  C_27
REMARK    6  A    between atoms: N_28  and  C_29
REMARK    7  A    between atoms: C_29  and  C_30
REMARK                            x       y       z     vdW  Elec       q    Type
REMARK                         _______ _______ _______ _____ _____    ______ ____
ROOT
ATOM      1  C   UNL     1       2.461   8.040  17.626  0.00  0.00    +0.000 C 
ATOM      2  C   UNL     1       1.909   8.633  18.879  0.00  0.00    +0.000 A 
ATOM      3  C   UNL     1       1.677   9.977  19.090  0.00  0.00    +0.000 A 
ATOM      4  C   UNL     1       1.947  11.083  18.227  0.00  0.00    +0.000 A 
ATOM      5  N   UNL     1       1.656  12.297  18.600  0.00  0.00    +0.000 NA
ATOM      6  N   UNL     1       1.054  12.512  19.843  0.00  0.00    +0.000 N 
ATOM      7  C   UNL     1       0.739  11.507  20.795  0.00  0.00    +0.000 A 
ATOM      8  O   UNL     1       0.254  11.740  21.896  0.00  0.00    +0.000 OA
ATOM      9  C   UNL     1       1.097  10.160  20.352  0.00  0.00    +0.000 A 
ATOM     10  C   UNL     1       1.009   8.914  20.944  0.00  0.00    +0.000 A 
ATOM     11  C   UNL     1       0.482   8.528  22.292  0.00  0.00    +0.000 C 
ATOM     12  N   UNL     1       1.521   7.974  20.044  0.00  0.00    +0.000 N 
ENDROOT
BRANCH   6  13
ATOM     13  C   UNL     1       0.779  13.912  20.145  0.00  0.00    +0.000 C 
BRANCH  13  14
ATOM     14  C   UNL     1       1.810  14.560  21.079  0.00  0.00    +0.000 C 
ATOM     15  O   UNL     1       1.620  14.722  22.285  0.00  0.00    +0.000 OA
ATOM     16  N   UNL     1       3.030  14.902  20.498  0.00  0.00    +0.000 N 
ATOM     17  C   UNL     1       4.109  15.352  21.381  0.00  0.00    +0.000 C 
ATOM     18  C   UNL     1       5.469  14.876  20.864  0.00  0.00    +0.000 C 
ATOM     19  N   UNL     1       5.642  15.337  19.485  0.00  0.00    +0.000 N 
ATOM     20  C   UNL     1       4.584  14.968  18.532  0.00  0.00    +0.000 C 
ATOM     21  C   UNL     1       3.194  15.322  19.098  0.00  0.00    +0.000 C 
BRANCH  19  22
ATOM     22  C   UNL     1       6.783  16.018  19.103  0.00  0.00    +0.000 A 
ATOM     23  C   UNL     1       7.606  15.516  18.076  0.00  0.00    +0.000 A 
ATOM     24  C   UNL     1       8.780  16.166  17.710  0.00  0.00    +0.000 A 
ATOM     25  C   UNL     1       9.137  17.326  18.383  0.00  0.00    +0.000 A 
ATOM     26  F   UNL     1      10.270  17.952  18.042  0.00  0.00    +0.000 F 
ATOM     27  C   UNL     1       8.357  17.847  19.394  0.00  0.00    +0.000 A 
ATOM     28  C   UNL     1       7.178  17.191  19.748  0.00  0.00    +0.000 A 
ENDBRANCH  19  22
ENDBRANCH  13  14
ENDBRANCH   6  13
BRANCH  12  29
ATOM     29  C   UNL     1       1.689   6.545  20.369  0.00  0.00    +0.000 C 
BRANCH  29  30
ATOM     30  C   UNL     1       2.487   5.734  19.367  0.00  0.00    +0.000 A 
ATOM     31  C   UNL     1       3.877   5.587  19.484  0.00  0.00    +0.000 A 
ATOM     32  C   UNL     1       4.568   4.658  18.709  0.00  0.00    +0.000 A 
ATOM     33  C   UNL     1       3.874   3.858  17.813  0.00  0.00    +0.000 A 
ATOM     34  F   UNL     1       4.526   2.895  17.149  0.00  0.00    +0.000 F 
ATOM     35  C   UNL     1       2.509   4.017  17.631  0.00  0.00    +0.000 A 
ATOM     36  C   UNL     1       1.815   4.965  18.392  0.00  0.00    +0.000 A 
ENDBRANCH  29  30
ENDBRANCH  12  29
TORSDOF 5
ENDMDL
MODEL 8
REMARK VINA RESULT:      -7.3      4.007     11.878
REMARK  Name = 
REMARK  7 active torsions:
REMARK  status: ('A' for Active; 'I' for Inactive)
REMARK    1  A    between atoms: C_1  and  C_2
REMARK    2  A    between atoms: N_6  and  C_7
REMARK    3  A    between atoms: C_7  and  C_8
REMARK    4  A    between atoms: N_13  and  C_14
REMARK    5  A    between atoms: C_26  and  C_27
REMARK    6  A    between atoms: N_28  and  C_29
REMARK    7  A    between atoms: C_29  and  C_30
REMARK                            x       y       z     vdW  Elec       q    Type
REMARK                         _______ _______ _______ _____ _____    ______ ____
ROOT
ATOM      1  C   UNL     1      -4.130  12.837  23.731  0.00  0.00    +0.000 C 
ATOM      2  C   UNL     1      -3.695  12.668  22.313  0.00  0.00    +0.000 A 
ATOM      3  C   UNL     1      -2.387  12.555  21.889  0.00  0.00    +0.000 A 
ATOM      4  C   UNL     1      -1.183  12.625  22.654  0.00  0.00    +0.000 A 
ATOM      5  N   UNL     1      -0.024  12.493  22.074  0.00  0.00    +0.000 NA
ATOM      6  N   UNL     1       0.037  12.259  20.697  0.00  0.00    +0.000 N 
ATOM      7  C   UNL     1      -1.078  12.175  19.822  0.00  0.00    +0.000 A 
ATOM      8  O   UNL     1      -0.982  12.015  18.611  0.00  0.00    +0.000 OA
ATOM      9  C   UNL     1      -2.360  12.346  20.503  0.00  0.00    +0.000 A 
ATOM     10  C   UNL     1      -3.671  12.373  20.062  0.00  0.00    +0.000 A 
ATOM     11  C   UNL     1      -4.220  12.216  18.677  0.00  0.00    +0.000 C 
ATOM     12  N   UNL     1      -4.493  12.585  21.174  0.00  0.00    +0.000 N 
ENDROOT
BRANCH   6  13
ATOM     13  C   UNL     1       1.389  12.131  20.167  0.00  0.00    +0.000 C 
BRANCH  13  14
ATOM     14  C   UNL     1       1.481  11.274  18.899  0.00  0.00    +0.000 C 
ATOM     15  O   UNL     1       1.533  11.750  17.764  0.00  0.00    +0.000 OA
ATOM     16  N   UNL     1       1.576   9.897  19.097  0.00  0.00    +0.000 N 
ATOM     17  C   UNL     1       1.851   9.052  17.933  0.00  0.00    +0.000 C 
ATOM     18  C   UNL     1       2.735   7.864  18.318  0.00  0.00    +0.000 C 
ATOM     19  N   UNL     1       2.093   7.127  19.408  0.00  0.00    +0.000 N 
ATOM     20  C   UNL     1       1.741   7.904  20.608  0.00  0.00    +0.000 C 
ATOM     21  C   UNL     1       0.961   9.177  20.222  0.00  0.00    +0.000 C 
BRANCH  19  22
ATOM     22  C   UNL     1       1.903   5.760  19.325  0.00  0.00    +0.000 A 
ATOM     23  C   UNL     1       2.015   5.096  18.088  0.00  0.00    +0.000 A 
ATOM     24  C   UNL     1       1.784   3.728  17.980  0.00  0.00    +0.000 A 
ATOM     25  C   UNL     1       1.432   3.020  19.120  0.00  0.00    +0.000 A 
ATOM     26  F   UNL     1       1.200   1.705  19.023  0.00  0.00    +0.000 F 
ATOM     27  C   UNL     1       1.312   3.637  20.348  0.00  0.00    +0.000 A 
ATOM     28  C   UNL     1       1.553   5.007  20.446  0.00  0.00    +0.000 A 
ENDBRANCH  19  22
ENDBRANCH  13  14
ENDBRANCH   6  13
BRANCH  12  29
ATOM     29  C   UNL     1      -5.952  12.779  21.079  0.00  0.00    +0.000 C 
BRANCH  29  30
ATOM     30  C   UNL     1      -6.408  14.196  20.785  0.00  0.00    +0.000 A 
ATOM     31  C   UNL     1      -5.911  15.290  21.509  0.00  0.00    +0.000 A 
ATOM     32  C   UNL     1      -6.147  16.596  21.086  0.00  0.00    +0.000 A 
ATOM     33  C   UNL     1      -6.875  16.823  19.928  0.00  0.00    +0.000 A 
ATOM     34  F   UNL     1      -7.008  18.073  19.467  0.00  0.00    +0.000 F 
ATOM     35  C   UNL     1      -7.429  15.767  19.219  0.00  0.00    +0.000 A 
ATOM     36  C   UNL     1      -7.213  14.454  19.654  0.00  0.00    +0.000 A 
ENDBRANCH  29  30
ENDBRANCH  12  29
TORSDOF 5
ENDMDL
MODEL 9
REMARK VINA RESULT:      -7.3      6.743     11.814
REMARK  Name = 
REMARK  7 active torsions:
REMARK  status: ('A' for Active; 'I' for Inactive)
REMARK    1  A    between atoms: C_1  and  C_2
REMARK    2  A    between atoms: N_6  and  C_7
REMARK    3  A    between atoms: C_7  and  C_8
REMARK    4  A    between atoms: N_13  and  C_14
REMARK    5  A    between atoms: C_26  and  C_27
REMARK    6  A    between atoms: N_28  and  C_29
REMARK    7  A    between atoms: C_29  and  C_30
REMARK                            x       y       z     vdW  Elec       q    Type
REMARK                         _______ _______ _______ _____ _____    ______ ____
ROOT
ATOM      1  C   UNL     1      -2.839  15.898  20.779  0.00  0.00    +0.000 C 
ATOM      2  C   UNL     1      -1.620  15.039  20.848  0.00  0.00    +0.000 A 
ATOM      3  C   UNL     1      -0.326  15.502  20.969  0.00  0.00    +0.000 A 
ATOM      4  C   UNL     1       0.150  16.848  20.998  0.00  0.00    +0.000 A 
ATOM      5  N   UNL     1       1.424  17.095  21.119  0.00  0.00    +0.000 NA
ATOM      6  N   UNL     1       2.324  16.034  21.245  0.00  0.00    +0.000 N 
ATOM      7  C   UNL     1       1.986  14.655  21.225  0.00  0.00    +0.000 A 
ATOM      8  O   UNL     1       2.812  13.751  21.291  0.00  0.00    +0.000 OA
ATOM      9  C   UNL     1       0.553  14.415  21.068  0.00  0.00    +0.000 A 
ATOM     10  C   UNL     1      -0.209  13.265  20.965  0.00  0.00    +0.000 A 
ATOM     11  C   UNL     1       0.215  11.829  20.995  0.00  0.00    +0.000 C 
ATOM     12  N   UNL     1      -1.546  13.648  20.816  0.00  0.00    +0.000 N 
ENDROOT
BRANCH   6  13
ATOM     13  C   UNL     1       3.719  16.440  21.373  0.00  0.00    +0.000 C 
BRANCH  13  14
ATOM     14  C   UNL     1       4.481  16.472  20.042  0.00  0.00    +0.000 C 
ATOM     15  O   UNL     1       4.106  17.122  19.065  0.00  0.00    +0.000 OA
ATOM     16  N   UNL     1       5.685  15.770  20.010  0.00  0.00    +0.000 N 
ATOM     17  C   UNL     1       6.537  15.921  18.828  0.00  0.00    +0.000 C 
ATOM     18  C   UNL     1       8.017  15.883  19.215  0.00  0.00    +0.000 C 
ATOM     19  N   UNL     1       8.286  14.643  19.947  0.00  0.00    +0.000 N 
ATOM     20  C   UNL     1       7.449  14.385  21.129  0.00  0.00    +0.000 C 
ATOM     21  C   UNL     1       5.955  14.550  20.785  0.00  0.00    +0.000 C 
BRANCH  19  22
ATOM     22  C   UNL     1       9.325  13.810  19.574  0.00  0.00    +0.000 A 
ATOM     23  C   UNL     1       9.375  13.265  18.277  0.00  0.00    +0.000 A 
ATOM     24  C   UNL     1      10.389  12.391  17.900  0.00  0.00    +0.000 A 
ATOM     25  C   UNL     1      11.358  12.054  18.834  0.00  0.00    +0.000 A 
ATOM     26  F   UNL     1      12.333  11.206  18.482  0.00  0.00    +0.000 F 
ATOM     27  C   UNL     1      11.342  12.567  20.114  0.00  0.00    +0.000 A 
ATOM     28  C   UNL     1      10.324  13.449  20.478  0.00  0.00    +0.000 A 
ENDBRANCH  19  22
ENDBRANCH  13  14
ENDBRANCH   6  13
BRANCH  12  29
ATOM     29  C   UNL     1      -2.642  12.692  20.569  0.00  0.00    +0.000 C 
BRANCH  29  30
ATOM     30  C   UNL     1      -3.720  12.643  21.634  0.00  0.00    +0.000 A 
ATOM     31  C   UNL     1      -3.400  12.586  22.999  0.00  0.00    +0.000 A 
ATOM     32  C   UNL     1      -4.377  12.778  23.973  0.00  0.00    +0.000 A 
ATOM     33  C   UNL     1      -5.686  13.039  23.593  0.00  0.00    +0.000 A 
ATOM     34  F   UNL     1      -6.598  13.328  24.529  0.00  0.00    +0.000 F 
ATOM     35  C   UNL     1      -6.048  13.045  22.254  0.00  0.00    +0.000 A 
ATOM     36  C   UNL     1      -5.073  12.830  21.273  0.00  0.00    +0.000 A 
ENDBRANCH  29  30
ENDBRANCH  12  29
TORSDOF 5
ENDMDL
