MODEL 1
REMARK VINA RESULT:      -7.3      0.000      0.000
REMARK  Name = 
REMARK  3 active torsions:
REMARK  status: ('A' for Active; 'I' for Inactive)
REMARK    1  A    between atoms: C_1  and  O_2
REMARK    2  A    between atoms: O_2  and  C_3
REMARK    3  A    between atoms: C_6  and  N_7
REMARK                            x       y       z     vdW  Elec       q    Type
REMARK                         _______ _______ _______ _____ _____    ______ ____
ROOT
ATOM      1  N   UNL     1       5.730   4.823  17.071  0.00  0.00    +0.000 N 
ATOM      2  C   UNL     1       4.554   4.273  17.661  0.00  0.00    +0.000 A 
ATOM      3  C   UNL     1       3.820   3.398  16.854  0.00  0.00    +0.000 A 
ATOM      4  C   UNL     1       2.588   2.927  17.286  0.00  0.00    +0.000 A 
ATOM      5  C   UNL     1       2.157   3.223  18.576  0.00  0.00    +0.000 A 
ATOM      6  C   UNL     1       0.944   2.711  19.064  0.00  0.00    +0.000 A 
ATOM      7  C   UNL     1       0.599   2.887  20.401  0.00  0.00    +0.000 A 
ATOM      8  C   UNL     1       1.450   3.599  21.234  0.00  0.00    +0.000 A 
ATOM      9  C   UNL     1       2.626   4.173  20.718  0.00  0.00    +0.000 A 
ATOM     10  C   UNL     1       3.002   4.004  19.388  0.00  0.00    +0.000 A 
ATOM     11  N   UNL     1       4.152   4.546  18.922  0.00  0.00    +0.000 NA
ATOM     12  H   UNL     1       5.562   4.945  16.081  0.00  0.00    +0.000 HD
ENDROOT
BRANCH   1  16
ATOM     13  C   UNL     1       8.205   8.005  18.401  0.00  0.00    +0.000 A 
ATOM     14  C   UNL     1       8.337   6.732  18.966  0.00  0.00    +0.000 A 
ATOM     15  C   UNL     1       7.542   5.666  18.523  0.00  0.00    +0.000 A 
ATOM     16  C   UNL     1       6.573   5.852  17.543  0.00  0.00    +0.000 A 
ATOM     17  C   UNL     1       6.490   7.124  16.951  0.00  0.00    +0.000 A 
ATOM     18  C   UNL     1       7.287   8.201  17.376  0.00  0.00    +0.000 A 
BRANCH  13  20
ATOM     19  C   UNL     1       8.930  10.270  18.427  0.00  0.00    +0.000 C 
ATOM     20  O   UNL     1       9.000   8.960  18.974  0.00  0.00    +0.000 OA
ENDBRANCH  13  20
ENDBRANCH   1  16
TORSDOF 2
ENDMDL
MODEL 2
REMARK VINA RESULT:      -7.2      0.105      1.103
REMARK  Name = 
REMARK  3 active torsions:
REMARK  status: ('A' for Active; 'I' for Inactive)
REMARK    1  A    between atoms: C_1  and  O_2
REMARK    2  A    between atoms: O_2  and  C_3
REMARK    3  A    between atoms: C_6  and  N_7
REMARK                            x       y       z     vdW  Elec       q    Type
REMARK                         _______ _______ _______ _____ _____    ______ ____
ROOT
ATOM      1  N   UNL     1       5.740   4.859  17.055  0.00  0.00    +0.000 N 
ATOM      2  C   UNL     1       4.569   4.301  17.646  0.00  0.00    +0.000 A 
ATOM      3  C   UNL     1       3.845   3.414  16.845  0.00  0.00    +0.000 A 
ATOM      4  C   UNL     1       2.617   2.932  17.278  0.00  0.00    +0.000 A 
ATOM      5  C   UNL     1       2.181   3.234  18.565  0.00  0.00    +0.000 A 
ATOM      6  C   UNL     1       0.972   2.713  19.055  0.00  0.00    +0.000 A 
ATOM      7  C   UNL     1       0.623   2.894  20.390  0.00  0.00    +0.000 A 
ATOM      8  C   UNL     1       1.467   3.620  21.220  0.00  0.00    +0.000 A 
ATOM      9  C   UNL     1       2.637   4.202  20.701  0.00  0.00    +0.000 A 
ATOM     10  C   UNL     1       3.017   4.028  19.373  0.00  0.00    +0.000 A 
ATOM     11  N   UNL     1       4.162   4.579  18.905  0.00  0.00    +0.000 NA
ATOM     12  H   UNL     1       5.572   4.973  16.063  0.00  0.00    +0.000 HD
ENDROOT
BRANCH   1  16
ATOM     13  C   UNL     1       8.294   7.902  18.551  0.00  0.00    +0.000 A 
ATOM     14  C   UNL     1       7.418   8.178  17.495  0.00  0.00    +0.000 A 
ATOM     15  C   UNL     1       6.553   7.191  17.004  0.00  0.00    +0.000 A 
ATOM     16  C   UNL     1       6.572   5.900  17.521  0.00  0.00    +0.000 A 
ATOM     17  C   UNL     1       7.420   5.654  18.614  0.00  0.00    +0.000 A 
ATOM     18  C   UNL     1       8.285   6.636  19.126  0.00  0.00    +0.000 A 
BRANCH  13  20
ATOM     19  C   UNL     1       8.796  10.218  18.357  0.00  0.00    +0.000 C 
ATOM     20  O   UNL     1       9.121   8.939  18.884  0.00  0.00    +0.000 OA
ENDBRANCH  13  20
ENDBRANCH   1  16
TORSDOF 2
ENDMDL
MODEL 3
REMARK VINA RESULT:      -7.0      5.033      5.871
REMARK  Name = 
REMARK  3 active torsions:
REMARK  status: ('A' for Active; 'I' for Inactive)
REMARK    1  A    between atoms: C_1  and  O_2
REMARK    2  A    between atoms: O_2  and  C_3
REMARK    3  A    between atoms: C_6  and  N_7
REMARK                            x       y       z     vdW  Elec       q    Type
REMARK                         _______ _______ _______ _____ _____    ______ ____
ROOT
ATOM      1  N   UNL     1       2.276   8.113  17.826  0.00  0.00    +0.000 N 
ATOM      2  C   UNL     1       1.493   8.812  18.791  0.00  0.00    +0.000 A 
ATOM      3  C   UNL     1       0.671   9.825  18.288  0.00  0.00    +0.000 A 
ATOM      4  C   UNL     1      -0.018  10.656  19.162  0.00  0.00    +0.000 A 
ATOM      5  C   UNL     1       0.013  10.386  20.528  0.00  0.00    +0.000 A 
ATOM      6  C   UNL     1      -0.722  11.170  21.432  0.00  0.00    +0.000 A 
ATOM      7  C   UNL     1      -0.806  10.799  22.770  0.00  0.00    +0.000 A 
ATOM      8  C   UNL     1      -0.132   9.666  23.205  0.00  0.00    +0.000 A 
ATOM      9  C   UNL     1       0.662   8.931  22.308  0.00  0.00    +0.000 A 
ATOM     10  C   UNL     1       0.756   9.271  20.961  0.00  0.00    +0.000 A 
ATOM     11  N   UNL     1       1.509   8.531  20.113  0.00  0.00    +0.000 NA
ATOM     12  H   UNL     1       2.531   8.761  17.092  0.00  0.00    +0.000 HD
ENDROOT
BRANCH   1  16
ATOM     13  C   UNL     1       5.472   5.361  18.308  0.00  0.00    +0.000 A 
ATOM     14  C   UNL     1       4.368   5.309  19.165  0.00  0.00    +0.000 A 
ATOM     15  C   UNL     1       3.295   6.196  19.006  0.00  0.00    +0.000 A 
ATOM     16  C   UNL     1       3.317   7.179  18.022  0.00  0.00    +0.000 A 
ATOM     17  C   UNL     1       4.409   7.184  17.138  0.00  0.00    +0.000 A 
ATOM     18  C   UNL     1       5.488   6.294  17.277  0.00  0.00    +0.000 A 
BRANCH  13  20
ATOM     19  C   UNL     1       7.684   4.592  17.889  0.00  0.00    +0.000 C 
ATOM     20  O   UNL     1       6.470   4.479  18.620  0.00  0.00    +0.000 OA
ENDBRANCH  13  20
ENDBRANCH   1  16
TORSDOF 2
ENDMDL
MODEL 4
REMARK VINA RESULT:      -7.0      5.215      6.572
REMARK  Name = 
REMARK  3 active torsions:
REMARK  status: ('A' for Active; 'I' for Inactive)
REMARK    1  A    between atoms: C_1  and  O_2
REMARK    2  A    between atoms: O_2  and  C_3
REMARK    3  A    between atoms: C_6  and  N_7
REMARK                            x       y       z     vdW  Elec       q    Type
REMARK                         _______ _______ _______ _____ _____    ______ ____
ROOT
ATOM      1  N   UNL     1       1.921   8.468  19.635  0.00  0.00    +0.000 N 
ATOM      2  C   UNL     1       2.076   7.066  19.425  0.00  0.00    +0.000 A 
ATOM      3  C   UNL     1       2.785   6.696  18.278  0.00  0.00    +0.000 A 
ATOM      4  C   UNL     1       2.862   5.359  17.913  0.00  0.00    +0.000 A 
ATOM      5  C   UNL     1       2.346   4.387  18.765  0.00  0.00    +0.000 A 
ATOM      6  C   UNL     1       2.463   3.023  18.454  0.00  0.00    +0.000 A 
ATOM      7  C   UNL     1       2.082   2.059  19.382  0.00  0.00    +0.000 A 
ATOM      8  C   UNL     1       1.558   2.462  20.603  0.00  0.00    +0.000 A 
ATOM      9  C   UNL     1       1.374   3.829  20.875  0.00  0.00    +0.000 A 
ATOM     10  C   UNL     1       1.757   4.815  19.970  0.00  0.00    +0.000 A 
ATOM     11  N   UNL     1       1.592   6.126  20.268  0.00  0.00    +0.000 NA
ATOM     12  H   UNL     1       1.846   8.918  18.731  0.00  0.00    +0.000 HD
ENDROOT
BRANCH   1  16
ATOM     13  C   UNL     1      -0.419  10.449  22.570  0.00  0.00    +0.000 A 
ATOM     14  C   UNL     1      -0.572  10.772  21.218  0.00  0.00    +0.000 A 
ATOM     15  C   UNL     1       0.177  10.112  20.235  0.00  0.00    +0.000 A 
ATOM     16  C   UNL     1       1.123   9.152  20.578  0.00  0.00    +0.000 A 
ATOM     17  C   UNL     1       1.227   8.803  21.935  0.00  0.00    +0.000 A 
ATOM     18  C   UNL     1       0.475   9.448  22.932  0.00  0.00    +0.000 A 
BRANCH  13  20
ATOM     19  C   UNL     1      -1.604  12.478  22.937  0.00  0.00    +0.000 C 
ATOM     20  O   UNL     1      -1.167  11.216  23.421  0.00  0.00    +0.000 OA
ENDBRANCH  13  20
ENDBRANCH   1  16
TORSDOF 2
ENDMDL
MODEL 5
REMARK VINA RESULT:      -6.9      5.022      5.916
REMARK  Name = 
REMARK  3 active torsions:
REMARK  status: ('A' for Active; 'I' for Inactive)
REMARK    1  A    between atoms: C_1  and  O_2
REMARK    2  A    between atoms: O_2  and  C_3
REMARK    3  A    between atoms: C_6  and  N_7
REMARK                            x       y       z     vdW  Elec       q    Type
REMARK                         _______ _______ _______ _____ _____    ______ ____
ROOT
ATOM      1  N   UNL     1       2.276   8.073  17.781  0.00  0.00    +0.000 N 
ATOM      2  C   UNL     1       1.493   8.776  18.744  0.00  0.00    +0.000 A 
ATOM      3  C   UNL     1       0.655   9.773  18.236  0.00  0.00    +0.000 A 
ATOM      4  C   UNL     1      -0.035  10.606  19.106  0.00  0.00    +0.000 A 
ATOM      5  C   UNL     1       0.011  10.354  20.474  0.00  0.00    +0.000 A 
ATOM      6  C   UNL     1      -0.725  11.141  21.375  0.00  0.00    +0.000 A 
ATOM      7  C   UNL     1      -0.793  10.786  22.718  0.00  0.00    +0.000 A 
ATOM      8  C   UNL     1      -0.103   9.666  23.161  0.00  0.00    +0.000 A 
ATOM      9  C   UNL     1       0.692   8.928  22.266  0.00  0.00    +0.000 A 
ATOM     10  C   UNL     1       0.771   9.253  20.915  0.00  0.00    +0.000 A 
ATOM     11  N   UNL     1       1.524   8.511  20.069  0.00  0.00    +0.000 NA
ATOM     12  H   UNL     1       2.517   8.715  17.037  0.00  0.00    +0.000 HD
ENDROOT
BRANCH   1  16
ATOM     13  C   UNL     1       5.374   5.259  18.487  0.00  0.00    +0.000 A 
ATOM     14  C   UNL     1       5.474   6.157  17.420  0.00  0.00    +0.000 A 
ATOM     15  C   UNL     1       4.470   7.107  17.186  0.00  0.00    +0.000 A 
ATOM     16  C   UNL     1       3.329   7.153  17.979  0.00  0.00    +0.000 A 
ATOM     17  C   UNL     1       3.269   6.278  19.077  0.00  0.00    +0.000 A 
ATOM     18  C   UNL     1       4.273   5.328  19.332  0.00  0.00    +0.000 A 
BRANCH  13  20
ATOM     19  C   UNL     1       7.569   4.639  17.810  0.00  0.00    +0.000 C 
ATOM     20  O   UNL     1       6.395   4.350  18.556  0.00  0.00    +0.000 OA
ENDBRANCH  13  20
ENDBRANCH   1  16
TORSDOF 2
ENDMDL
MODEL 6
REMARK VINA RESULT:      -6.9      5.253      6.496
REMARK  Name = 
REMARK  3 active torsions:
REMARK  status: ('A' for Active; 'I' for Inactive)
REMARK    1  A    between atoms: C_1  and  O_2
REMARK    2  A    between atoms: O_2  and  C_3
REMARK    3  A    between atoms: C_6  and  N_7
REMARK                            x       y       z     vdW  Elec       q    Type
REMARK                         _______ _______ _______ _____ _____    ______ ____
ROOT
ATOM      1  N   UNL     1       2.277   7.936  18.092  0.00  0.00    +0.000 N 
ATOM      2  C   UNL     1       1.553   8.807  18.959  0.00  0.00    +0.000 A 
ATOM      3  C   UNL     1       1.118  10.008  18.391  0.00  0.00    +0.000 A 
ATOM      4  C   UNL     1       0.533  10.980  19.191  0.00  0.00    +0.000 A 
ATOM      5  C   UNL     1       0.264  10.694  20.527  0.00  0.00    +0.000 A 
ATOM      6  C   UNL     1      -0.382  11.635  21.346  0.00  0.00    +0.000 A 
ATOM      7  C   UNL     1      -0.782  11.282  22.632  0.00  0.00    +0.000 A 
ATOM      8  C   UNL     1      -0.508  10.006  23.103  0.00  0.00    +0.000 A 
ATOM      9  C   UNL     1       0.206   9.097  22.302  0.00  0.00    +0.000 A 
ATOM     10  C   UNL     1       0.609   9.417  21.009  0.00  0.00    +0.000 A 
ATOM     11  N   UNL     1       1.274   8.515  20.249  0.00  0.00    +0.000 NA
ATOM     12  H   UNL     1       2.811   8.503  17.446  0.00  0.00    +0.000 HD
ENDROOT
BRANCH   1  16
ATOM     13  C   UNL     1       4.536   4.445  18.944  0.00  0.00    +0.000 A 
ATOM     14  C   UNL     1       3.205   4.537  19.363  0.00  0.00    +0.000 A 
ATOM     15  C   UNL     1       2.439   5.674  19.071  0.00  0.00    +0.000 A 
ATOM     16  C   UNL     1       2.992   6.757  18.397  0.00  0.00    +0.000 A 
ATOM     17  C   UNL     1       4.314   6.627  17.939  0.00  0.00    +0.000 A 
ATOM     18  C   UNL     1       5.092   5.489  18.213  0.00  0.00    +0.000 A 
BRANCH  13  20
ATOM     19  C   UNL     1       4.391   2.319  19.999  0.00  0.00    +0.000 C 
ATOM     20  O   UNL     1       5.179   3.308  19.353  0.00  0.00    +0.000 OA
ENDBRANCH  13  20
ENDBRANCH   1  16
TORSDOF 2
ENDMDL
MODEL 7
REMARK VINA RESULT:      -6.8      4.931      5.994
REMARK  Name = 
REMARK  3 active torsions:
REMARK  status: ('A' for Active; 'I' for Inactive)
REMARK    1  A    between atoms: C_1  and  O_2
REMARK    2  A    between atoms: O_2  and  C_3
REMARK    3  A    between atoms: C_6  and  N_7
REMARK                            x       y       z     vdW  Elec       q    Type
REMARK                         _______ _______ _______ _____ _____    ______ ____
ROOT
ATOM      1  N   UNL     1       2.812   8.083  18.196  0.00  0.00    +0.000 N 
ATOM      2  C   UNL     1       2.992   6.668  18.166  0.00  0.00    +0.000 A 
ATOM      3  C   UNL     1       4.098   6.210  17.445  0.00  0.00    +0.000 A 
ATOM      4  C   UNL     1       4.274   4.848  17.239  0.00  0.00    +0.000 A 
ATOM      5  C   UNL     1       3.419   3.946  17.866  0.00  0.00    +0.000 A 
ATOM      6  C   UNL     1       3.607   2.562  17.726  0.00  0.00    +0.000 A 
ATOM      7  C   UNL     1       2.845   1.673  18.478  0.00  0.00    +0.000 A 
ATOM      8  C   UNL     1       1.877   2.170  19.341  0.00  0.00    +0.000 A 
ATOM      9  C   UNL     1       1.644   3.555  19.417  0.00  0.00    +0.000 A 
ATOM     10  C   UNL     1       2.399   4.468  18.686  0.00  0.00    +0.000 A 
ATOM     11  N   UNL     1       2.171   5.798  18.796  0.00  0.00    +0.000 NA
ATOM     12  H   UNL     1       3.132   8.462  17.314  0.00  0.00    +0.000 HD
ENDROOT
BRANCH   1  16
ATOM     13  C   UNL     1      -0.441  10.316  19.760  0.00  0.00    +0.000 A 
ATOM     14  C   UNL     1      -0.200  10.302  18.383  0.00  0.00    +0.000 A 
ATOM     15  C   UNL     1       0.857   9.552  17.848  0.00  0.00    +0.000 A 
ATOM     16  C   UNL     1       1.719   8.839  18.673  0.00  0.00    +0.000 A 
ATOM     17  C   UNL     1       1.431   8.823  20.048  0.00  0.00    +0.000 A 
ATOM     18  C   UNL     1       0.369   9.560  20.599  0.00  0.00    +0.000 A 
BRANCH  13  20
ATOM     19  C   UNL     1      -2.167  11.820  19.115  0.00  0.00    +0.000 C 
ATOM     20  O   UNL     1      -1.464  11.139  20.145  0.00  0.00    +0.000 OA
ENDBRANCH  13  20
ENDBRANCH   1  16
TORSDOF 2
ENDMDL
MODEL 8
REMARK VINA RESULT:      -6.7      5.208      6.688
REMARK  Name = 
REMARK  3 active torsions:
REMARK  status: ('A' for Active; 'I' for Inactive)
REMARK    1  A    between atoms: C_1  and  O_2
REMARK    2  A    between atoms: O_2  and  C_3
REMARK    3  A    between atoms: C_6  and  N_7
REMARK                            x       y       z     vdW  Elec       q    Type
REMARK                         _______ _______ _______ _____ _____    ______ ____
ROOT
ATOM      1  N   UNL     1       2.424   7.716  17.981  0.00  0.00    +0.000 N 
ATOM      2  C   UNL     1       1.756   8.656  18.821  0.00  0.00    +0.000 A 
ATOM      3  C   UNL     1       1.609   9.943  18.298  0.00  0.00    +0.000 A 
ATOM      4  C   UNL     1       1.103  10.961  19.095  0.00  0.00    +0.000 A 
ATOM      5  C   UNL     1       0.623  10.658  20.366  0.00  0.00    +0.000 A 
ATOM      6  C   UNL     1       0.051  11.654  21.174  0.00  0.00    +0.000 A 
ATOM      7  C   UNL     1      -0.563  11.312  22.375  0.00  0.00    +0.000 A 
ATOM      8  C   UNL     1      -0.573   9.984  22.779  0.00  0.00    +0.000 A 
ATOM      9  C   UNL     1       0.070   9.005  22.000  0.00  0.00    +0.000 A 
ATOM     10  C   UNL     1       0.681   9.316  20.789  0.00  0.00    +0.000 A 
ATOM     11  N   UNL     1       1.272   8.350  20.045  0.00  0.00    +0.000 NA
ATOM     12  H   UNL     1       3.124   8.212  17.444  0.00  0.00    +0.000 HD
ENDROOT
BRANCH   1  16
ATOM     13  C   UNL     1       3.682   3.750  18.818  0.00  0.00    +0.000 A 
ATOM     14  C   UNL     1       4.499   4.831  19.165  0.00  0.00    +0.000 A 
ATOM     15  C   UNL     1       4.088   6.148  18.915  0.00  0.00    +0.000 A 
ATOM     16  C   UNL     1       2.881   6.414  18.277  0.00  0.00    +0.000 A 
ATOM     17  C   UNL     1       2.052   5.319  17.983  0.00  0.00    +0.000 A 
ATOM     18  C   UNL     1       2.443   3.993  18.237  0.00  0.00    +0.000 A 
BRANCH  13  20
ATOM     19  C   UNL     1       3.625   1.402  18.441  0.00  0.00    +0.000 C 
ATOM     20  O   UNL     1       4.237   2.523  19.063  0.00  0.00    +0.000 OA
ENDBRANCH  13  20
ENDBRANCH   1  16
TORSDOF 2
ENDMDL
MODEL 9
REMARK VINA RESULT:      -6.7      5.825      7.730
REMARK  Name = 
REMARK  3 active torsions:
REMARK  status: ('A' for Active; 'I' for Inactive)
REMARK    1  A    between atoms: C_1  and  O_2
REMARK    2  A    between atoms: O_2  and  C_3
REMARK    3  A    between atoms: C_6  and  N_7
REMARK                            x       y       z     vdW  Elec       q    Type
REMARK                         _______ _______ _______ _____ _____    ______ ____
ROOT
ATOM      1  N   UNL     1       1.830   7.199  21.173  0.00  0.00    +0.000 N 
ATOM      2  C   UNL     1       1.065   8.403  21.151  0.00  0.00    +0.000 A 
ATOM      3  C   UNL     1       1.077   9.154  22.330  0.00  0.00    +0.000 A 
ATOM      4  C   UNL     1       0.250  10.262  22.453  0.00  0.00    +0.000 A 
ATOM      5  C   UNL     1      -0.485  10.692  21.352  0.00  0.00    +0.000 A 
ATOM      6  C   UNL     1      -1.285  11.844  21.427  0.00  0.00    +0.000 A 
ATOM      7  C   UNL     1      -1.891  12.349  20.281  0.00  0.00    +0.000 A 
ATOM      8  C   UNL     1      -1.723  11.684  19.074  0.00  0.00    +0.000 A 
ATOM      9  C   UNL     1      -0.984  10.489  19.024  0.00  0.00    +0.000 A 
ATOM     10  C   UNL     1      -0.357   9.967  20.152  0.00  0.00    +0.000 A 
ATOM     11  N   UNL     1       0.371   8.827  20.072  0.00  0.00    +0.000 NA
ATOM     12  H   UNL     1       1.794   6.817  22.110  0.00  0.00    +0.000 HD
ENDROOT
BRANCH   1  16
ATOM     13  C   UNL     1       2.054   4.126  18.255  0.00  0.00    +0.000 A 
ATOM     14  C   UNL     1       1.351   3.911  19.445  0.00  0.00    +0.000 A 
ATOM     15  C   UNL     1       1.249   4.923  20.409  0.00  0.00    +0.000 A 
ATOM     16  C   UNL     1       1.879   6.150  20.230  0.00  0.00    +0.000 A 
ATOM     17  C   UNL     1       2.538   6.366  19.008  0.00  0.00    +0.000 A 
ATOM     18  C   UNL     1       2.639   5.365  18.026  0.00  0.00    +0.000 A 
BRANCH  13  20
ATOM     19  C   UNL     1       3.007   1.989  17.826  0.00  0.00    +0.000 C 
ATOM     20  O   UNL     1       2.124   3.031  17.436  0.00  0.00    +0.000 OA
ENDBRANCH  13  20
ENDBRANCH   1  16
TORSDOF 2
ENDMDL
