MODEL 1
REMARK VINA RESULT:      -6.3      0.000      0.000
REMARK  Name = 
REMARK  3 active torsions:
REMARK  status: ('A' for Active; 'I' for Inactive)
REMARK    1  A    between atoms: C_2  and  C_3
REMARK    2  A    between atoms: C_3  and  S_4
REMARK    3  A    between atoms: N_5  and  C_6
REMARK                            x       y       z     vdW  Elec       q    Type
REMARK                         _______ _______ _______ _____ _____    ______ ____
ROOT
ATOM      1  C   UNL     1       4.626   4.132  17.490  0.00  0.00    +0.000 C 
ATOM      2  C   UNL     1       3.845   5.310  18.091  0.00  0.00    +0.000 C 
ATOM      3  C   UNL     1       2.877   4.600  18.964  0.00  0.00    +0.000 A 
ATOM      4  C   UNL     1       2.037   5.168  19.921  0.00  0.00    +0.000 A 
ATOM      5  C   UNL     1       1.122   4.341  20.590  0.00  0.00    +0.000 A 
ATOM      6  C   UNL     1       1.045   2.971  20.278  0.00  0.00    +0.000 A 
ATOM      7  C   UNL     1       1.883   2.420  19.296  0.00  0.00    +0.000 A 
ATOM      8  C   UNL     1       2.802   3.254  18.656  0.00  0.00    +0.000 A 
ATOM      9  C   UNL     1       3.707   2.897  17.532  0.00  0.00    +0.000 C 
ENDROOT
BRANCH   1  12
ATOM     10  N   UNL     1       7.453   4.370  16.911  0.00  0.00    +0.000 NA
ATOM     11  C   UNL     1       6.612   4.510  15.947  0.00  0.00    +0.000 C 
ATOM     12  N   UNL     1       5.205   4.406  16.186  0.00  0.00    +0.000 N 
ATOM     13  H   UNL     1       8.469   4.440  16.769  0.00  0.00    +0.000 HD
ATOM     14  H   UNL     1       4.560   4.523  15.390  0.00  0.00    +0.000 HD
BRANCH  11  15
ATOM     15  C   UNL     1       7.111   4.791  14.553  0.00  0.00    +0.000 C 
BRANCH  15  16
ATOM     16  S   UNL     1       6.185   3.814  13.332  0.00  0.00    +0.000 S 
ATOM     17  H   UNL     1       5.161   4.776  13.231  0.00  0.00    +0.000 HD
ENDBRANCH  15  16
ENDBRANCH  11  15
ENDBRANCH   1  12
TORSDOF 3
ENDMDL
MODEL 2
REMARK VINA RESULT:      -6.0      1.193      1.445
REMARK  Name = 
REMARK  3 active torsions:
REMARK  status: ('A' for Active; 'I' for Inactive)
REMARK    1  A    between atoms: C_2  and  C_3
REMARK    2  A    between atoms: C_3  and  S_4
REMARK    3  A    between atoms: N_5  and  C_6
REMARK                            x       y       z     vdW  Elec       q    Type
REMARK                         _______ _______ _______ _____ _____    ______ ____
ROOT
ATOM      1  C   UNL     1       4.603   4.276  17.891  0.00  0.00    +0.000 C 
ATOM      2  C   UNL     1       3.139   4.114  17.454  0.00  0.00    +0.000 C 
ATOM      3  C   UNL     1       2.494   3.743  18.739  0.00  0.00    +0.000 A 
ATOM      4  C   UNL     1       1.126   3.667  18.999  0.00  0.00    +0.000 A 
ATOM      5  C   UNL     1       0.704   3.210  20.257  0.00  0.00    +0.000 A 
ATOM      6  C   UNL     1       1.650   2.816  21.222  0.00  0.00    +0.000 A 
ATOM      7  C   UNL     1       3.023   2.879  20.935  0.00  0.00    +0.000 A 
ATOM      8  C   UNL     1       3.424   3.356  19.686  0.00  0.00    +0.000 A 
ATOM      9  C   UNL     1       4.809   3.414  19.150  0.00  0.00    +0.000 C 
ENDROOT
BRANCH   1  12
ATOM     10  N   UNL     1       5.591   6.256  16.024  0.00  0.00    +0.000 NA
ATOM     11  C   UNL     1       6.032   5.050  15.935  0.00  0.00    +0.000 C 
ATOM     12  N   UNL     1       5.569   4.037  16.833  0.00  0.00    +0.000 N 
ATOM     13  H   UNL     1       5.905   7.004  15.393  0.00  0.00    +0.000 HD
ATOM     14  H   UNL     1       5.944   3.082  16.733  0.00  0.00    +0.000 HD
BRANCH  11  15
ATOM     15  C   UNL     1       7.043   4.699  14.874  0.00  0.00    +0.000 C 
BRANCH  15  16
ATOM     16  S   UNL     1       6.236   3.885  13.464  0.00  0.00    +0.000 S 
ATOM     17  H   UNL     1       5.128   4.754  13.503  0.00  0.00    +0.000 HD
ENDBRANCH  15  16
ENDBRANCH  11  15
ENDBRANCH   1  12
TORSDOF 3
ENDMDL
MODEL 3
REMARK VINA RESULT:      -6.0      2.549      2.752
REMARK  Name = 
REMARK  3 active torsions:
REMARK  status: ('A' for Active; 'I' for Inactive)
REMARK    1  A    between atoms: C_2  and  C_3
REMARK    2  A    between atoms: C_3  and  S_4
REMARK    3  A    between atoms: N_5  and  C_6
REMARK                            x       y       z     vdW  Elec       q    Type
REMARK                         _______ _______ _______ _____ _____    ______ ____
ROOT
ATOM      1  C   UNL     1       5.079   4.681  19.094  0.00  0.00    +0.000 C 
ATOM      2  C   UNL     1       3.865   5.313  19.793  0.00  0.00    +0.000 C 
ATOM      3  C   UNL     1       2.829   4.272  19.571  0.00  0.00    +0.000 A 
ATOM      4  C   UNL     1       1.568   4.205  20.161  0.00  0.00    +0.000 A 
ATOM      5  C   UNL     1       0.689   3.189  19.757  0.00  0.00    +0.000 A 
ATOM      6  C   UNL     1       1.073   2.275  18.759  0.00  0.00    +0.000 A 
ATOM      7  C   UNL     1       2.339   2.370  18.160  0.00  0.00    +0.000 A 
ATOM      8  C   UNL     1       3.208   3.375  18.591  0.00  0.00    +0.000 A 
ATOM      9  C   UNL     1       4.544   3.707  18.028  0.00  0.00    +0.000 C 
ENDROOT
BRANCH   1  12
ATOM     10  N   UNL     1       7.641   5.278  20.302  0.00  0.00    +0.000 NA
ATOM     11  C   UNL     1       7.306   5.902  19.227  0.00  0.00    +0.000 C 
ATOM     12  N   UNL     1       6.046   5.644  18.598  0.00  0.00    +0.000 N 
ATOM     13  H   UNL     1       8.539   5.443  20.775  0.00  0.00    +0.000 HD
ATOM     14  H   UNL     1       5.810   6.161  17.738  0.00  0.00    +0.000 HD
BRANCH  11  15
ATOM     15  C   UNL     1       8.243   6.917  18.626  0.00  0.00    +0.000 C 
BRANCH  15  16
ATOM     16  S   UNL     1       7.402   7.882  17.337  0.00  0.00    +0.000 S 
ATOM     17  H   UNL     1       6.451   8.397  18.240  0.00  0.00    +0.000 HD
ENDBRANCH  15  16
ENDBRANCH  11  15
ENDBRANCH   1  12
TORSDOF 3
ENDMDL
MODEL 4
REMARK VINA RESULT:      -5.9      3.485      5.623
REMARK  Name = 
REMARK  3 active torsions:
REMARK  status: ('A' for Active; 'I' for Inactive)
REMARK    1  A    between atoms: C_2  and  C_3
REMARK    2  A    between atoms: C_3  and  S_4
REMARK    3  A    between atoms: N_5  and  C_6
REMARK                            x       y       z     vdW  Elec       q    Type
REMARK                         _______ _______ _______ _____ _____    ______ ____
ROOT
ATOM      1  C   UNL     1       4.476   4.294  17.967  0.00  0.00    +0.000 C 
ATOM      2  C   UNL     1       4.456   5.656  17.257  0.00  0.00    +0.000 C 
ATOM      3  C   UNL     1       5.799   6.184  17.606  0.00  0.00    +0.000 A 
ATOM      4  C   UNL     1       6.424   7.307  17.068  0.00  0.00    +0.000 A 
ATOM      5  C   UNL     1       7.664   7.703  17.591  0.00  0.00    +0.000 A 
ATOM      6  C   UNL     1       8.247   6.987  18.653  0.00  0.00    +0.000 A 
ATOM      7  C   UNL     1       7.593   5.870  19.197  0.00  0.00    +0.000 A 
ATOM      8  C   UNL     1       6.370   5.479  18.649  0.00  0.00    +0.000 A 
ATOM      9  C   UNL     1       5.476   4.394  19.133  0.00  0.00    +0.000 C 
ENDROOT
BRANCH   1  12
ATOM     10  N   UNL     1       3.718   1.509  18.196  0.00  0.00    +0.000 NA
ATOM     11  C   UNL     1       2.835   2.410  18.447  0.00  0.00    +0.000 C 
ATOM     12  N   UNL     1       3.162   3.800  18.342  0.00  0.00    +0.000 N 
ATOM     13  H   UNL     1       3.512   0.503  18.263  0.00  0.00    +0.000 HD
ATOM     14  H   UNL     1       2.430   4.495  18.551  0.00  0.00    +0.000 HD
BRANCH  11  15
ATOM     15  C   UNL     1       1.442   2.003  18.852  0.00  0.00    +0.000 C 
BRANCH  15  16
ATOM     16  S   UNL     1       0.821   3.075  20.181  0.00  0.00    +0.000 S 
ATOM     17  H   UNL     1       1.183   4.252  19.500  0.00  0.00    +0.000 HD
ENDBRANCH  15  16
ENDBRANCH  11  15
ENDBRANCH   1  12
TORSDOF 3
ENDMDL
MODEL 5
REMARK VINA RESULT:      -5.8      0.958      1.207
REMARK  Name = 
REMARK  3 active torsions:
REMARK  status: ('A' for Active; 'I' for Inactive)
REMARK    1  A    between atoms: C_2  and  C_3
REMARK    2  A    between atoms: C_3  and  S_4
REMARK    3  A    between atoms: N_5  and  C_6
REMARK                            x       y       z     vdW  Elec       q    Type
REMARK                         _______ _______ _______ _____ _____    ______ ____
ROOT
ATOM      1  C   UNL     1       4.971   5.218  17.313  0.00  0.00    +0.000 C 
ATOM      2  C   UNL     1       4.134   6.453  17.684  0.00  0.00    +0.000 C 
ATOM      3  C   UNL     1       3.288   5.910  18.776  0.00  0.00    +0.000 A 
ATOM      4  C   UNL     1       2.467   6.635  19.639  0.00  0.00    +0.000 A 
ATOM      5  C   UNL     1       1.670   5.935  20.557  0.00  0.00    +0.000 A 
ATOM      6  C   UNL     1       1.687   4.528  20.582  0.00  0.00    +0.000 A 
ATOM      7  C   UNL     1       2.504   3.814  19.691  0.00  0.00    +0.000 A 
ATOM      8  C   UNL     1       3.306   4.529  18.800  0.00  0.00    +0.000 A 
ATOM      9  C   UNL     1       4.164   3.972  17.720  0.00  0.00    +0.000 C 
ENDROOT
BRANCH   1  12
ATOM     10  N   UNL     1       7.645   4.527  16.443  0.00  0.00    +0.000 NA
ATOM     11  C   UNL     1       6.773   4.854  15.555  0.00  0.00    +0.000 C 
ATOM     12  N   UNL     1       5.440   5.209  15.938  0.00  0.00    +0.000 N 
ATOM     13  H   UNL     1       8.609   4.269  16.197  0.00  0.00    +0.000 HD
ATOM     14  H   UNL     1       4.767   5.465  15.201  0.00  0.00    +0.000 HD
BRANCH  11  15
ATOM     15  C   UNL     1       7.156   4.870  14.098  0.00  0.00    +0.000 C 
BRANCH  15  16
ATOM     16  S   UNL     1       6.121   3.715  13.150  0.00  0.00    +0.000 S 
ATOM     17  H   UNL     1       5.755   4.700  12.212  0.00  0.00    +0.000 HD
ENDBRANCH  15  16
ENDBRANCH  11  15
ENDBRANCH   1  12
TORSDOF 3
ENDMDL
MODEL 6
REMARK VINA RESULT:      -5.8      2.478      2.970
REMARK  Name = 
REMARK  3 active torsions:
REMARK  status: ('A' for Active; 'I' for Inactive)
REMARK    1  A    between atoms: C_2  and  C_3
REMARK    2  A    between atoms: C_3  and  S_4
REMARK    3  A    between atoms: N_5  and  C_6
REMARK                            x       y       z     vdW  Elec       q    Type
REMARK                         _______ _______ _______ _____ _____    ______ ____
ROOT
ATOM      1  C   UNL     1       4.081   5.673  17.796  0.00  0.00    +0.000 C 
ATOM      2  C   UNL     1       3.973   4.207  17.346  0.00  0.00    +0.000 C 
ATOM      3  C   UNL     1       2.786   3.755  18.114  0.00  0.00    +0.000 A 
ATOM      4  C   UNL     1       2.090   2.558  17.954  0.00  0.00    +0.000 A 
ATOM      5  C   UNL     1       1.041   2.266  18.839  0.00  0.00    +0.000 A 
ATOM      6  C   UNL     1       0.720   3.159  19.878  0.00  0.00    +0.000 A 
ATOM      7  C   UNL     1       1.446   4.350  20.037  0.00  0.00    +0.000 A 
ATOM      8  C   UNL     1       2.472   4.634  19.134  0.00  0.00    +0.000 A 
ATOM      9  C   UNL     1       3.416   5.782  19.180  0.00  0.00    +0.000 C 
ENDROOT
BRANCH   1  12
ATOM     10  N   UNL     1       6.271   4.989  19.562  0.00  0.00    +0.000 NA
ATOM     11  C   UNL     1       6.480   5.845  18.623  0.00  0.00    +0.000 C 
ATOM     12  N   UNL     1       5.426   6.217  17.729  0.00  0.00    +0.000 N 
ATOM     13  H   UNL     1       7.009   4.703  20.218  0.00  0.00    +0.000 HD
ATOM     14  H   UNL     1       5.628   6.905  16.988  0.00  0.00    +0.000 HD
BRANCH  11  15
ATOM     15  C   UNL     1       7.844   6.464  18.463  0.00  0.00    +0.000 C 
BRANCH  15  16
ATOM     16  S   UNL     1       7.722   8.082  17.644  0.00  0.00    +0.000 S 
ATOM     17  H   UNL     1       7.353   8.738  18.835  0.00  0.00    +0.000 HD
ENDBRANCH  15  16
ENDBRANCH  11  15
ENDBRANCH   1  12
TORSDOF 3
ENDMDL
MODEL 7
REMARK VINA RESULT:      -5.7      1.114      1.195
REMARK  Name = 
REMARK  3 active torsions:
REMARK  status: ('A' for Active; 'I' for Inactive)
REMARK    1  A    between atoms: C_2  and  C_3
REMARK    2  A    between atoms: C_3  and  S_4
REMARK    3  A    between atoms: N_5  and  C_6
REMARK                            x       y       z     vdW  Elec       q    Type
REMARK                         _______ _______ _______ _____ _____    ______ ____
ROOT
ATOM      1  C   UNL     1       4.485   4.821  18.154  0.00  0.00    +0.000 C 
ATOM      2  C   UNL     1       2.962   4.989  18.037  0.00  0.00    +0.000 C 
ATOM      3  C   UNL     1       2.497   4.251  19.239  0.00  0.00    +0.000 A 
ATOM      4  C   UNL     1       1.207   4.237  19.766  0.00  0.00    +0.000 A 
ATOM      5  C   UNL     1       0.937   3.405  20.863  0.00  0.00    +0.000 A 
ATOM      6  C   UNL     1       1.949   2.587  21.398  0.00  0.00    +0.000 A 
ATOM      7  C   UNL     1       3.238   2.598  20.840  0.00  0.00    +0.000 A 
ATOM      8  C   UNL     1       3.493   3.449  19.763  0.00  0.00    +0.000 A 
ATOM      9  C   UNL     1       4.748   3.544  18.973  0.00  0.00    +0.000 C 
ENDROOT
BRANCH   1  12
ATOM     10  N   UNL     1       7.324   4.398  17.772  0.00  0.00    +0.000 NA
ATOM     11  C   UNL     1       6.595   4.655  16.742  0.00  0.00    +0.000 C 
ATOM     12  N   UNL     1       5.188   4.876  16.883  0.00  0.00    +0.000 N 
ATOM     13  H   UNL     1       8.336   4.236  17.701  0.00  0.00    +0.000 HD
ATOM     14  H   UNL     1       4.634   5.079  16.038  0.00  0.00    +0.000 HD
BRANCH  11  15
ATOM     15  C   UNL     1       7.226   4.728  15.376  0.00  0.00    +0.000 C 
BRANCH  15  16
ATOM     16  S   UNL     1       6.115   4.031  14.118  0.00  0.00    +0.000 S 
ATOM     17  H   UNL     1       5.872   5.288  13.532  0.00  0.00    +0.000 HD
ENDBRANCH  15  16
ENDBRANCH  11  15
ENDBRANCH   1  12
TORSDOF 3
ENDMDL
MODEL 8
REMARK VINA RESULT:      -5.7      2.468      3.010
REMARK  Name = 
REMARK  3 active torsions:
REMARK  status: ('A' for Active; 'I' for Inactive)
REMARK    1  A    between atoms: C_2  and  C_3
REMARK    2  A    between atoms: C_3  and  S_4
REMARK    3  A    between atoms: N_5  and  C_6
REMARK                            x       y       z     vdW  Elec       q    Type
REMARK                         _______ _______ _______ _____ _____    ______ ____
ROOT
ATOM      1  C   UNL     1       4.271   5.470  18.306  0.00  0.00    +0.000 C 
ATOM      2  C   UNL     1       4.068   4.055  17.743  0.00  0.00    +0.000 C 
ATOM      3  C   UNL     1       2.789   3.667  18.389  0.00  0.00    +0.000 A 
ATOM      4  C   UNL     1       2.003   2.554  18.092  0.00  0.00    +0.000 A 
ATOM      5  C   UNL     1       0.866   2.304  18.875  0.00  0.00    +0.000 A 
ATOM      6  C   UNL     1       0.547   3.153  19.951  0.00  0.00    +0.000 A 
ATOM      7  C   UNL     1       1.361   4.257  20.249  0.00  0.00    +0.000 A 
ATOM      8  C   UNL     1       2.476   4.501  19.445  0.00  0.00    +0.000 A 
ATOM      9  C   UNL     1       3.512   5.549  19.643  0.00  0.00    +0.000 C 
ENDROOT
BRANCH   1  12
ATOM     10  N   UNL     1       5.706   6.921  16.252  0.00  0.00    +0.000 NA
ATOM     11  C   UNL     1       6.327   6.610  17.336  0.00  0.00    +0.000 C 
ATOM     12  N   UNL     1       5.660   5.888  18.376  0.00  0.00    +0.000 N 
ATOM     13  H   UNL     1       6.159   7.439  15.488  0.00  0.00    +0.000 HD
ATOM     14  H   UNL     1       6.187   5.656  19.231  0.00  0.00    +0.000 HD
BRANCH  11  15
ATOM     15  C   UNL     1       7.771   7.004  17.512  0.00  0.00    +0.000 C 
BRANCH  15  16
ATOM     16  S   UNL     1       7.920   8.797  17.763  0.00  0.00    +0.000 S 
ATOM     17  H   UNL     1       7.456   9.091  16.466  0.00  0.00    +0.000 HD
ENDBRANCH  15  16
ENDBRANCH  11  15
ENDBRANCH   1  12
TORSDOF 3
ENDMDL
MODEL 9
REMARK VINA RESULT:      -5.7      2.543      2.585
REMARK  Name = 
REMARK  3 active torsions:
REMARK  status: ('A' for Active; 'I' for Inactive)
REMARK    1  A    between atoms: C_2  and  C_3
REMARK    2  A    between atoms: C_3  and  S_4
REMARK    3  A    between atoms: N_5  and  C_6
REMARK                            x       y       z     vdW  Elec       q    Type
REMARK                         _______ _______ _______ _____ _____    ______ ____
ROOT
ATOM      1  C   UNL     1       4.793   5.032  18.286  0.00  0.00    +0.000 C 
ATOM      2  C   UNL     1       3.920   5.620  19.405  0.00  0.00    +0.000 C 
ATOM      3  C   UNL     1       2.835   4.610  19.485  0.00  0.00    +0.000 A 
ATOM      4  C   UNL     1       1.854   4.511  20.471  0.00  0.00    +0.000 A 
ATOM      5  C   UNL     1       0.853   3.538  20.329  0.00  0.00    +0.000 A 
ATOM      6  C   UNL     1       0.835   2.699  19.199  0.00  0.00    +0.000 A 
ATOM      7  C   UNL     1       1.818   2.828  18.205  0.00  0.00    +0.000 A 
ATOM      8  C   UNL     1       2.818   3.787  18.375  0.00  0.00    +0.000 A 
ATOM      9  C   UNL     1       3.888   4.148  17.408  0.00  0.00    +0.000 C 
ENDROOT
BRANCH   1  12
ATOM     10  N   UNL     1       7.487   5.885  18.918  0.00  0.00    +0.000 NA
ATOM     11  C   UNL     1       6.897   6.407  17.899  0.00  0.00    +0.000 C 
ATOM     12  N   UNL     1       5.564   6.020  17.552  0.00  0.00    +0.000 N 
ATOM     13  H   UNL     1       8.444   6.144  19.191  0.00  0.00    +0.000 HD
ATOM     14  H   UNL     1       5.123   6.458  16.730  0.00  0.00    +0.000 HD
BRANCH  11  15
ATOM     15  C   UNL     1       7.613   7.439  17.066  0.00  0.00    +0.000 C 
BRANCH  15  16
ATOM     16  S   UNL     1       8.156   8.832  18.098  0.00  0.00    +0.000 S 
ATOM     17  H   UNL     1       8.053   9.752  17.037  0.00  0.00    +0.000 HD
ENDBRANCH  15  16
ENDBRANCH  11  15
ENDBRANCH   1  12
TORSDOF 3
ENDMDL
