MODEL 1
REMARK VINA RESULT:      -8.7      0.000      0.000
REMARK  Name = 
REMARK  6 active torsions:
REMARK  status: ('A' for Active; 'I' for Inactive)
REMARK    1  A    between atoms: C_1  and  C_9
REMARK    2  A    between atoms: C_2  and  C_3
REMARK    3  A    between atoms: C_9  and  N_10
REMARK    4  A    between atoms: N_10  and  C_11
REMARK    5  A    between atoms: N_14  and  C_15
REMARK    6  A    between atoms: C_15  and  C_16
REMARK                            x       y       z     vdW  Elec       q    Type
REMARK                         _______ _______ _______ _____ _____    ______ ____
ROOT
ATOM      1  C   UNL     1       7.662   5.677  17.406  0.00  0.00    +0.000 C 
ATOM      2  C   UNL     1       7.118   4.508  16.585  0.00  0.00    +0.000 C 
ATOM      3  C   UNL     1       5.596   4.537  16.474  0.00  0.00    +0.000 C 
ATOM      4  N   UNL     1       4.860   4.666  17.733  0.00  0.00    +0.000 NA
ATOM      5  C   UNL     1       5.449   5.543  18.740  0.00  0.00    +0.000 C 
ATOM      6  C   UNL     1       6.973   5.588  18.782  0.00  0.00    +0.000 C 
ENDROOT
BRANCH   1   7
ATOM      7  N   UNL     1       7.554   7.013  16.763  0.00  0.00    +0.000 NA
ATOM      8  H   UNL     1       6.810   6.985  16.061  0.00  0.00    +0.000 HD
BRANCH   7   9
ATOM      9  C   UNL     1       7.267   8.096  17.710  0.00  0.00    +0.000 C 
BRANCH   9  10
ATOM     10  C   UNL     1       8.275   9.234  17.801  0.00  0.00    +0.000 C 
ATOM     11  C   UNL     1       8.913   9.677  18.896  0.00  0.00    +0.000 C 
BRANCH  11  12
ATOM     12  C   UNL     1       9.861  10.819  19.047  0.00  0.00    +0.000 A 
ATOM     13  C   UNL     1      10.229  11.417  20.265  0.00  0.00    +0.000 A 
ATOM     14  C   UNL     1      11.186  12.450  20.302  0.00  0.00    +0.000 A 
ATOM     15  C   UNL     1      11.785  12.904  19.129  0.00  0.00    +0.000 A 
ATOM     16  C   UNL     1      11.417  12.341  17.915  0.00  0.00    +0.000 A 
ATOM     17  C   UNL     1      10.468  11.312  17.879  0.00  0.00    +0.000 A 
ENDBRANCH  11  12
ENDBRANCH   9  10
ENDBRANCH   7   9
ENDBRANCH   1   7
BRANCH   4  18
ATOM     18  C   UNL     1       3.422   4.965  17.522  0.00  0.00    +0.000 C 
BRANCH  18  19
ATOM     19  C   UNL     1       2.429   4.280  18.454  0.00  0.00    +0.000 A 
ATOM     20  C   UNL     1       1.845   3.054  18.092  0.00  0.00    +0.000 A 
ATOM     21  C   UNL     1       0.898   2.436  18.911  0.00  0.00    +0.000 A 
ATOM     22  C   UNL     1       0.543   3.016  20.124  0.00  0.00    +0.000 A 
ATOM     23  C   UNL     1       1.127   4.220  20.512  0.00  0.00    +0.000 A 
ATOM     24  C   UNL     1       2.061   4.850  19.684  0.00  0.00    +0.000 A 
ENDBRANCH  18  19
ENDBRANCH   4  18
TORSDOF 6
ENDMDL
MODEL 2
REMARK VINA RESULT:      -8.7      0.709      1.277
REMARK  Name = 
REMARK  6 active torsions:
REMARK  status: ('A' for Active; 'I' for Inactive)
REMARK    1  A    between atoms: C_1  and  C_9
REMARK    2  A    between atoms: C_2  and  C_3
REMARK    3  A    between atoms: C_9  and  N_10
REMARK    4  A    between atoms: N_10  and  C_11
REMARK    5  A    between atoms: N_14  and  C_15
REMARK    6  A    between atoms: C_15  and  C_16
REMARK                            x       y       z     vdW  Elec       q    Type
REMARK                         _______ _______ _______ _____ _____    ______ ____
ROOT
ATOM      1  C   UNL     1       7.431   5.216  16.377  0.00  0.00    +0.000 C 
ATOM      2  C   UNL     1       6.364   4.740  15.390  0.00  0.00    +0.000 C 
ATOM      3  C   UNL     1       4.954   5.106  15.841  0.00  0.00    +0.000 C 
ATOM      4  N   UNL     1       4.594   4.725  17.208  0.00  0.00    +0.000 NA
ATOM      5  C   UNL     1       5.644   4.853  18.214  0.00  0.00    +0.000 C 
ATOM      6  C   UNL     1       7.068   4.583  17.734  0.00  0.00    +0.000 C 
ENDROOT
BRANCH   1   7
ATOM      7  N   UNL     1       7.636   6.687  16.433  0.00  0.00    +0.000 NA
ATOM      8  H   UNL     1       7.086   7.128  15.692  0.00  0.00    +0.000 HD
BRANCH   7   9
ATOM      9  C   UNL     1       7.255   7.282  17.719  0.00  0.00    +0.000 C 
BRANCH   9  10
ATOM     10  C   UNL     1       8.229   8.266  18.353  0.00  0.00    +0.000 C 
ATOM     11  C   UNL     1       8.427   9.552  18.021  0.00  0.00    +0.000 C 
BRANCH  11  12
ATOM     12  C   UNL     1       9.404  10.536  18.570  0.00  0.00    +0.000 A 
ATOM     13  C   UNL     1      10.267  11.340  17.806  0.00  0.00    +0.000 A 
ATOM     14  C   UNL     1      11.108  12.287  18.423  0.00  0.00    +0.000 A 
ATOM     15  C   UNL     1      11.104  12.442  19.808  0.00  0.00    +0.000 A 
ATOM     16  C   UNL     1      10.275  11.641  20.580  0.00  0.00    +0.000 A 
ATOM     17  C   UNL     1       9.438  10.702  19.966  0.00  0.00    +0.000 A 
ENDBRANCH  11  12
ENDBRANCH   9  10
ENDBRANCH   7   9
ENDBRANCH   1   7
BRANCH   4  18
ATOM     18  C   UNL     1       3.327   5.354  17.659  0.00  0.00    +0.000 C 
BRANCH  18  19
ATOM     19  C   UNL     1       2.437   4.530  18.582  0.00  0.00    +0.000 A 
ATOM     20  C   UNL     1       1.793   3.377  18.104  0.00  0.00    +0.000 A 
ATOM     21  C   UNL     1       0.935   2.637  18.920  0.00  0.00    +0.000 A 
ATOM     22  C   UNL     1       0.733   3.019  20.243  0.00  0.00    +0.000 A 
ATOM     23  C   UNL     1       1.380   4.147  20.744  0.00  0.00    +0.000 A 
ATOM     24  C   UNL     1       2.224   4.900  19.920  0.00  0.00    +0.000 A 
ENDBRANCH  18  19
ENDBRANCH   4  18
TORSDOF 6
ENDMDL
MODEL 3
REMARK VINA RESULT:      -8.5      1.493      1.986
REMARK  Name = 
REMARK  6 active torsions:
REMARK  status: ('A' for Active; 'I' for Inactive)
REMARK    1  A    between atoms: C_1  and  C_9
REMARK    2  A    between atoms: C_2  and  C_3
REMARK    3  A    between atoms: C_9  and  N_10
REMARK    4  A    between atoms: N_10  and  C_11
REMARK    5  A    between atoms: N_14  and  C_15
REMARK    6  A    between atoms: C_15  and  C_16
REMARK                            x       y       z     vdW  Elec       q    Type
REMARK                         _______ _______ _______ _____ _____    ______ ____
ROOT
ATOM      1  C   UNL     1       6.239   6.419  16.582  0.00  0.00    +0.000 C 
ATOM      2  C   UNL     1       5.013   6.639  17.469  0.00  0.00    +0.000 C 
ATOM      3  C   UNL     1       4.477   5.335  18.050  0.00  0.00    +0.000 C 
ATOM      4  N   UNL     1       4.229   4.256  17.092  0.00  0.00    +0.000 NA
ATOM      5  C   UNL     1       5.188   4.127  16.000  0.00  0.00    +0.000 C 
ATOM      6  C   UNL     1       5.799   5.428  15.487  0.00  0.00    +0.000 C 
ENDROOT
BRANCH   1   7
ATOM      7  N   UNL     1       7.479   6.017  17.296  0.00  0.00    +0.000 NA
ATOM      8  H   UNL     1       8.255   5.998  16.630  0.00  0.00    +0.000 HD
BRANCH   7   9
ATOM      9  C   UNL     1       7.832   6.913  18.404  0.00  0.00    +0.000 C 
BRANCH   9  10
ATOM     10  C   UNL     1       8.312   8.314  18.046  0.00  0.00    +0.000 C 
ATOM     11  C   UNL     1       8.831   9.237  18.871  0.00  0.00    +0.000 C 
BRANCH  11  12
ATOM     12  C   UNL     1       9.261  10.636  18.582  0.00  0.00    +0.000 A 
ATOM     13  C   UNL     1      10.493  11.202  18.950  0.00  0.00    +0.000 A 
ATOM     14  C   UNL     1      10.827  12.517  18.569  0.00  0.00    +0.000 A 
ATOM     15  C   UNL     1       9.937  13.285  17.822  0.00  0.00    +0.000 A 
ATOM     16  C   UNL     1       8.706  12.751  17.470  0.00  0.00    +0.000 A 
ATOM     17  C   UNL     1       8.377  11.443  17.846  0.00  0.00    +0.000 A 
ENDBRANCH  11  12
ENDBRANCH   9  10
ENDBRANCH   7   9
ENDBRANCH   1   7
BRANCH   4  18
ATOM     18  C   UNL     1       3.981   2.952  17.757  0.00  0.00    +0.000 C 
BRANCH  18  19
ATOM     19  C   UNL     1       3.050   2.959  18.965  0.00  0.00    +0.000 A 
ATOM     20  C   UNL     1       1.677   3.212  18.801  0.00  0.00    +0.000 A 
ATOM     21  C   UNL     1       0.818   3.271  19.900  0.00  0.00    +0.000 A 
ATOM     22  C   UNL     1       1.310   3.042  21.180  0.00  0.00    +0.000 A 
ATOM     23  C   UNL     1       2.664   2.767  21.362  0.00  0.00    +0.000 A 
ATOM     24  C   UNL     1       3.529   2.728  20.264  0.00  0.00    +0.000 A 
ENDBRANCH  18  19
ENDBRANCH   4  18
TORSDOF 6
ENDMDL
MODEL 4
REMARK VINA RESULT:      -8.4      0.534      1.135
REMARK  Name = 
REMARK  6 active torsions:
REMARK  status: ('A' for Active; 'I' for Inactive)
REMARK    1  A    between atoms: C_1  and  C_9
REMARK    2  A    between atoms: C_2  and  C_3
REMARK    3  A    between atoms: C_9  and  N_10
REMARK    4  A    between atoms: N_10  and  C_11
REMARK    5  A    between atoms: N_14  and  C_15
REMARK    6  A    between atoms: C_15  and  C_16
REMARK                            x       y       z     vdW  Elec       q    Type
REMARK                         _______ _______ _______ _____ _____    ______ ____
ROOT
ATOM      1  C   UNL     1       7.785   5.718  17.723  0.00  0.00    +0.000 C 
ATOM      2  C   UNL     1       7.462   4.398  17.022  0.00  0.00    +0.000 C 
ATOM      3  C   UNL     1       5.977   4.260  16.704  0.00  0.00    +0.000 C 
ATOM      4  N   UNL     1       5.055   4.488  17.818  0.00  0.00    +0.000 NA
ATOM      5  C   UNL     1       5.417   5.551  18.751  0.00  0.00    +0.000 C 
ATOM      6  C   UNL     1       6.910   5.753  18.990  0.00  0.00    +0.000 C 
ENDROOT
BRANCH   1   7
ATOM      7  N   UNL     1       7.669   6.934  16.876  0.00  0.00    +0.000 NA
ATOM      8  H   UNL     1       6.973   6.765  16.145  0.00  0.00    +0.000 HD
BRANCH   7   9
ATOM      9  C   UNL     1       7.281   8.134  17.626  0.00  0.00    +0.000 C 
BRANCH   9  10
ATOM     10  C   UNL     1       8.400   9.003  18.187  0.00  0.00    +0.000 C 
ATOM     11  C   UNL     1       8.639  10.298  17.926  0.00  0.00    +0.000 C 
BRANCH  11  12
ATOM     12  C   UNL     1       9.749  11.174  18.402  0.00  0.00    +0.000 A 
ATOM     13  C   UNL     1      10.461  11.007  19.602  0.00  0.00    +0.000 A 
ATOM     14  C   UNL     1      11.539  11.854  19.927  0.00  0.00    +0.000 A 
ATOM     15  C   UNL     1      11.918  12.880  19.064  0.00  0.00    +0.000 A 
ATOM     16  C   UNL     1      11.213  13.074  17.886  0.00  0.00    +0.000 A 
ATOM     17  C   UNL     1      10.143  12.230  17.562  0.00  0.00    +0.000 A 
ENDBRANCH  11  12
ENDBRANCH   9  10
ENDBRANCH   7   9
ENDBRANCH   1   7
BRANCH   4  18
ATOM     18  C   UNL     1       3.644   4.611  17.372  0.00  0.00    +0.000 C 
BRANCH  18  19
ATOM     19  C   UNL     1       2.576   4.033  18.293  0.00  0.00    +0.000 A 
ATOM     20  C   UNL     1       2.118   4.769  19.398  0.00  0.00    +0.000 A 
ATOM     21  C   UNL     1       1.176   4.236  20.281  0.00  0.00    +0.000 A 
ATOM     22  C   UNL     1       0.648   2.970  20.053  0.00  0.00    +0.000 A 
ATOM     23  C   UNL     1       1.072   2.232  18.949  0.00  0.00    +0.000 A 
ATOM     24  C   UNL     1       2.031   2.757  18.076  0.00  0.00    +0.000 A 
ENDBRANCH  18  19
ENDBRANCH   4  18
TORSDOF 6
ENDMDL
MODEL 5
REMARK VINA RESULT:      -8.3      0.415      1.471
REMARK  Name = 
REMARK  6 active torsions:
REMARK  status: ('A' for Active; 'I' for Inactive)
REMARK    1  A    between atoms: C_1  and  C_9
REMARK    2  A    between atoms: C_2  and  C_3
REMARK    3  A    between atoms: C_9  and  N_10
REMARK    4  A    between atoms: N_10  and  C_11
REMARK    5  A    between atoms: N_14  and  C_15
REMARK    6  A    between atoms: C_15  and  C_16
REMARK                            x       y       z     vdW  Elec       q    Type
REMARK                         _______ _______ _______ _____ _____    ______ ____
ROOT
ATOM      1  C   UNL     1       7.745   5.681  17.582  0.00  0.00    +0.000 C 
ATOM      2  C   UNL     1       7.316   4.420  16.832  0.00  0.00    +0.000 C 
ATOM      3  C   UNL     1       5.810   4.373  16.592  0.00  0.00    +0.000 C 
ATOM      4  N   UNL     1       4.963   4.584  17.767  0.00  0.00    +0.000 NA
ATOM      5  C   UNL     1       5.430   5.574  18.733  0.00  0.00    +0.000 C 
ATOM      6  C   UNL     1       6.942   5.688  18.898  0.00  0.00    +0.000 C 
ENDROOT
BRANCH   1   7
ATOM      7  N   UNL     1       7.647   6.947  16.809  0.00  0.00    +0.000 NA
ATOM      8  H   UNL     1       7.085   6.782  15.970  0.00  0.00    +0.000 HD
BRANCH   7   9
ATOM      9  C   UNL     1       7.045   8.050  17.568  0.00  0.00    +0.000 C 
BRANCH   9  10
ATOM     10  C   UNL     1       7.927   9.254  17.873  0.00  0.00    +0.000 C 
ATOM     11  C   UNL     1       8.866   9.361  18.826  0.00  0.00    +0.000 C 
BRANCH  11  12
ATOM     12  C   UNL     1       9.711  10.532  19.201  0.00  0.00    +0.000 A 
ATOM     13  C   UNL     1      10.619  11.186  18.350  0.00  0.00    +0.000 A 
ATOM     14  C   UNL     1      11.322  12.327  18.785  0.00  0.00    +0.000 A 
ATOM     15  C   UNL     1      11.135  12.827  20.071  0.00  0.00    +0.000 A 
ATOM     16  C   UNL     1      10.260  12.181  20.932  0.00  0.00    +0.000 A 
ATOM     17  C   UNL     1       9.559  11.049  20.499  0.00  0.00    +0.000 A 
ENDBRANCH  11  12
ENDBRANCH   9  10
ENDBRANCH   7   9
ENDBRANCH   1   7
BRANCH   4  18
ATOM     18  C   UNL     1       3.539   4.801  17.409  0.00  0.00    +0.000 C 
BRANCH  18  19
ATOM     19  C   UNL     1       2.493   4.146  18.305  0.00  0.00    +0.000 A 
ATOM     20  C   UNL     1       1.967   4.841  19.407  0.00  0.00    +0.000 A 
ATOM     21  C   UNL     1       1.046   4.240  20.267  0.00  0.00    +0.000 A 
ATOM     22  C   UNL     1       0.608   2.943  20.020  0.00  0.00    +0.000 A 
ATOM     23  C   UNL     1       1.101   2.244  18.920  0.00  0.00    +0.000 A 
ATOM     24  C   UNL     1       2.039   2.838  18.069  0.00  0.00    +0.000 A 
ENDBRANCH  18  19
ENDBRANCH   4  18
TORSDOF 6
ENDMDL
MODEL 6
REMARK VINA RESULT:      -8.3      1.485      2.322
REMARK  Name = 
REMARK  6 active torsions:
REMARK  status: ('A' for Active; 'I' for Inactive)
REMARK    1  A    between atoms: C_1  and  C_9
REMARK    2  A    between atoms: C_2  and  C_3
REMARK    3  A    between atoms: C_9  and  N_10
REMARK    4  A    between atoms: N_10  and  C_11
REMARK    5  A    between atoms: N_14  and  C_15
REMARK    6  A    between atoms: C_15  and  C_16
REMARK                            x       y       z     vdW  Elec       q    Type
REMARK                         _______ _______ _______ _____ _____    ______ ____
ROOT
ATOM      1  C   UNL     1       5.337   6.643  16.900  0.00  0.00    +0.000 C 
ATOM      2  C   UNL     1       3.909   6.682  17.445  0.00  0.00    +0.000 C 
ATOM      3  C   UNL     1       3.448   5.321  17.957  0.00  0.00    +0.000 C 
ATOM      4  N   UNL     1       3.616   4.194  17.037  0.00  0.00    +0.000 NA
ATOM      5  C   UNL     1       4.827   4.198  16.223  0.00  0.00    +0.000 C 
ATOM      6  C   UNL     1       5.343   5.569  15.795  0.00  0.00    +0.000 C 
ENDROOT
BRANCH   1   7
ATOM      7  N   UNL     1       6.404   6.465  17.920  0.00  0.00    +0.000 NA
ATOM      8  H   UNL     1       6.514   5.466  18.115  0.00  0.00    +0.000 HD
BRANCH   7   9
ATOM      9  C   UNL     1       7.703   7.010  17.509  0.00  0.00    +0.000 C 
BRANCH   9  10
ATOM     10  C   UNL     1       8.227   8.221  18.268  0.00  0.00    +0.000 C 
ATOM     11  C   UNL     1       8.419   9.463  17.796  0.00  0.00    +0.000 C 
BRANCH  11  12
ATOM     12  C   UNL     1       8.981  10.664  18.481  0.00  0.00    +0.000 A 
ATOM     13  C   UNL     1       9.012  11.965  17.949  0.00  0.00    +0.000 A 
ATOM     14  C   UNL     1       9.508  13.043  18.708  0.00  0.00    +0.000 A 
ATOM     15  C   UNL     1       9.984  12.840  20.001  0.00  0.00    +0.000 A 
ATOM     16  C   UNL     1       9.982  11.559  20.534  0.00  0.00    +0.000 A 
ATOM     17  C   UNL     1       9.487  10.488  19.780  0.00  0.00    +0.000 A 
ENDBRANCH  11  12
ENDBRANCH   9  10
ENDBRANCH   7   9
ENDBRANCH   1   7
BRANCH   4  18
ATOM     18  C   UNL     1       3.409   2.883  17.702  0.00  0.00    +0.000 C 
BRANCH  18  19
ATOM     19  C   UNL     1       2.706   2.898  19.055  0.00  0.00    +0.000 A 
ATOM     20  C   UNL     1       3.423   2.621  20.231  0.00  0.00    +0.000 A 
ATOM     21  C   UNL     1       2.787   2.581  21.473  0.00  0.00    +0.000 A 
ATOM     22  C   UNL     1       1.426   2.853  21.565  0.00  0.00    +0.000 A 
ATOM     23  C   UNL     1       0.700   3.153  20.414  0.00  0.00    +0.000 A 
ATOM     24  C   UNL     1       1.333   3.172  19.167  0.00  0.00    +0.000 A 
ENDBRANCH  18  19
ENDBRANCH   4  18
TORSDOF 6
ENDMDL
MODEL 7
REMARK VINA RESULT:      -8.3      0.955      1.100
REMARK  Name = 
REMARK  6 active torsions:
REMARK  status: ('A' for Active; 'I' for Inactive)
REMARK    1  A    between atoms: C_1  and  C_9
REMARK    2  A    between atoms: C_2  and  C_3
REMARK    3  A    between atoms: C_9  and  N_10
REMARK    4  A    between atoms: N_10  and  C_11
REMARK    5  A    between atoms: N_14  and  C_15
REMARK    6  A    between atoms: C_15  and  C_16
REMARK                            x       y       z     vdW  Elec       q    Type
REMARK                         _______ _______ _______ _____ _____    ______ ____
ROOT
ATOM      1  C   UNL     1       7.521   5.739  17.591  0.00  0.00    +0.000 C 
ATOM      2  C   UNL     1       6.756   5.819  16.270  0.00  0.00    +0.000 C 
ATOM      3  C   UNL     1       5.269   6.087  16.477  0.00  0.00    +0.000 C 
ATOM      4  N   UNL     1       4.579   5.200  17.417  0.00  0.00    +0.000 NA
ATOM      5  C   UNL     1       5.332   4.800  18.601  0.00  0.00    +0.000 C 
ATOM      6  C   UNL     1       6.837   4.630  18.413  0.00  0.00    +0.000 C 
ENDROOT
BRANCH   1   7
ATOM      7  N   UNL     1       7.671   7.026  18.320  0.00  0.00    +0.000 NA
ATOM      8  H   UNL     1       8.464   6.954  18.962  0.00  0.00    +0.000 HD
BRANCH   7   9
ATOM      9  C   UNL     1       7.884   8.178  17.436  0.00  0.00    +0.000 C 
BRANCH   9  10
ATOM     10  C   UNL     1       8.254   9.503  18.087  0.00  0.00    +0.000 C 
ATOM     11  C   UNL     1       9.220   9.729  18.992  0.00  0.00    +0.000 C 
BRANCH  11  12
ATOM     12  C   UNL     1       9.583  10.992  19.700  0.00  0.00    +0.000 A 
ATOM     13  C   UNL     1       9.230  11.315  21.021  0.00  0.00    +0.000 A 
ATOM     14  C   UNL     1       9.680  12.509  21.618  0.00  0.00    +0.000 A 
ATOM     15  C   UNL     1      10.483  13.398  20.905  0.00  0.00    +0.000 A 
ATOM     16  C   UNL     1      10.823  13.106  19.593  0.00  0.00    +0.000 A 
ATOM     17  C   UNL     1      10.377  11.918  19.001  0.00  0.00    +0.000 A 
ENDBRANCH  11  12
ENDBRANCH   9  10
ENDBRANCH   7   9
ENDBRANCH   1   7
BRANCH   4  18
ATOM     18  C   UNL     1       3.225   5.693  17.772  0.00  0.00    +0.000 C 
BRANCH  18  19
ATOM     19  C   UNL     1       2.338   4.753  18.581  0.00  0.00    +0.000 A 
ATOM     20  C   UNL     1       1.815   3.589  17.992  0.00  0.00    +0.000 A 
ATOM     21  C   UNL     1       0.962   2.742  18.702  0.00  0.00    +0.000 A 
ATOM     22  C   UNL     1       0.644   3.026  20.026  0.00  0.00    +0.000 A 
ATOM     23  C   UNL     1       1.169   4.164  20.635  0.00  0.00    +0.000 A 
ATOM     24  C   UNL     1       2.008   5.023  19.919  0.00  0.00    +0.000 A 
ENDBRANCH  18  19
ENDBRANCH   4  18
TORSDOF 6
ENDMDL
MODEL 8
REMARK VINA RESULT:      -8.2      1.003      1.262
REMARK  Name = 
REMARK  6 active torsions:
REMARK  status: ('A' for Active; 'I' for Inactive)
REMARK    1  A    between atoms: C_1  and  C_9
REMARK    2  A    between atoms: C_2  and  C_3
REMARK    3  A    between atoms: C_9  and  N_10
REMARK    4  A    between atoms: N_10  and  C_11
REMARK    5  A    between atoms: N_14  and  C_15
REMARK    6  A    between atoms: C_15  and  C_16
REMARK                            x       y       z     vdW  Elec       q    Type
REMARK                         _______ _______ _______ _____ _____    ______ ____
ROOT
ATOM      1  C   UNL     1       6.534   6.011  16.109  0.00  0.00    +0.000 C 
ATOM      2  C   UNL     1       5.150   5.389  15.922  0.00  0.00    +0.000 C 
ATOM      3  C   UNL     1       4.519   4.972  17.247  0.00  0.00    +0.000 C 
ATOM      4  N   UNL     1       5.345   4.135  18.119  0.00  0.00    +0.000 NA
ATOM      5  C   UNL     1       6.770   4.445  18.156  0.00  0.00    +0.000 C 
ATOM      6  C   UNL     1       7.378   4.958  16.853  0.00  0.00    +0.000 C 
ENDROOT
BRANCH   1   7
ATOM      7  N   UNL     1       6.549   7.355  16.745  0.00  0.00    +0.000 NA
ATOM      8  H   UNL     1       5.649   7.513  17.207  0.00  0.00    +0.000 HD
BRANCH   7   9
ATOM      9  C   UNL     1       7.621   7.522  17.733  0.00  0.00    +0.000 C 
BRANCH   9  10
ATOM     10  C   UNL     1       8.233   8.909  17.876  0.00  0.00    +0.000 C 
ATOM     11  C   UNL     1       8.946   9.387  18.907  0.00  0.00    +0.000 C 
BRANCH  11  12
ATOM     12  C   UNL     1       9.515  10.750  19.119  0.00  0.00    +0.000 A 
ATOM     13  C   UNL     1       9.857  11.307  20.363  0.00  0.00    +0.000 A 
ATOM     14  C   UNL     1      10.450  12.581  20.447  0.00  0.00    +0.000 A 
ATOM     15  C   UNL     1      10.708  13.320  19.294  0.00  0.00    +0.000 A 
ATOM     16  C   UNL     1      10.357  12.796  18.058  0.00  0.00    +0.000 A 
ATOM     17  C   UNL     1       9.769  11.528  17.976  0.00  0.00    +0.000 A 
ENDBRANCH  11  12
ENDBRANCH   9  10
ENDBRANCH   7   9
ENDBRANCH   1   7
BRANCH   4  18
ATOM     18  C   UNL     1       4.779   4.008  19.486  0.00  0.00    +0.000 C 
BRANCH  18  19
ATOM     19  C   UNL     1       3.302   3.641  19.591  0.00  0.00    +0.000 A 
ATOM     20  C   UNL     1       2.814   2.479  18.971  0.00  0.00    +0.000 A 
ATOM     21  C   UNL     1       1.457   2.153  19.015  0.00  0.00    +0.000 A 
ATOM     22  C   UNL     1       0.569   2.967  19.710  0.00  0.00    +0.000 A 
ATOM     23  C   UNL     1       1.036   4.113  20.350  0.00  0.00    +0.000 A 
ATOM     24  C   UNL     1       2.392   4.451  20.290  0.00  0.00    +0.000 A 
ENDBRANCH  18  19
ENDBRANCH   4  18
TORSDOF 6
ENDMDL
MODEL 9
REMARK VINA RESULT:      -8.1      1.439      2.057
REMARK  Name = 
REMARK  6 active torsions:
REMARK  status: ('A' for Active; 'I' for Inactive)
REMARK    1  A    between atoms: C_1  and  C_9
REMARK    2  A    between atoms: C_2  and  C_3
REMARK    3  A    between atoms: C_9  and  N_10
REMARK    4  A    between atoms: N_10  and  C_11
REMARK    5  A    between atoms: N_14  and  C_15
REMARK    6  A    between atoms: C_15  and  C_16
REMARK                            x       y       z     vdW  Elec       q    Type
REMARK                         _______ _______ _______ _____ _____    ______ ____
ROOT
ATOM      1  C   UNL     1       7.249   5.597  16.561  0.00  0.00    +0.000 C 
ATOM      2  C   UNL     1       6.550   4.827  15.440  0.00  0.00    +0.000 C 
ATOM      3  C   UNL     1       5.090   4.530  15.765  0.00  0.00    +0.000 C 
ATOM      4  N   UNL     1       4.833   3.897  17.060  0.00  0.00    +0.000 NA
ATOM      5  C   UNL     1       5.662   4.344  18.175  0.00  0.00    +0.000 C 
ATOM      6  C   UNL     1       7.096   4.736  17.829  0.00  0.00    +0.000 C 
ENDROOT
BRANCH   1   7
ATOM      7  N   UNL     1       6.813   7.008  16.733  0.00  0.00    +0.000 NA
ATOM      8  H   UNL     1       5.801   7.027  16.884  0.00  0.00    +0.000 HD
BRANCH   7   9
ATOM      9  C   UNL     1       7.469   7.689  17.856  0.00  0.00    +0.000 C 
BRANCH   9  10
ATOM     10  C   UNL     1       8.276   8.942  17.541  0.00  0.00    +0.000 C 
ATOM     11  C   UNL     1       8.692   9.885  18.400  0.00  0.00    +0.000 C 
BRANCH  11  12
ATOM     12  C   UNL     1       9.432  11.153  18.134  0.00  0.00    +0.000 A 
ATOM     13  C   UNL     1      10.815  11.257  17.905  0.00  0.00    +0.000 A 
ATOM     14  C   UNL     1      11.406  12.498  17.599  0.00  0.00    +0.000 A 
ATOM     15  C   UNL     1      10.629  13.652  17.520  0.00  0.00    +0.000 A 
ATOM     16  C   UNL     1       9.266  13.573  17.765  0.00  0.00    +0.000 A 
ATOM     17  C   UNL     1       8.679  12.338  18.067  0.00  0.00    +0.000 A 
ENDBRANCH  11  12
ENDBRANCH   9  10
ENDBRANCH   7   9
ENDBRANCH   1   7
BRANCH   4  18
ATOM     18  C   UNL     1       3.392   3.898  17.417  0.00  0.00    +0.000 C 
BRANCH  18  19
ATOM     19  C   UNL     1       2.918   4.989  18.371  0.00  0.00    +0.000 A 
ATOM     20  C   UNL     1       2.433   4.654  19.647  0.00  0.00    +0.000 A 
ATOM     21  C   UNL     1       1.949   5.635  20.515  0.00  0.00    +0.000 A 
ATOM     22  C   UNL     1       1.974   6.973  20.136  0.00  0.00    +0.000 A 
ATOM     23  C   UNL     1       2.471   7.328  18.884  0.00  0.00    +0.000 A 
ATOM     24  C   UNL     1       2.937   6.344  18.006  0.00  0.00    +0.000 A 
ENDBRANCH  18  19
ENDBRANCH   4  18
TORSDOF 6
ENDMDL
