MODEL 1
REMARK VINA RESULT:      -7.1      0.000      0.000
REMARK  Name = 
REMARK  4 active torsions:
REMARK  status: ('A' for Active; 'I' for Inactive)
REMARK    1  A    between atoms: C_1  and  N_2
REMARK    2  A    between atoms: N_2  and  C_3
REMARK    3  A    between atoms: N_2  and  C_4
REMARK    4  A    between atoms: C_6  and  C_7
REMARK                            x       y       z     vdW  Elec       q    Type
REMARK                         _______ _______ _______ _____ _____    ______ ____
ROOT
ATOM      1  C   UNL     1       3.780   4.445  17.800  0.00  0.00    +0.000 A 
ATOM      2  C   UNL     1       2.967   5.488  18.402  0.00  0.00    +0.000 A 
ATOM      3  C   UNL     1       3.126   6.770  18.047  0.00  0.00    +0.000 A 
ATOM      4  O   UNL     1       4.073   7.173  17.096  0.00  0.00    +0.000 OA
ATOM      5  C   UNL     1       4.870   6.249  16.480  0.00  0.00    +0.000 A 
ATOM      6  O   UNL     1       5.707   6.605  15.654  0.00  0.00    +0.000 OA
ATOM      7  C   UNL     1       4.684   4.823  16.867  0.00  0.00    +0.000 A 
ATOM      8 CL   UNL     1       5.653   3.684  15.986  0.00  0.00    +0.000 Cl
ENDROOT
BRANCH   3   9
ATOM      9  C   UNL     1       2.354   7.882  18.617  0.00  0.00    +0.000 A 
ATOM     10  C   UNL     1       2.150   9.027  17.832  0.00  0.00    +0.000 A 
ATOM     11  C   UNL     1       1.362  10.082  18.302  0.00  0.00    +0.000 A 
ATOM     12  C   UNL     1       0.775   9.998  19.564  0.00  0.00    +0.000 A 
ATOM     13 CL   UNL     1      -0.211  11.288  20.133  0.00  0.00    +0.000 Cl
ATOM     14  C   UNL     1       0.975   8.875  20.363  0.00  0.00    +0.000 A 
ATOM     15  C   UNL     1       1.761   7.820  19.890  0.00  0.00    +0.000 A 
ATOM     16 CL   UNL     1       1.960   6.443  20.919  0.00  0.00    +0.000 Cl
ENDBRANCH   3   9
BRANCH   1  18
ATOM     17  C   UNL     1       4.248   2.591  19.426  0.00  0.00    +0.000 C 
ATOM     18  N   UNL     1       3.551   3.136  18.257  0.00  0.00    +0.000 N 
ATOM     19  C   UNL     1       2.548   2.262  17.644  0.00  0.00    +0.000 C 
ENDBRANCH   1  18
TORSDOF 2
ENDMDL
MODEL 2
REMARK VINA RESULT:      -7.0      3.521      6.365
REMARK  Name = 
REMARK  4 active torsions:
REMARK  status: ('A' for Active; 'I' for Inactive)
REMARK    1  A    between atoms: C_1  and  N_2
REMARK    2  A    between atoms: N_2  and  C_3
REMARK    3  A    between atoms: N_2  and  C_4
REMARK    4  A    between atoms: C_6  and  C_7
REMARK                            x       y       z     vdW  Elec       q    Type
REMARK                         _______ _______ _______ _____ _____    ______ ____
ROOT
ATOM      1  C   UNL     1       3.022   4.397  19.636  0.00  0.00    +0.000 A 
ATOM      2  C   UNL     1       3.733   4.705  18.407  0.00  0.00    +0.000 A 
ATOM      3  C   UNL     1       4.781   3.967  18.018  0.00  0.00    +0.000 A 
ATOM      4  O   UNL     1       5.247   2.876  18.765  0.00  0.00    +0.000 OA
ATOM      5  C   UNL     1       4.626   2.518  19.929  0.00  0.00    +0.000 A 
ATOM      6  O   UNL     1       5.043   1.569  20.587  0.00  0.00    +0.000 OA
ATOM      7  C   UNL     1       3.454   3.333  20.354  0.00  0.00    +0.000 A 
ATOM      8 CL   UNL     1       2.646   2.778  21.785  0.00  0.00    +0.000 Cl
ENDROOT
BRANCH   3   9
ATOM      9  C   UNL     1       5.558   4.221  16.799  0.00  0.00    +0.000 A 
ATOM     10  C   UNL     1       4.950   3.988  15.556  0.00  0.00    +0.000 A 
ATOM     11  C   UNL     1       5.624   4.283  14.367  0.00  0.00    +0.000 A 
ATOM     12  C   UNL     1       6.913   4.811  14.415  0.00  0.00    +0.000 A 
ATOM     13 CL   UNL     1       7.733   5.192  12.952  0.00  0.00    +0.000 Cl
ATOM     14  C   UNL     1       7.539   5.039  15.638  0.00  0.00    +0.000 A 
ATOM     15  C   UNL     1       6.863   4.746  16.827  0.00  0.00    +0.000 A 
ATOM     16 CL   UNL     1       7.682   5.065  18.317  0.00  0.00    +0.000 Cl
ENDBRANCH   3   9
BRANCH   1  18
ATOM     17  C   UNL     1       0.632   4.723  20.328  0.00  0.00    +0.000 C 
ATOM     18  N   UNL     1       1.952   5.246  19.966  0.00  0.00    +0.000 N 
ATOM     19  C   UNL     1       2.110   6.700  20.046  0.00  0.00    +0.000 C 
ENDBRANCH   1  18
TORSDOF 2
ENDMDL
MODEL 3
REMARK VINA RESULT:      -7.0      2.628      5.874
REMARK  Name = 
REMARK  4 active torsions:
REMARK  status: ('A' for Active; 'I' for Inactive)
REMARK    1  A    between atoms: C_1  and  N_2
REMARK    2  A    between atoms: N_2  and  C_3
REMARK    3  A    between atoms: N_2  and  C_4
REMARK    4  A    between atoms: C_6  and  C_7
REMARK                            x       y       z     vdW  Elec       q    Type
REMARK                         _______ _______ _______ _____ _____    ______ ____
ROOT
ATOM      1  C   UNL     1       2.909   4.073  19.223  0.00  0.00    +0.000 A 
ATOM      2  C   UNL     1       3.864   3.918  18.139  0.00  0.00    +0.000 A 
ATOM      3  C   UNL     1       4.270   4.978  17.427  0.00  0.00    +0.000 A 
ATOM      4  O   UNL     1       3.801   6.274  17.680  0.00  0.00    +0.000 OA
ATOM      5  C   UNL     1       2.908   6.502  18.689  0.00  0.00    +0.000 A 
ATOM      6  O   UNL     1       2.491   7.637  18.902  0.00  0.00    +0.000 OA
ATOM      7  C   UNL     1       2.466   5.324  19.487  0.00  0.00    +0.000 A 
ATOM      8 CL   UNL     1       1.408   5.684  20.814  0.00  0.00    +0.000 Cl
ENDROOT
BRANCH   3   9
ATOM      9  C   UNL     1       5.220   4.902  16.310  0.00  0.00    +0.000 A 
ATOM     10  C   UNL     1       4.779   4.366  15.091  0.00  0.00    +0.000 A 
ATOM     11  C   UNL     1       5.624   4.339  13.977  0.00  0.00    +0.000 A 
ATOM     12  C   UNL     1       6.919   4.847  14.079  0.00  0.00    +0.000 A 
ATOM     13 CL   UNL     1       7.950   4.832  12.702  0.00  0.00    +0.000 Cl
ATOM     14  C   UNL     1       7.379   5.373  15.283  0.00  0.00    +0.000 A 
ATOM     15  C   UNL     1       6.532   5.402  16.395  0.00  0.00    +0.000 A 
ATOM     16 CL   UNL     1       7.152   6.083  17.860  0.00  0.00    +0.000 Cl
ENDBRANCH   3   9
BRANCH   1  18
ATOM     17  C   UNL     1       3.037   2.567  21.227  0.00  0.00    +0.000 C 
ATOM     18  N   UNL     1       2.530   2.897  19.892  0.00  0.00    +0.000 N 
ATOM     19  C   UNL     1       1.548   1.966  19.331  0.00  0.00    +0.000 C 
ENDBRANCH   1  18
TORSDOF 2
ENDMDL
MODEL 4
REMARK VINA RESULT:      -6.9      1.984      2.696
REMARK  Name = 
REMARK  4 active torsions:
REMARK  status: ('A' for Active; 'I' for Inactive)
REMARK    1  A    between atoms: C_1  and  N_2
REMARK    2  A    between atoms: N_2  and  C_3
REMARK    3  A    between atoms: N_2  and  C_4
REMARK    4  A    between atoms: C_6  and  C_7
REMARK                            x       y       z     vdW  Elec       q    Type
REMARK                         _______ _______ _______ _____ _____    ______ ____
ROOT
ATOM      1  C   UNL     1       4.339   4.562  17.634  0.00  0.00    +0.000 A 
ATOM      2  C   UNL     1       3.952   5.935  17.911  0.00  0.00    +0.000 A 
ATOM      3  C   UNL     1       2.719   6.224  18.348  0.00  0.00    +0.000 A 
ATOM      4  O   UNL     1       1.747   5.235  18.555  0.00  0.00    +0.000 OA
ATOM      5  C   UNL     1       2.038   3.920  18.325  0.00  0.00    +0.000 A 
ATOM      6  O   UNL     1       1.182   3.057  18.497  0.00  0.00    +0.000 OA
ATOM      7  C   UNL     1       3.413   3.600  17.850  0.00  0.00    +0.000 A 
ATOM      8 CL   UNL     1       3.757   1.909  17.666  0.00  0.00    +0.000 Cl
ENDROOT
BRANCH   3   9
ATOM      9  C   UNL     1       2.247   7.584  18.638  0.00  0.00    +0.000 A 
ATOM     10  C   UNL     1       2.358   8.559  17.635  0.00  0.00    +0.000 A 
ATOM     11  C   UNL     1       1.857   9.849  17.837  0.00  0.00    +0.000 A 
ATOM     12  C   UNL     1       1.244  10.171  19.047  0.00  0.00    +0.000 A 
ATOM     13 CL   UNL     1       0.611  11.753  19.287  0.00  0.00    +0.000 Cl
ATOM     14  C   UNL     1       1.135   9.221  20.059  0.00  0.00    +0.000 A 
ATOM     15  C   UNL     1       1.633   7.930  19.855  0.00  0.00    +0.000 A 
ATOM     16 CL   UNL     1       1.453   6.787  21.140  0.00  0.00    +0.000 Cl
ENDBRANCH   3   9
BRANCH   1  18
ATOM     17  C   UNL     1       5.914   3.949  15.779  0.00  0.00    +0.000 C 
ATOM     18  N   UNL     1       5.647   4.369  17.157  0.00  0.00    +0.000 N 
ATOM     19  C   UNL     1       6.825   4.649  17.982  0.00  0.00    +0.000 C 
ENDBRANCH   1  18
TORSDOF 2
ENDMDL
MODEL 5
REMARK VINA RESULT:      -6.9      3.664      5.290
REMARK  Name = 
REMARK  4 active torsions:
REMARK  status: ('A' for Active; 'I' for Inactive)
REMARK    1  A    between atoms: C_1  and  N_2
REMARK    2  A    between atoms: N_2  and  C_3
REMARK    3  A    between atoms: N_2  and  C_4
REMARK    4  A    between atoms: C_6  and  C_7
REMARK                            x       y       z     vdW  Elec       q    Type
REMARK                         _______ _______ _______ _____ _____    ______ ____
ROOT
ATOM      1  C   UNL     1       5.907   4.114  13.916  0.00  0.00    +0.000 A 
ATOM      2  C   UNL     1       4.884   3.767  14.888  0.00  0.00    +0.000 A 
ATOM      3  C   UNL     1       4.916   4.275  16.127  0.00  0.00    +0.000 A 
ATOM      4  O   UNL     1       5.925   5.151  16.551  0.00  0.00    +0.000 OA
ATOM      5  C   UNL     1       6.918   5.531  15.692  0.00  0.00    +0.000 A 
ATOM      6  O   UNL     1       7.806   6.291  16.069  0.00  0.00    +0.000 OA
ATOM      7  C   UNL     1       6.874   4.974  14.312  0.00  0.00    +0.000 A 
ATOM      8 CL   UNL     1       8.102   5.563  13.236  0.00  0.00    +0.000 Cl
ENDROOT
BRANCH   3   9
ATOM      9  C   UNL     1       3.929   3.965  17.168  0.00  0.00    +0.000 A 
ATOM     10  C   UNL     1       3.696   2.619  17.490  0.00  0.00    +0.000 A 
ATOM     11  C   UNL     1       2.819   2.276  18.524  0.00  0.00    +0.000 A 
ATOM     12  C   UNL     1       2.167   3.279  19.240  0.00  0.00    +0.000 A 
ATOM     13 CL   UNL     1       1.105   2.856  20.525  0.00  0.00    +0.000 Cl
ATOM     14  C   UNL     1       2.377   4.620  18.928  0.00  0.00    +0.000 A 
ATOM     15  C   UNL     1       3.256   4.962  17.896  0.00  0.00    +0.000 A 
ATOM     16 CL   UNL     1       3.491   6.644  17.565  0.00  0.00    +0.000 Cl
ENDBRANCH   3   9
BRANCH   1  18
ATOM     17  C   UNL     1       6.940   2.868  11.997  0.00  0.00    +0.000 C 
ATOM     18  N   UNL     1       5.796   3.508  12.652  0.00  0.00    +0.000 N 
ATOM     19  C   UNL     1       4.516   3.411  11.947  0.00  0.00    +0.000 C 
ENDBRANCH   1  18
TORSDOF 2
ENDMDL
MODEL 6
REMARK VINA RESULT:      -6.8      2.709      3.538
REMARK  Name = 
REMARK  4 active torsions:
REMARK  status: ('A' for Active; 'I' for Inactive)
REMARK    1  A    between atoms: C_1  and  N_2
REMARK    2  A    between atoms: N_2  and  C_3
REMARK    3  A    between atoms: N_2  and  C_4
REMARK    4  A    between atoms: C_6  and  C_7
REMARK                            x       y       z     vdW  Elec       q    Type
REMARK                         _______ _______ _______ _____ _____    ______ ____
ROOT
ATOM      1  C   UNL     1       3.746   5.115  19.201  0.00  0.00    +0.000 A 
ATOM      2  C   UNL     1       3.238   6.465  19.374  0.00  0.00    +0.000 A 
ATOM      3  C   UNL     1       2.148   6.697  20.117  0.00  0.00    +0.000 A 
ATOM      4  O   UNL     1       1.443   5.666  20.754  0.00  0.00    +0.000 OA
ATOM      5  C   UNL     1       1.863   4.370  20.645  0.00  0.00    +0.000 A 
ATOM      6  O   UNL     1       1.238   3.468  21.196  0.00  0.00    +0.000 OA
ATOM      7  C   UNL     1       3.082   4.116  19.828  0.00  0.00    +0.000 A 
ATOM      8 CL   UNL     1       3.626   2.469  19.802  0.00  0.00    +0.000 Cl
ENDROOT
BRANCH   3   9
ATOM      9  C   UNL     1       1.566   8.027  20.330  0.00  0.00    +0.000 A 
ATOM     10  C   UNL     1       1.226   8.409  21.637  0.00  0.00    +0.000 A 
ATOM     11  C   UNL     1       0.737   9.692  21.900  0.00  0.00    +0.000 A 
ATOM     12  C   UNL     1       0.581  10.601  20.855  0.00  0.00    +0.000 A 
ATOM     13 CL   UNL     1      -0.003  12.185  21.183  0.00  0.00    +0.000 Cl
ATOM     14  C   UNL     1       0.900  10.238  19.549  0.00  0.00    +0.000 A 
ATOM     15  C   UNL     1       1.393   8.955  19.288  0.00  0.00    +0.000 A 
ATOM     16 CL   UNL     1       1.790   8.566  17.650  0.00  0.00    +0.000 Cl
ENDBRANCH   3   9
BRANCH   1  18
ATOM     17  C   UNL     1       6.231   5.256  18.880  0.00  0.00    +0.000 C 
ATOM     18  N   UNL     1       4.881   4.977  18.384  0.00  0.00    +0.000 N 
ATOM     19  C   UNL     1       4.794   4.472  17.011  0.00  0.00    +0.000 C 
ENDBRANCH   1  18
TORSDOF 2
ENDMDL
MODEL 7
REMARK VINA RESULT:      -6.8      2.049      2.261
REMARK  Name = 
REMARK  4 active torsions:
REMARK  status: ('A' for Active; 'I' for Inactive)
REMARK    1  A    between atoms: C_1  and  N_2
REMARK    2  A    between atoms: N_2  and  C_3
REMARK    3  A    between atoms: N_2  and  C_4
REMARK    4  A    between atoms: C_6  and  C_7
REMARK                            x       y       z     vdW  Elec       q    Type
REMARK                         _______ _______ _______ _____ _____    ______ ____
ROOT
ATOM      1  C   UNL     1       2.484   4.125  19.731  0.00  0.00    +0.000 A 
ATOM      2  C   UNL     1       1.892   5.445  19.587  0.00  0.00    +0.000 A 
ATOM      3  C   UNL     1       2.656   6.511  19.313  0.00  0.00    +0.000 A 
ATOM      4  O   UNL     1       4.046   6.418  19.158  0.00  0.00    +0.000 OA
ATOM      5  C   UNL     1       4.675   5.210  19.271  0.00  0.00    +0.000 A 
ATOM      6  O   UNL     1       5.894   5.132  19.146  0.00  0.00    +0.000 OA
ATOM      7  C   UNL     1       3.823   4.023  19.565  0.00  0.00    +0.000 A 
ATOM      8 CL   UNL     1       4.659   2.503  19.602  0.00  0.00    +0.000 Cl
ENDROOT
BRANCH   3   9
ATOM      9  C   UNL     1       2.137   7.877  19.165  0.00  0.00    +0.000 A 
ATOM     10  C   UNL     1       2.333   8.539  17.943  0.00  0.00    +0.000 A 
ATOM     11  C   UNL     1       1.795   9.811  17.728  0.00  0.00    +0.000 A 
ATOM     12  C   UNL     1       1.060  10.431  18.738  0.00  0.00    +0.000 A 
ATOM     13 CL   UNL     1       0.383  11.989  18.465  0.00  0.00    +0.000 Cl
ATOM     14  C   UNL     1       0.865   9.796  19.962  0.00  0.00    +0.000 A 
ATOM     15  C   UNL     1       1.401   8.522  20.174  0.00  0.00    +0.000 A 
ATOM     16 CL   UNL     1       1.112   7.774  21.707  0.00  0.00    +0.000 Cl
ENDBRANCH   3   9
BRANCH   1  18
ATOM     17  C   UNL     1       1.338   2.670  21.424  0.00  0.00    +0.000 C 
ATOM     18  N   UNL     1       1.601   3.078  20.041  0.00  0.00    +0.000 N 
ATOM     19  C   UNL     1       0.829   2.380  19.010  0.00  0.00    +0.000 C 
ENDBRANCH   1  18
TORSDOF 2
ENDMDL
MODEL 8
REMARK VINA RESULT:      -6.8      2.206      2.695
REMARK  Name = 
REMARK  4 active torsions:
REMARK  status: ('A' for Active; 'I' for Inactive)
REMARK    1  A    between atoms: C_1  and  N_2
REMARK    2  A    between atoms: N_2  and  C_3
REMARK    3  A    between atoms: N_2  and  C_4
REMARK    4  A    between atoms: C_6  and  C_7
REMARK                            x       y       z     vdW  Elec       q    Type
REMARK                         _______ _______ _______ _____ _____    ______ ____
ROOT
ATOM      1  C   UNL     1       2.344   4.142  19.926  0.00  0.00    +0.000 A 
ATOM      2  C   UNL     1       1.667   5.412  20.128  0.00  0.00    +0.000 A 
ATOM      3  C   UNL     1       2.296   6.569  19.882  0.00  0.00    +0.000 A 
ATOM      4  O   UNL     1       3.622   6.620  19.430  0.00  0.00    +0.000 OA
ATOM      5  C   UNL     1       4.322   5.467  19.209  0.00  0.00    +0.000 A 
ATOM      6  O   UNL     1       5.487   5.514  18.822  0.00  0.00    +0.000 OA
ATOM      7  C   UNL     1       3.618   4.182  19.471  0.00  0.00    +0.000 A 
ATOM      8 CL   UNL     1       4.519   2.751  19.083  0.00  0.00    +0.000 Cl
ENDROOT
BRANCH   3   9
ATOM      9  C   UNL     1       1.688   7.892  20.073  0.00  0.00    +0.000 A 
ATOM     10  C   UNL     1       1.210   8.232  21.348  0.00  0.00    +0.000 A 
ATOM     11  C   UNL     1       0.689   9.505  21.597  0.00  0.00    +0.000 A 
ATOM     12  C   UNL     1       0.639  10.446  20.569  0.00  0.00    +0.000 A 
ATOM     13 CL   UNL     1       0.016  12.018  20.882  0.00  0.00    +0.000 Cl
ATOM     14  C   UNL     1       1.098  10.124  19.294  0.00  0.00    +0.000 A 
ATOM     15  C   UNL     1       1.622   8.851  19.047  0.00  0.00    +0.000 A 
ATOM     16 CL   UNL     1       2.193   8.514  17.450  0.00  0.00    +0.000 Cl
ENDBRANCH   3   9
BRANCH   1  18
ATOM     17  C   UNL     1       1.459   2.506  21.612  0.00  0.00    +0.000 C 
ATOM     18  N   UNL     1       1.604   2.987  20.235  0.00  0.00    +0.000 N 
ATOM     19  C   UNL     1       0.870   2.238  19.213  0.00  0.00    +0.000 C 
ENDBRANCH   1  18
TORSDOF 2
ENDMDL
MODEL 9
REMARK VINA RESULT:      -6.7      2.926      6.397
REMARK  Name = 
REMARK  4 active torsions:
REMARK  status: ('A' for Active; 'I' for Inactive)
REMARK    1  A    between atoms: C_1  and  N_2
REMARK    2  A    between atoms: N_2  and  C_3
REMARK    3  A    between atoms: N_2  and  C_4
REMARK    4  A    between atoms: C_6  and  C_7
REMARK                            x       y       z     vdW  Elec       q    Type
REMARK                         _______ _______ _______ _____ _____    ______ ____
ROOT
ATOM      1  C   UNL     1       3.077   5.597  19.324  0.00  0.00    +0.000 A 
ATOM      2  C   UNL     1       3.859   5.683  18.102  0.00  0.00    +0.000 A 
ATOM      3  C   UNL     1       4.631   4.660  17.710  0.00  0.00    +0.000 A 
ATOM      4  O   UNL     1       4.730   3.471  18.446  0.00  0.00    +0.000 OA
ATOM      5  C   UNL     1       4.018   3.312  19.602  0.00  0.00    +0.000 A 
ATOM      6  O   UNL     1       4.114   2.273  20.250  0.00  0.00    +0.000 OA
ATOM      7  C   UNL     1       3.152   4.446  20.030  0.00  0.00    +0.000 A 
ATOM      8 CL   UNL     1       2.198   4.154  21.450  0.00  0.00    +0.000 Cl
ENDROOT
BRANCH   3   9
ATOM      9  C   UNL     1       5.459   4.673  16.498  0.00  0.00    +0.000 A 
ATOM     10  C   UNL     1       4.891   4.232  15.293  0.00  0.00    +0.000 A 
ATOM     11  C   UNL     1       5.616   4.294  14.100  0.00  0.00    +0.000 A 
ATOM     12  C   UNL     1       6.917   4.794  14.105  0.00  0.00    +0.000 A 
ATOM     13 CL   UNL     1       7.801   4.887  12.632  0.00  0.00    +0.000 Cl
ATOM     14  C   UNL     1       7.504   5.226  15.293  0.00  0.00    +0.000 A 
ATOM     15  C   UNL     1       6.776   5.167  16.486  0.00  0.00    +0.000 A 
ATOM     16 CL   UNL     1       7.548   5.733  17.926  0.00  0.00    +0.000 Cl
ENDBRANCH   3   9
BRANCH   1  18
ATOM     17  C   UNL     1       2.270   7.914  18.792  0.00  0.00    +0.000 C 
ATOM     18  N   UNL     1       2.320   6.733  19.658  0.00  0.00    +0.000 N 
ATOM     19  C   UNL     1       1.473   6.778  20.853  0.00  0.00    +0.000 C 
ENDBRANCH   1  18
TORSDOF 2
ENDMDL
