MODEL 1
REMARK VINA RESULT:      -8.2      0.000      0.000
REMARK  Name = 
REMARK  8 active torsions:
REMARK  status: ('A' for Active; 'I' for Inactive)
REMARK    1  A    between atoms: C_1  and  C_2
REMARK    2  A    between atoms: C_6  and  N_7
REMARK    3  A    between atoms: N_7  and  C_8
REMARK    4  A    between atoms: C_11  and  N_12
REMARK    5  A    between atoms: N_12  and  S_13
REMARK    6  A    between atoms: S_13  and  C_14
REMARK    7  A    between atoms: C_18  and  C_19
REMARK    8  A    between atoms: C_24  and  C_25
REMARK                            x       y       z     vdW  Elec       q    Type
REMARK                         _______ _______ _______ _____ _____    ______ ____
ROOT
ATOM      1  C   UNL     1       7.054   5.136  14.557  0.00  0.00    +0.000 C 
ATOM      2  C   UNL     1       6.214   5.354  15.779  0.00  0.00    +0.000 A 
ATOM      3  C   UNL     1       6.215   6.583  16.420  0.00  0.00    +0.000 A 
ATOM      4  C   UNL     1       5.394   6.775  17.526  0.00  0.00    +0.000 A 
ATOM      5  C   UNL     1       4.507   5.772  17.994  0.00  0.00    +0.000 A 
ATOM      6  C   UNL     1       3.526   5.960  19.011  0.00  0.00    +0.000 A 
ATOM      7  C   UNL     1       2.851   4.828  19.549  0.00  0.00    +0.000 A 
ATOM      8  C   UNL     1       1.932   4.906  20.624  0.00  0.00    +0.000 A 
ATOM      9  C   UNL     1       1.316   3.768  21.136  0.00  0.00    +0.000 A 
ATOM     10  C   UNL     1       1.596   2.531  20.576  0.00  0.00    +0.000 A 
ATOM     11  C   UNL     1       2.482   2.433  19.491  0.00  0.00    +0.000 A 
ATOM     12  C   UNL     1       2.758   1.076  18.896  0.00  0.00    +0.000 C 
ATOM     13  C   UNL     1       3.113   3.572  18.963  0.00  0.00    +0.000 A 
ATOM     14  N   UNL     1       3.934   3.438  17.908  0.00  0.00    +0.000 NA
ATOM     15  C   UNL     1       4.611   4.495  17.428  0.00  0.00    +0.000 A 
ATOM     16  C   UNL     1       5.442   4.315  16.323  0.00  0.00    +0.000 A 
ENDROOT
BRANCH   6  17
ATOM     17  N   UNL     1       3.172   7.268  19.491  0.00  0.00    +0.000 N 
ATOM     18  H   UNL     1       3.991   7.808  19.741  0.00  0.00    +0.000 HD
BRANCH  17  19
ATOM     19  C   UNL     1       2.016   8.026  19.176  0.00  0.00    +0.000 A 
ATOM     20  C   UNL     1       1.705   8.296  17.829  0.00  0.00    +0.000 A 
ATOM     21  C   UNL     1       0.789   9.288  17.483  0.00  0.00    +0.000 A 
ATOM     22  C   UNL     1       0.136   9.995  18.482  0.00  0.00    +0.000 A 
ATOM     23  C   UNL     1       0.312   9.641  19.821  0.00  0.00    +0.000 A 
ATOM     24  C   UNL     1       1.251   8.652  20.182  0.00  0.00    +0.000 A 
ATOM     25  C   UNL     1       1.468   8.347  21.639  0.00  0.00    +0.000 C 
BRANCH  22  26
ATOM     26  N   UNL     1      -0.655  11.119  18.119  0.00  0.00    +0.000 N 
ATOM     27  H   UNL     1      -0.444  11.996  18.597  0.00  0.00    +0.000 HD
BRANCH  26  28
ATOM     28  S   UNL     1      -2.311  10.927  17.906  0.00  0.00    +0.000 S 
ATOM     29  C   UNL     1      -2.485  11.299  16.174  0.00  0.00    +0.000 C 
ATOM     30  O   UNL     1      -2.688   9.552  18.145  0.00  0.00    +0.000 OA
ATOM     31  O   UNL     1      -2.921  12.013  18.648  0.00  0.00    +0.000 OA
ENDBRANCH  26  28
ENDBRANCH  22  26
ENDBRANCH  17  19
ENDBRANCH   6  17
TORSDOF 4
ENDMDL
MODEL 2
REMARK VINA RESULT:      -8.2      1.804      1.881
REMARK  Name = 
REMARK  8 active torsions:
REMARK  status: ('A' for Active; 'I' for Inactive)
REMARK    1  A    between atoms: C_1  and  C_2
REMARK    2  A    between atoms: C_6  and  N_7
REMARK    3  A    between atoms: N_7  and  C_8
REMARK    4  A    between atoms: C_11  and  N_12
REMARK    5  A    between atoms: N_12  and  S_13
REMARK    6  A    between atoms: S_13  and  C_14
REMARK    7  A    between atoms: C_18  and  C_19
REMARK    8  A    between atoms: C_24  and  C_25
REMARK                            x       y       z     vdW  Elec       q    Type
REMARK                         _______ _______ _______ _____ _____    ______ ____
ROOT
ATOM      1  C   UNL     1       6.437   5.128  14.306  0.00  0.00    +0.000 C 
ATOM      2  C   UNL     1       5.718   5.305  15.609  0.00  0.00    +0.000 A 
ATOM      3  C   UNL     1       5.848   6.483  16.328  0.00  0.00    +0.000 A 
ATOM      4  C   UNL     1       5.137   6.641  17.512  0.00  0.00    +0.000 A 
ATOM      5  C   UNL     1       4.233   5.658  17.989  0.00  0.00    +0.000 A 
ATOM      6  C   UNL     1       3.355   5.827  19.099  0.00  0.00    +0.000 A 
ATOM      7  C   UNL     1       2.660   4.699  19.619  0.00  0.00    +0.000 A 
ATOM      8  C   UNL     1       1.841   4.751  20.773  0.00  0.00    +0.000 A 
ATOM      9  C   UNL     1       1.202   3.615  21.262  0.00  0.00    +0.000 A 
ATOM     10  C   UNL     1       1.357   2.408  20.598  0.00  0.00    +0.000 A 
ATOM     11  C   UNL     1       2.140   2.338  19.435  0.00  0.00    +0.000 A 
ATOM     12  C   UNL     1       2.281   1.014  18.729  0.00  0.00    +0.000 C 
ATOM     13  C   UNL     1       2.793   3.475  18.930  0.00  0.00    +0.000 A 
ATOM     14  N   UNL     1       3.512   3.371  17.800  0.00  0.00    +0.000 NA
ATOM     15  C   UNL     1       4.210   4.421  17.333  0.00  0.00    +0.000 A 
ATOM     16  C   UNL     1       4.932   4.275  16.149  0.00  0.00    +0.000 A 
ENDROOT
BRANCH   6  17
ATOM     17  N   UNL     1       3.124   7.115  19.695  0.00  0.00    +0.000 N 
ATOM     18  H   UNL     1       3.958   7.476  20.140  0.00  0.00    +0.000 HD
BRANCH  17  19
ATOM     19  C   UNL     1       2.169   8.091  19.312  0.00  0.00    +0.000 A 
ATOM     20  C   UNL     1       2.199   8.622  18.008  0.00  0.00    +0.000 A 
ATOM     21  C   UNL     1       1.512   9.792  17.687  0.00  0.00    +0.000 A 
ATOM     22  C   UNL     1       0.748  10.424  18.657  0.00  0.00    +0.000 A 
ATOM     23  C   UNL     1       0.578   9.833  19.910  0.00  0.00    +0.000 A 
ATOM     24  C   UNL     1       1.284   8.660  20.251  0.00  0.00    +0.000 A 
ATOM     25  C   UNL     1       1.134   8.092  21.635  0.00  0.00    +0.000 C 
BRANCH  22  26
ATOM     26  N   UNL     1       0.201  11.705  18.370  0.00  0.00    +0.000 N 
ATOM     27  H   UNL     1      -0.203  11.828  17.441  0.00  0.00    +0.000 HD
BRANCH  26  28
ATOM     28  S   UNL     1       1.028  13.082  18.861  0.00  0.00    +0.000 S 
ATOM     29  C   UNL     1      -0.205  14.340  18.606  0.00  0.00    +0.000 C 
ATOM     30  O   UNL     1       1.348  12.997  20.268  0.00  0.00    +0.000 OA
ATOM     31  O   UNL     1       2.064  13.282  17.866  0.00  0.00    +0.000 OA
ENDBRANCH  26  28
ENDBRANCH  22  26
ENDBRANCH  17  19
ENDBRANCH   6  17
TORSDOF 4
ENDMDL
MODEL 3
REMARK VINA RESULT:      -8.0      3.778      8.779
REMARK  Name = 
REMARK  8 active torsions:
REMARK  status: ('A' for Active; 'I' for Inactive)
REMARK    1  A    between atoms: C_1  and  C_2
REMARK    2  A    between atoms: C_6  and  N_7
REMARK    3  A    between atoms: N_7  and  C_8
REMARK    4  A    between atoms: C_11  and  N_12
REMARK    5  A    between atoms: N_12  and  S_13
REMARK    6  A    between atoms: S_13  and  C_14
REMARK    7  A    between atoms: C_18  and  C_19
REMARK    8  A    between atoms: C_24  and  C_25
REMARK                            x       y       z     vdW  Elec       q    Type
REMARK                         _______ _______ _______ _____ _____    ______ ____
ROOT
ATOM      1  C   UNL     1      -3.854  10.586  15.021  0.00  0.00    +0.000 C 
ATOM      2  C   UNL     1      -3.103  10.625  16.317  0.00  0.00    +0.000 A 
ATOM      3  C   UNL     1      -2.009   9.798  16.519  0.00  0.00    +0.000 A 
ATOM      4  C   UNL     1      -1.302   9.883  17.713  0.00  0.00    +0.000 A 
ATOM      5  C   UNL     1      -1.626  10.829  18.719  0.00  0.00    +0.000 A 
ATOM      6  C   UNL     1      -0.845  11.080  19.885  0.00  0.00    +0.000 A 
ATOM      7  C   UNL     1      -1.384  11.887  20.926  0.00  0.00    +0.000 A 
ATOM      8  C   UNL     1      -0.723  12.114  22.159  0.00  0.00    +0.000 A 
ATOM      9  C   UNL     1      -1.300  12.889  23.160  0.00  0.00    +0.000 A 
ATOM     10  C   UNL     1      -2.543  13.465  22.945  0.00  0.00    +0.000 A 
ATOM     11  C   UNL     1      -3.204  13.277  21.721  0.00  0.00    +0.000 A 
ATOM     12  C   UNL     1      -4.549  13.925  21.512  0.00  0.00    +0.000 C 
ATOM     13  C   UNL     1      -2.635  12.496  20.700  0.00  0.00    +0.000 A 
ATOM     14  N   UNL     1      -3.289  12.364  19.534  0.00  0.00    +0.000 NA
ATOM     15  C   UNL     1      -2.808  11.563  18.567  0.00  0.00    +0.000 A 
ATOM     16  C   UNL     1      -3.511  11.464  17.366  0.00  0.00    +0.000 A 
ENDROOT
BRANCH   6  17
ATOM     17  N   UNL     1       0.489  10.565  20.031  0.00  0.00    +0.000 N 
ATOM     18  H   UNL     1       1.054  11.154  20.630  0.00  0.00    +0.000 HD
BRANCH  17  19
ATOM     19  C   UNL     1       0.917   9.217  19.927  0.00  0.00    +0.000 A 
ATOM     20  C   UNL     1       0.619   8.309  20.961  0.00  0.00    +0.000 A 
ATOM     21  C   UNL     1       1.280   7.086  21.064  0.00  0.00    +0.000 A 
ATOM     22  C   UNL     1       2.219   6.734  20.105  0.00  0.00    +0.000 A 
ATOM     23  C   UNL     1       2.418   7.547  18.988  0.00  0.00    +0.000 A 
ATOM     24  C   UNL     1       1.769   8.795  18.885  0.00  0.00    +0.000 A 
ATOM     25  C   UNL     1       2.063   9.678  17.704  0.00  0.00    +0.000 C 
BRANCH  22  26
ATOM     26  N   UNL     1       3.012   5.573  20.318  0.00  0.00    +0.000 N 
ATOM     27  H   UNL     1       3.982   5.730  20.594  0.00  0.00    +0.000 HD
BRANCH  26  28
ATOM     28  S   UNL     1       2.887   4.283  19.250  0.00  0.00    +0.000 S 
ATOM     29  C   UNL     1       3.263   2.909  20.316  0.00  0.00    +0.000 C 
ATOM     30  O   UNL     1       1.528   4.163  18.769  0.00  0.00    +0.000 OA
ATOM     31  O   UNL     1       3.997   4.437  18.330  0.00  0.00    +0.000 OA
ENDBRANCH  26  28
ENDBRANCH  22  26
ENDBRANCH  17  19
ENDBRANCH   6  17
TORSDOF 4
ENDMDL
MODEL 4
REMARK VINA RESULT:      -7.7      3.818      8.584
REMARK  Name = 
REMARK  8 active torsions:
REMARK  status: ('A' for Active; 'I' for Inactive)
REMARK    1  A    between atoms: C_1  and  C_2
REMARK    2  A    between atoms: C_6  and  N_7
REMARK    3  A    between atoms: N_7  and  C_8
REMARK    4  A    between atoms: C_11  and  N_12
REMARK    5  A    between atoms: N_12  and  S_13
REMARK    6  A    between atoms: S_13  and  C_14
REMARK    7  A    between atoms: C_18  and  C_19
REMARK    8  A    between atoms: C_24  and  C_25
REMARK                            x       y       z     vdW  Elec       q    Type
REMARK                         _______ _______ _______ _____ _____    ______ ____
ROOT
ATOM      1  C   UNL     1      -3.884  10.254  15.136  0.00  0.00    +0.000 C 
ATOM      2  C   UNL     1      -3.063  10.428  16.377  0.00  0.00    +0.000 A 
ATOM      3  C   UNL     1      -1.830   9.806  16.497  0.00  0.00    +0.000 A 
ATOM      4  C   UNL     1      -1.067  10.017  17.639  0.00  0.00    +0.000 A 
ATOM      5  C   UNL     1      -1.479  10.897  18.672  0.00  0.00    +0.000 A 
ATOM      6  C   UNL     1      -0.674  11.285  19.784  0.00  0.00    +0.000 A 
ATOM      7  C   UNL     1      -1.271  11.991  20.866  0.00  0.00    +0.000 A 
ATOM      8  C   UNL     1      -0.575  12.335  22.051  0.00  0.00    +0.000 A 
ATOM      9  C   UNL     1      -1.207  13.001  23.096  0.00  0.00    +0.000 A 
ATOM     10  C   UNL     1      -2.543  13.351  22.973  0.00  0.00    +0.000 A 
ATOM     11  C   UNL     1      -3.245  13.046  21.796  0.00  0.00    +0.000 A 
ATOM     12  C   UNL     1      -4.693  13.449  21.686  0.00  0.00    +0.000 C 
ATOM     13  C   UNL     1      -2.622  12.372  20.731  0.00  0.00    +0.000 A 
ATOM     14  N   UNL     1      -3.323  12.122  19.613  0.00  0.00    +0.000 NA
ATOM     15  C   UNL     1      -2.779  11.413  18.609  0.00  0.00    +0.000 A 
ATOM     16  C   UNL     1      -3.536  11.188  17.459  0.00  0.00    +0.000 A 
ENDROOT
BRANCH   6  17
ATOM     17  N   UNL     1       0.736  11.011  19.831  0.00  0.00    +0.000 N 
ATOM     18  H   UNL     1       1.223  11.662  20.435  0.00  0.00    +0.000 HD
BRANCH  17  19
ATOM     19  C   UNL     1       1.387   9.768  19.628  0.00  0.00    +0.000 A 
ATOM     20  C   UNL     1       1.969   9.481  18.379  0.00  0.00    +0.000 A 
ATOM     21  C   UNL     1       2.325   8.180  18.027  0.00  0.00    +0.000 A 
ATOM     22  C   UNL     1       2.144   7.151  18.940  0.00  0.00    +0.000 A 
ATOM     23  C   UNL     1       1.716   7.434  20.238  0.00  0.00    +0.000 A 
ATOM     24  C   UNL     1       1.335   8.744  20.597  0.00  0.00    +0.000 A 
ATOM     25  C   UNL     1       0.807   8.999  21.982  0.00  0.00    +0.000 C 
BRANCH  22  26
ATOM     26  N   UNL     1       2.341   5.811  18.509  0.00  0.00    +0.000 N 
ATOM     27  H   UNL     1       1.503   5.291  18.247  0.00  0.00    +0.000 HD
BRANCH  26  28
ATOM     28  S   UNL     1       3.430   4.832  19.332  0.00  0.00    +0.000 S 
ATOM     29  C   UNL     1       3.709   3.540  18.140  0.00  0.00    +0.000 C 
ATOM     30  O   UNL     1       4.665   5.547  19.567  0.00  0.00    +0.000 OA
ATOM     31  O   UNL     1       2.676   4.256  20.428  0.00  0.00    +0.000 OA
ENDBRANCH  26  28
ENDBRANCH  22  26
ENDBRANCH  17  19
ENDBRANCH   6  17
TORSDOF 4
ENDMDL
MODEL 5
REMARK VINA RESULT:      -7.6      2.032      2.671
REMARK  Name = 
REMARK  8 active torsions:
REMARK  status: ('A' for Active; 'I' for Inactive)
REMARK    1  A    between atoms: C_1  and  C_2
REMARK    2  A    between atoms: C_6  and  N_7
REMARK    3  A    between atoms: N_7  and  C_8
REMARK    4  A    between atoms: C_11  and  N_12
REMARK    5  A    between atoms: N_12  and  S_13
REMARK    6  A    between atoms: S_13  and  C_14
REMARK    7  A    between atoms: C_18  and  C_19
REMARK    8  A    between atoms: C_24  and  C_25
REMARK                            x       y       z     vdW  Elec       q    Type
REMARK                         _______ _______ _______ _____ _____    ______ ____
ROOT
ATOM      1  C   UNL     1       7.164   5.239  14.833  0.00  0.00    +0.000 C 
ATOM      2  C   UNL     1       6.119   5.391  15.896  0.00  0.00    +0.000 A 
ATOM      3  C   UNL     1       5.387   6.564  15.998  0.00  0.00    +0.000 A 
ATOM      4  C   UNL     1       4.393   6.666  16.964  0.00  0.00    +0.000 A 
ATOM      5  C   UNL     1       4.057   5.587  17.821  0.00  0.00    +0.000 A 
ATOM      6  C   UNL     1       2.945   5.569  18.713  0.00  0.00    +0.000 A 
ATOM      7  C   UNL     1       2.841   4.528  19.679  0.00  0.00    +0.000 A 
ATOM      8  C   UNL     1       1.826   4.479  20.665  0.00  0.00    +0.000 A 
ATOM      9  C   UNL     1       1.779   3.456  21.608  0.00  0.00    +0.000 A 
ATOM     10  C   UNL     1       2.737   2.454  21.574  0.00  0.00    +0.000 A 
ATOM     11  C   UNL     1       3.736   2.467  20.588  0.00  0.00    +0.000 A 
ATOM     12  C   UNL     1       4.757   1.358  20.570  0.00  0.00    +0.000 C 
ATOM     13  C   UNL     1       3.798   3.493  19.630  0.00  0.00    +0.000 A 
ATOM     14  N   UNL     1       4.754   3.455  18.687  0.00  0.00    +0.000 NA
ATOM     15  C   UNL     1       4.887   4.459  17.805  0.00  0.00    +0.000 A 
ATOM     16  C   UNL     1       5.885   4.373  16.834  0.00  0.00    +0.000 A 
ENDROOT
BRANCH   6  17
ATOM     17  N   UNL     1       1.904   6.558  18.648  0.00  0.00    +0.000 N 
ATOM     18  H   UNL     1       1.049   6.174  18.265  0.00  0.00    +0.000 HD
BRANCH  17  19
ATOM     19  C   UNL     1       1.742   7.706  19.464  0.00  0.00    +0.000 A 
ATOM     20  C   UNL     1       1.556   7.555  20.851  0.00  0.00    +0.000 A 
ATOM     21  C   UNL     1       1.076   8.602  21.636  0.00  0.00    +0.000 A 
ATOM     22  C   UNL     1       0.817   9.832  21.049  0.00  0.00    +0.000 A 
ATOM     23  C   UNL     1       1.140  10.051  19.709  0.00  0.00    +0.000 A 
ATOM     24  C   UNL     1       1.608   8.993  18.903  0.00  0.00    +0.000 A 
ATOM     25  C   UNL     1       1.876   9.246  17.444  0.00  0.00    +0.000 C 
BRANCH  22  26
ATOM     26  N   UNL     1       0.161  10.833  21.818  0.00  0.00    +0.000 N 
ATOM     27  H   UNL     1      -0.754  10.587  22.196  0.00  0.00    +0.000 HD
BRANCH  26  28
ATOM     28  S   UNL     1       0.193  12.428  21.292  0.00  0.00    +0.000 S 
ATOM     29  C   UNL     1      -0.737  13.237  22.576  0.00  0.00    +0.000 C 
ATOM     30  O   UNL     1       1.550  12.926  21.292  0.00  0.00    +0.000 OA
ATOM     31  O   UNL     1      -0.616  12.452  20.089  0.00  0.00    +0.000 OA
ENDBRANCH  26  28
ENDBRANCH  22  26
ENDBRANCH  17  19
ENDBRANCH   6  17
TORSDOF 4
ENDMDL
MODEL 6
REMARK VINA RESULT:      -7.3      4.087      9.318
REMARK  Name = 
REMARK  8 active torsions:
REMARK  status: ('A' for Active; 'I' for Inactive)
REMARK    1  A    between atoms: C_1  and  C_2
REMARK    2  A    between atoms: C_6  and  N_7
REMARK    3  A    between atoms: N_7  and  C_8
REMARK    4  A    between atoms: C_11  and  N_12
REMARK    5  A    between atoms: N_12  and  S_13
REMARK    6  A    between atoms: S_13  and  C_14
REMARK    7  A    between atoms: C_18  and  C_19
REMARK    8  A    between atoms: C_24  and  C_25
REMARK                            x       y       z     vdW  Elec       q    Type
REMARK                         _______ _______ _______ _____ _____    ______ ____
ROOT
ATOM      1  C   UNL     1      -3.162  14.423  24.339  0.00  0.00    +0.000 C 
ATOM      2  C   UNL     1      -2.554  13.756  23.143  0.00  0.00    +0.000 A 
ATOM      3  C   UNL     1      -1.184  13.556  23.071  0.00  0.00    +0.000 A 
ATOM      4  C   UNL     1      -0.648  12.896  21.972  0.00  0.00    +0.000 A 
ATOM      5  C   UNL     1      -1.459  12.365  20.937  0.00  0.00    +0.000 A 
ATOM      6  C   UNL     1      -0.990  11.539  19.874  0.00  0.00    +0.000 A 
ATOM      7  C   UNL     1      -1.853  11.253  18.779  0.00  0.00    +0.000 A 
ATOM      8  C   UNL     1      -1.446  10.522  17.636  0.00  0.00    +0.000 A 
ATOM      9  C   UNL     1      -2.316  10.290  16.574  0.00  0.00    +0.000 A 
ATOM     10  C   UNL     1      -3.614  10.773  16.640  0.00  0.00    +0.000 A 
ATOM     11  C   UNL     1      -4.048  11.475  17.775  0.00  0.00    +0.000 A 
ATOM     12  C   UNL     1      -5.468  11.978  17.822  0.00  0.00    +0.000 C 
ATOM     13  C   UNL     1      -3.182  11.719  18.855  0.00  0.00    +0.000 A 
ATOM     14  N   UNL     1      -3.644  12.373  19.933  0.00  0.00    +0.000 NA
ATOM     15  C   UNL     1      -2.822  12.688  20.948  0.00  0.00    +0.000 A 
ATOM     16  C   UNL     1      -3.346  13.355  22.055  0.00  0.00    +0.000 A 
ENDROOT
BRANCH   6  17
ATOM     17  N   UNL     1       0.323  10.955  19.890  0.00  0.00    +0.000 N 
ATOM     18  H   UNL     1       1.007  11.586  20.288  0.00  0.00    +0.000 HD
BRANCH  17  19
ATOM     19  C   UNL     1       0.663   9.580  19.942  0.00  0.00    +0.000 A 
ATOM     20  C   UNL     1       0.224   8.793  21.023  0.00  0.00    +0.000 A 
ATOM     21  C   UNL     1       0.789   7.546  21.288  0.00  0.00    +0.000 A 
ATOM     22  C   UNL     1       1.772   7.049  20.446  0.00  0.00    +0.000 A 
ATOM     23  C   UNL     1       2.113   7.739  19.282  0.00  0.00    +0.000 A 
ATOM     24  C   UNL     1       1.562   9.010  19.015  0.00  0.00    +0.000 A 
ATOM     25  C   UNL     1       2.007   9.759  17.789  0.00  0.00    +0.000 C 
BRANCH  22  26
ATOM     26  N   UNL     1       2.464   5.866  20.826  0.00  0.00    +0.000 N 
ATOM     27  H   UNL     1       3.095   5.945  21.624  0.00  0.00    +0.000 HD
BRANCH  26  28
ATOM     28  S   UNL     1       3.113   4.873  19.636  0.00  0.00    +0.000 S 
ATOM     29  C   UNL     1       1.673   4.521  18.651  0.00  0.00    +0.000 C 
ATOM     30  O   UNL     1       4.073   5.607  18.842  0.00  0.00    +0.000 OA
ATOM     31  O   UNL     1       3.483   3.648  20.318  0.00  0.00    +0.000 OA
ENDBRANCH  26  28
ENDBRANCH  22  26
ENDBRANCH  17  19
ENDBRANCH   6  17
TORSDOF 4
ENDMDL
MODEL 7
REMARK VINA RESULT:      -7.2      0.873      3.946
REMARK  Name = 
REMARK  8 active torsions:
REMARK  status: ('A' for Active; 'I' for Inactive)
REMARK    1  A    between atoms: C_1  and  C_2
REMARK    2  A    between atoms: C_6  and  N_7
REMARK    3  A    between atoms: N_7  and  C_8
REMARK    4  A    between atoms: C_11  and  N_12
REMARK    5  A    between atoms: N_12  and  S_13
REMARK    6  A    between atoms: S_13  and  C_14
REMARK    7  A    between atoms: C_18  and  C_19
REMARK    8  A    between atoms: C_24  and  C_25
REMARK                            x       y       z     vdW  Elec       q    Type
REMARK                         _______ _______ _______ _____ _____    ______ ____
ROOT
ATOM      1  C   UNL     1       1.966   1.824  21.896  0.00  0.00    +0.000 C 
ATOM      2  C   UNL     1       2.198   3.012  21.013  0.00  0.00    +0.000 A 
ATOM      3  C   UNL     1       1.535   4.206  21.255  0.00  0.00    +0.000 A 
ATOM      4  C   UNL     1       1.799   5.307  20.450  0.00  0.00    +0.000 A 
ATOM      5  C   UNL     1       2.770   5.274  19.416  0.00  0.00    +0.000 A 
ATOM      6  C   UNL     1       3.205   6.408  18.669  0.00  0.00    +0.000 A 
ATOM      7  C   UNL     1       4.014   6.214  17.514  0.00  0.00    +0.000 A 
ATOM      8  C   UNL     1       4.416   7.269  16.657  0.00  0.00    +0.000 A 
ATOM      9  C   UNL     1       5.184   7.029  15.522  0.00  0.00    +0.000 A 
ATOM     10  C   UNL     1       5.579   5.733  15.228  0.00  0.00    +0.000 A 
ATOM     11  C   UNL     1       5.217   4.676  16.077  0.00  0.00    +0.000 A 
ATOM     12  C   UNL     1       5.670   3.279  15.737  0.00  0.00    +0.000 C 
ATOM     13  C   UNL     1       4.440   4.900  17.227  0.00  0.00    +0.000 A 
ATOM     14  N   UNL     1       4.137   3.865  18.027  0.00  0.00    +0.000 NA
ATOM     15  C   UNL     1       3.333   4.034  19.091  0.00  0.00    +0.000 A 
ATOM     16  C   UNL     1       3.055   2.936  19.904  0.00  0.00    +0.000 A 
ENDROOT
BRANCH   6  17
ATOM     17  N   UNL     1       2.877   7.750  19.065  0.00  0.00    +0.000 N 
ATOM     18  H   UNL     1       3.687   8.357  19.034  0.00  0.00    +0.000 HD
BRANCH  17  19
ATOM     19  C   UNL     1       1.623   8.404  18.965  0.00  0.00    +0.000 A 
ATOM     20  C   UNL     1       1.088   8.696  17.696  0.00  0.00    +0.000 A 
ATOM     21  C   UNL     1       0.044   9.607  17.543  0.00  0.00    +0.000 A 
ATOM     22  C   UNL     1      -0.511  10.206  18.664  0.00  0.00    +0.000 A 
ATOM     23  C   UNL     1      -0.103   9.816  19.941  0.00  0.00    +0.000 A 
ATOM     24  C   UNL     1       0.966   8.910  20.106  0.00  0.00    +0.000 A 
ATOM     25  C   UNL     1       1.428   8.569  21.496  0.00  0.00    +0.000 C 
BRANCH  22  26
ATOM     26  N   UNL     1      -1.447  11.261  18.485  0.00  0.00    +0.000 N 
ATOM     27  H   UNL     1      -1.513  11.943  19.241  0.00  0.00    +0.000 HD
BRANCH  26  28
ATOM     28  S   UNL     1      -2.961  10.918  17.842  0.00  0.00    +0.000 S 
ATOM     29  C   UNL     1      -2.703  11.287  16.121  0.00  0.00    +0.000 C 
ATOM     30  O   UNL     1      -3.261   9.512  17.995  0.00  0.00    +0.000 OA
ATOM     31  O   UNL     1      -3.844  11.937  18.378  0.00  0.00    +0.000 OA
ENDBRANCH  26  28
ENDBRANCH  22  26
ENDBRANCH  17  19
ENDBRANCH   6  17
TORSDOF 4
ENDMDL
MODEL 8
REMARK VINA RESULT:      -7.2      6.750      9.535
REMARK  Name = 
REMARK  8 active torsions:
REMARK  status: ('A' for Active; 'I' for Inactive)
REMARK    1  A    between atoms: C_1  and  C_2
REMARK    2  A    between atoms: C_6  and  N_7
REMARK    3  A    between atoms: N_7  and  C_8
REMARK    4  A    between atoms: C_11  and  N_12
REMARK    5  A    between atoms: N_12  and  S_13
REMARK    6  A    between atoms: S_13  and  C_14
REMARK    7  A    between atoms: C_18  and  C_19
REMARK    8  A    between atoms: C_24  and  C_25
REMARK                            x       y       z     vdW  Elec       q    Type
REMARK                         _______ _______ _______ _____ _____    ______ ____
ROOT
ATOM      1  C   UNL     1      -3.147   9.889  14.312  0.00  0.00    +0.000 C 
ATOM      2  C   UNL     1      -3.109  10.349  15.738  0.00  0.00    +0.000 A 
ATOM      3  C   UNL     1      -2.023  10.045  16.545  0.00  0.00    +0.000 A 
ATOM      4  C   UNL     1      -1.991  10.518  17.851  0.00  0.00    +0.000 A 
ATOM      5  C   UNL     1      -3.008  11.355  18.379  0.00  0.00    +0.000 A 
ATOM      6  C   UNL     1      -2.953  12.006  19.646  0.00  0.00    +0.000 A 
ATOM      7  C   UNL     1      -4.122  12.634  20.160  0.00  0.00    +0.000 A 
ATOM      8  C   UNL     1      -4.190  13.224  21.446  0.00  0.00    +0.000 A 
ATOM      9  C   UNL     1      -5.364  13.802  21.919  0.00  0.00    +0.000 A 
ATOM     10  C   UNL     1      -6.490  13.817  21.109  0.00  0.00    +0.000 A 
ATOM     11  C   UNL     1      -6.438  13.265  19.820  0.00  0.00    +0.000 A 
ATOM     12  C   UNL     1      -7.675  13.306  18.959  0.00  0.00    +0.000 C 
ATOM     13  C   UNL     1      -5.261  12.675  19.328  0.00  0.00    +0.000 A 
ATOM     14  N   UNL     1      -5.246  12.181  18.079  0.00  0.00    +0.000 NA
ATOM     15  C   UNL     1      -4.161  11.544  17.607  0.00  0.00    +0.000 A 
ATOM     16  C   UNL     1      -4.182  11.058  16.301  0.00  0.00    +0.000 A 
ENDROOT
BRANCH   6  17
ATOM     17  N   UNL     1      -1.738  12.076  20.411  0.00  0.00    +0.000 N 
ATOM     18  H   UNL     1      -1.666  11.310  21.069  0.00  0.00    +0.000 HD
BRANCH  17  19
ATOM     19  C   UNL     1      -0.507  12.672  20.036  0.00  0.00    +0.000 A 
ATOM     20  C   UNL     1      -0.491  13.994  19.553  0.00  0.00    +0.000 A 
ATOM     21  C   UNL     1       0.617  14.504  18.877  0.00  0.00    +0.000 A 
ATOM     22  C   UNL     1       1.743  13.711  18.715  0.00  0.00    +0.000 A 
ATOM     23  C   UNL     1       1.809  12.454  19.320  0.00  0.00    +0.000 A 
ATOM     24  C   UNL     1       0.687  11.922  19.988  0.00  0.00    +0.000 A 
ATOM     25  C   UNL     1       0.768  10.535  20.564  0.00  0.00    +0.000 C 
BRANCH  22  26
ATOM     26  N   UNL     1       2.792  14.175  17.873  0.00  0.00    +0.000 N 
ATOM     27  H   UNL     1       3.042  13.574  17.087  0.00  0.00    +0.000 HD
BRANCH  26  28
ATOM     28  S   UNL     1       4.155  14.872  18.564  0.00  0.00    +0.000 S 
ATOM     29  C   UNL     1       4.017  16.551  17.993  0.00  0.00    +0.000 C 
ATOM     30  O   UNL     1       4.055  14.842  20.006  0.00  0.00    +0.000 OA
ATOM     31  O   UNL     1       5.282  14.271  17.877  0.00  0.00    +0.000 OA
ENDBRANCH  26  28
ENDBRANCH  22  26
ENDBRANCH  17  19
ENDBRANCH   6  17
TORSDOF 4
ENDMDL
MODEL 9
REMARK VINA RESULT:      -7.1      4.552      8.525
REMARK  Name = 
REMARK  8 active torsions:
REMARK  status: ('A' for Active; 'I' for Inactive)
REMARK    1  A    between atoms: C_1  and  C_2
REMARK    2  A    between atoms: C_6  and  N_7
REMARK    3  A    between atoms: N_7  and  C_8
REMARK    4  A    between atoms: C_11  and  N_12
REMARK    5  A    between atoms: N_12  and  S_13
REMARK    6  A    between atoms: S_13  and  C_14
REMARK    7  A    between atoms: C_18  and  C_19
REMARK    8  A    between atoms: C_24  and  C_25
REMARK                            x       y       z     vdW  Elec       q    Type
REMARK                         _______ _______ _______ _____ _____    ______ ____
ROOT
ATOM      1  C   UNL     1       4.583  15.124  18.150  0.00  0.00    +0.000 C 
ATOM      2  C   UNL     1       3.413  14.307  18.604  0.00  0.00    +0.000 A 
ATOM      3  C   UNL     1       2.994  13.210  17.865  0.00  0.00    +0.000 A 
ATOM      4  C   UNL     1       1.934  12.441  18.328  0.00  0.00    +0.000 A 
ATOM      5  C   UNL     1       1.292  12.703  19.566  0.00  0.00    +0.000 A 
ATOM      6  C   UNL     1       0.316  11.860  20.174  0.00  0.00    +0.000 A 
ATOM      7  C   UNL     1      -0.415  12.336  21.299  0.00  0.00    +0.000 A 
ATOM      8  C   UNL     1      -1.466  11.609  21.910  0.00  0.00    +0.000 A 
ATOM      9  C   UNL     1      -2.173  12.126  22.991  0.00  0.00    +0.000 A 
ATOM     10  C   UNL     1      -1.834  13.373  23.493  0.00  0.00    +0.000 A 
ATOM     11  C   UNL     1      -0.777  14.100  22.922  0.00  0.00    +0.000 A 
ATOM     12  C   UNL     1      -0.425  15.448  23.496  0.00  0.00    +0.000 C 
ATOM     13  C   UNL     1      -0.054  13.592  21.828  0.00  0.00    +0.000 A 
ATOM     14  N   UNL     1       0.966  14.307  21.328  0.00  0.00    +0.000 NA
ATOM     15  C   UNL     1       1.628  13.886  20.236  0.00  0.00    +0.000 A 
ATOM     16  C   UNL     1       2.691  14.651  19.757  0.00  0.00    +0.000 A 
ENDROOT
BRANCH   6  17
ATOM     17  N   UNL     1       0.068  10.524  19.704  0.00  0.00    +0.000 N 
ATOM     18  H   UNL     1      -0.770  10.477  19.138  0.00  0.00    +0.000 HD
BRANCH  17  19
ATOM     19  C   UNL     1       1.014   9.493  19.474  0.00  0.00    +0.000 A 
ATOM     20  C   UNL     1       1.499   9.269  18.172  0.00  0.00    +0.000 A 
ATOM     21  C   UNL     1       2.163   8.089  17.840  0.00  0.00    +0.000 A 
ATOM     22  C   UNL     1       2.390   7.134  18.820  0.00  0.00    +0.000 A 
ATOM     23  C   UNL     1       2.057   7.400  20.149  0.00  0.00    +0.000 A 
ATOM     24  C   UNL     1       1.369   8.583  20.492  0.00  0.00    +0.000 A 
ATOM     25  C   UNL     1       0.959   8.803  21.922  0.00  0.00    +0.000 C 
BRANCH  22  26
ATOM     26  N   UNL     1       2.904   5.865  18.434  0.00  0.00    +0.000 N 
ATOM     27  H   UNL     1       2.455   5.048  18.848  0.00  0.00    +0.000 HD
BRANCH  26  28
ATOM     28  S   UNL     1       4.566   5.650  18.317  0.00  0.00    +0.000 S 
ATOM     29  C   UNL     1       4.658   4.060  17.522  0.00  0.00    +0.000 C 
ATOM     30  O   UNL     1       5.140   6.656  17.452  0.00  0.00    +0.000 OA
ATOM     31  O   UNL     1       5.028   5.482  19.681  0.00  0.00    +0.000 OA
ENDBRANCH  26  28
ENDBRANCH  22  26
ENDBRANCH  17  19
ENDBRANCH   6  17
TORSDOF 4
ENDMDL
