MODEL 1
REMARK VINA RESULT:      -9.4      0.000      0.000
REMARK  Name = 
REMARK  11 active torsions:
REMARK  status: ('A' for Active; 'I' for Inactive)
REMARK    1  A    between atoms: C_1  and  C_2
REMARK    2  A    between atoms: C_2  and  C_3
REMARK    3  A    between atoms: C_2  and  C_4
REMARK    4  A    between atoms: C_4  and  C_5
REMARK    5  A    between atoms: C_5  and  C_6
REMARK    6  A    between atoms: C_7  and  C_8
REMARK    7  A    between atoms: C_11  and  O_12
REMARK    8  A    between atoms: O_12  and  C_13
REMARK    9  A    between atoms: C_13  and  C_14
REMARK   10  A    between atoms: C_25  and  C_26
REMARK   11  A    between atoms: C_26  and  O_28
REMARK                            x       y       z     vdW  Elec       q    Type
REMARK                         _______ _______ _______ _____ _____    ______ ____
ROOT
ATOM      1  C   UNL     1       3.102   5.694  19.175  0.00  0.00    +0.000 A 
ATOM      2  C   UNL     1       3.000   6.918  18.595  0.00  0.00    +0.000 A 
ATOM      3  N   UNL     1       3.670   7.250  17.427  0.00  0.00    +0.000 N 
ATOM      4  C   UNL     1       4.471   6.383  16.788  0.00  0.00    +0.000 A 
ATOM      5  C   UNL     1       5.244   6.453  15.664  0.00  0.00    +0.000 A 
ATOM      6  C   UNL     1       5.828   5.167  15.553  0.00  0.00    +0.000 A 
ATOM      7  N   UNL     1       5.437   4.341  16.548  0.00  0.00    +0.000 NA
ATOM      8  N   UNL     1       4.596   5.115  17.301  0.00  0.00    +0.000 N 
ATOM      9  C   UNL     1       3.935   4.653  18.454  0.00  0.00    +0.000 A 
ATOM     10  O   UNL     1       4.045   3.484  18.800  0.00  0.00    +0.000 OA
ATOM     11  H   UNL     1       3.531   8.206  17.090  0.00  0.00    +0.000 HD
ENDROOT
BRANCH   2  12
ATOM     12  C   UNL     1       2.198   8.046  19.113  0.00  0.00    +0.000 A 
ATOM     13  C   UNL     1       1.751   9.032  18.229  0.00  0.00    +0.000 A 
ATOM     14  C   UNL     1       0.754   9.928  18.611  0.00  0.00    +0.000 A 
ATOM     15  C   UNL     1       0.146   9.811  19.864  0.00  0.00    +0.000 A 
ATOM     16  C   UNL     1       0.643   8.887  20.783  0.00  0.00    +0.000 A 
ATOM     17  C   UNL     1       1.667   8.005  20.411  0.00  0.00    +0.000 A 
BRANCH  15  18
ATOM     18  O   UNL     1      -0.959  10.525  20.253  0.00  0.00    +0.000 OA
BRANCH  18  19
ATOM     19  C   UNL     1      -1.203  11.702  19.470  0.00  0.00    +0.000 C 
BRANCH  19  20
ATOM     20  C   UNL     1      -2.502  11.583  18.710  0.00  0.00    +0.000 A 
ATOM     21  C   UNL     1      -2.545  10.935  17.469  0.00  0.00    +0.000 A 
ATOM     22  C   UNL     1      -3.756  10.791  16.790  0.00  0.00    +0.000 A 
ATOM     23  C   UNL     1      -4.933  11.296  17.342  0.00  0.00    +0.000 A 
ATOM     24  C   UNL     1      -4.902  11.942  18.576  0.00  0.00    +0.000 A 
ATOM     25  C   UNL     1      -3.693  12.083  19.258  0.00  0.00    +0.000 A 
ENDBRANCH  19  20
ENDBRANCH  18  19
ENDBRANCH  15  18
ENDBRANCH   2  12
BRANCH   6  26
ATOM     26  C   UNL     1       6.754   4.702  14.519  0.00  0.00    +0.000 C 
ATOM     27  O   UNL     1       6.536   3.757  13.776  0.00  0.00    +0.000 OA
BRANCH  26  28
ATOM     28  O   UNL     1       7.894   5.443  14.467  0.00  0.00    +0.000 OA
ATOM     29  H   UNL     1       7.622   6.376  14.288  0.00  0.00    +0.000 HD
ENDBRANCH  26  28
ENDBRANCH   6  26
BRANCH   1  30
ATOM     30  C   UNL     1       2.403   5.211  20.426  0.00  0.00    +0.000 C 
BRANCH  30  31
ATOM     31  C   UNL     1       1.005   4.581  20.245  0.00  0.00    +0.000 C 
BRANCH  31  33
ATOM     32  C   UNL     1       0.949   2.247  19.233  0.00  0.00    +0.000 C 
ATOM     33  C   UNL     1       0.880   3.071  20.516  0.00  0.00    +0.000 C 
ATOM     34  C   UNL     1       2.014   2.626  21.450  0.00  0.00    +0.000 C 
ENDBRANCH  31  33
ENDBRANCH  30  31
ENDBRANCH   1  30
TORSDOF 9
ENDMDL
MODEL 2
REMARK VINA RESULT:      -9.3      1.566      2.163
REMARK  Name = 
REMARK  11 active torsions:
REMARK  status: ('A' for Active; 'I' for Inactive)
REMARK    1  A    between atoms: C_1  and  C_2
REMARK    2  A    between atoms: C_2  and  C_3
REMARK    3  A    between atoms: C_2  and  C_4
REMARK    4  A    between atoms: C_4  and  C_5
REMARK    5  A    between atoms: C_5  and  C_6
REMARK    6  A    between atoms: C_7  and  C_8
REMARK    7  A    between atoms: C_11  and  O_12
REMARK    8  A    between atoms: O_12  and  C_13
REMARK    9  A    between atoms: C_13  and  C_14
REMARK   10  A    between atoms: C_25  and  C_26
REMARK   11  A    between atoms: C_26  and  O_28
REMARK                            x       y       z     vdW  Elec       q    Type
REMARK                         _______ _______ _______ _____ _____    ______ ____
ROOT
ATOM      1  C   UNL     1       3.145   5.729  19.199  0.00  0.00    +0.000 A 
ATOM      2  C   UNL     1       3.012   6.934  18.586  0.00  0.00    +0.000 A 
ATOM      3  N   UNL     1       3.670   7.250  17.407  0.00  0.00    +0.000 N 
ATOM      4  C   UNL     1       4.488   6.384  16.788  0.00  0.00    +0.000 A 
ATOM      5  C   UNL     1       5.255   6.441  15.658  0.00  0.00    +0.000 A 
ATOM      6  C   UNL     1       5.868   5.167  15.580  0.00  0.00    +0.000 A 
ATOM      7  N   UNL     1       5.500   4.359  16.599  0.00  0.00    +0.000 NA
ATOM      8  N   UNL     1       4.645   5.134  17.334  0.00  0.00    +0.000 N 
ATOM      9  C   UNL     1       3.999   4.688  18.502  0.00  0.00    +0.000 A 
ATOM     10  O   UNL     1       4.137   3.532  18.880  0.00  0.00    +0.000 OA
ATOM     11  H   UNL     1       3.508   8.193  17.044  0.00  0.00    +0.000 HD
ENDROOT
BRANCH   2  12
ATOM     12  C   UNL     1       2.187   8.057  19.077  0.00  0.00    +0.000 A 
ATOM     13  C   UNL     1       1.652   8.967  18.160  0.00  0.00    +0.000 A 
ATOM     14  C   UNL     1       0.635   9.842  18.539  0.00  0.00    +0.000 A 
ATOM     15  C   UNL     1       0.096   9.776  19.827  0.00  0.00    +0.000 A 
ATOM     16  C   UNL     1       0.679   8.934  20.773  0.00  0.00    +0.000 A 
ATOM     17  C   UNL     1       1.722   8.074  20.401  0.00  0.00    +0.000 A 
BRANCH  15  18
ATOM     18  O   UNL     1      -1.020  10.466  20.229  0.00  0.00    +0.000 OA
BRANCH  18  19
ATOM     19  C   UNL     1      -0.737  11.644  20.998  0.00  0.00    +0.000 C 
BRANCH  19  20
ATOM     20  C   UNL     1      -1.977  12.136  21.704  0.00  0.00    +0.000 A 
ATOM     21  C   UNL     1      -2.983  12.807  20.995  0.00  0.00    +0.000 A 
ATOM     22  C   UNL     1      -4.146  13.223  21.645  0.00  0.00    +0.000 A 
ATOM     23  C   UNL     1      -4.314  12.977  23.007  0.00  0.00    +0.000 A 
ATOM     24  C   UNL     1      -3.320  12.311  23.722  0.00  0.00    +0.000 A 
ATOM     25  C   UNL     1      -2.158  11.891  23.073  0.00  0.00    +0.000 A 
ENDBRANCH  19  20
ENDBRANCH  18  19
ENDBRANCH  15  18
ENDBRANCH   2  12
BRANCH   6  26
ATOM     26  C   UNL     1       6.801   4.695  14.554  0.00  0.00    +0.000 C 
ATOM     27  O   UNL     1       7.805   5.300  14.208  0.00  0.00    +0.000 OA
BRANCH  26  28
ATOM     28  O   UNL     1       6.432   3.498  14.024  0.00  0.00    +0.000 OA
ATOM     29  H   UNL     1       5.450   3.521  13.919  0.00  0.00    +0.000 HD
ENDBRANCH  26  28
ENDBRANCH   6  26
BRANCH   1  30
ATOM     30  C   UNL     1       2.462   5.264  20.465  0.00  0.00    +0.000 C 
BRANCH  30  31
ATOM     31  C   UNL     1       1.051   4.656  20.315  0.00  0.00    +0.000 C 
BRANCH  31  33
ATOM     32  C   UNL     1       1.029   2.351  19.235  0.00  0.00    +0.000 C 
ATOM     33  C   UNL     1       0.918   3.139  20.538  0.00  0.00    +0.000 C 
ATOM     34  C   UNL     1       2.021   2.667  21.496  0.00  0.00    +0.000 C 
ENDBRANCH  31  33
ENDBRANCH  30  31
ENDBRANCH   1  30
TORSDOF 9
ENDMDL
MODEL 3
REMARK VINA RESULT:      -9.2      2.065      2.813
REMARK  Name = 
REMARK  11 active torsions:
REMARK  status: ('A' for Active; 'I' for Inactive)
REMARK    1  A    between atoms: C_1  and  C_2
REMARK    2  A    between atoms: C_2  and  C_3
REMARK    3  A    between atoms: C_2  and  C_4
REMARK    4  A    between atoms: C_4  and  C_5
REMARK    5  A    between atoms: C_5  and  C_6
REMARK    6  A    between atoms: C_7  and  C_8
REMARK    7  A    between atoms: C_11  and  O_12
REMARK    8  A    between atoms: O_12  and  C_13
REMARK    9  A    between atoms: C_13  and  C_14
REMARK   10  A    between atoms: C_25  and  C_26
REMARK   11  A    between atoms: C_26  and  O_28
REMARK                            x       y       z     vdW  Elec       q    Type
REMARK                         _______ _______ _______ _____ _____    ______ ____
ROOT
ATOM      1  C   UNL     1       3.051   5.799  19.281  0.00  0.00    +0.000 A 
ATOM      2  C   UNL     1       2.813   6.941  18.585  0.00  0.00    +0.000 A 
ATOM      3  N   UNL     1       3.472   7.247  17.404  0.00  0.00    +0.000 N 
ATOM      4  C   UNL     1       4.396   6.436  16.866  0.00  0.00    +0.000 A 
ATOM      5  C   UNL     1       5.189   6.500  15.756  0.00  0.00    +0.000 A 
ATOM      6  C   UNL     1       5.935   5.296  15.780  0.00  0.00    +0.000 A 
ATOM      7  N   UNL     1       5.620   4.522  16.842  0.00  0.00    +0.000 NA
ATOM      8  N   UNL     1       4.665   5.247  17.500  0.00  0.00    +0.000 N 
ATOM      9  C   UNL     1       4.032   4.812  18.679  0.00  0.00    +0.000 A 
ATOM     10  O   UNL     1       4.278   3.704  19.138  0.00  0.00    +0.000 OA
ATOM     11  H   UNL     1       3.224   8.142  16.974  0.00  0.00    +0.000 HD
ENDROOT
BRANCH   2  12
ATOM     12  C   UNL     1       1.859   7.999  18.977  0.00  0.00    +0.000 A 
ATOM     13  C   UNL     1       1.643   8.258  20.334  0.00  0.00    +0.000 A 
ATOM     14  C   UNL     1       1.003   9.427  20.740  0.00  0.00    +0.000 A 
ATOM     15  C   UNL     1       0.624  10.385  19.795  0.00  0.00    +0.000 A 
ATOM     16  C   UNL     1       0.756  10.098  18.437  0.00  0.00    +0.000 A 
ATOM     17  C   UNL     1       1.373   8.908  18.026  0.00  0.00    +0.000 A 
BRANCH  15  18
ATOM     18  O   UNL     1       0.157  11.635  20.112  0.00  0.00    +0.000 OA
BRANCH  18  19
ATOM     19  C   UNL     1       0.594  12.119  21.391  0.00  0.00    +0.000 C 
BRANCH  19  20
ATOM     20  C   UNL     1      -0.581  12.557  22.230  0.00  0.00    +0.000 A 
ATOM     21  C   UNL     1      -0.701  13.888  22.651  0.00  0.00    +0.000 A 
ATOM     22  C   UNL     1      -1.811  14.297  23.392  0.00  0.00    +0.000 A 
ATOM     23  C   UNL     1      -2.808  13.380  23.723  0.00  0.00    +0.000 A 
ATOM     24  C   UNL     1      -2.700  12.054  23.310  0.00  0.00    +0.000 A 
ATOM     25  C   UNL     1      -1.593  11.645  22.566  0.00  0.00    +0.000 A 
ENDBRANCH  19  20
ENDBRANCH  18  19
ENDBRANCH  15  18
ENDBRANCH   2  12
BRANCH   6  26
ATOM     26  C   UNL     1       6.944   4.861  14.813  0.00  0.00    +0.000 C 
ATOM     27  O   UNL     1       7.942   5.504  14.525  0.00  0.00    +0.000 OA
BRANCH  26  28
ATOM     28  O   UNL     1       6.655   3.650  14.265  0.00  0.00    +0.000 OA
ATOM     29  H   UNL     1       6.972   3.675  13.329  0.00  0.00    +0.000 HD
ENDBRANCH  26  28
ENDBRANCH   6  26
BRANCH   1  30
ATOM     30  C   UNL     1       2.380   5.347  20.558  0.00  0.00    +0.000 C 
BRANCH  30  31
ATOM     31  C   UNL     1       1.017   4.634  20.417  0.00  0.00    +0.000 C 
BRANCH  31  33
ATOM     32  C   UNL     1       1.177   2.343  19.321  0.00  0.00    +0.000 C 
ATOM     33  C   UNL     1       1.003   3.110  20.629  0.00  0.00    +0.000 C 
ATOM     34  C   UNL     1       2.138   2.719  21.586  0.00  0.00    +0.000 C 
ENDBRANCH  31  33
ENDBRANCH  30  31
ENDBRANCH   1  30
TORSDOF 9
ENDMDL
MODEL 4
REMARK VINA RESULT:      -9.2      1.450      2.176
REMARK  Name = 
REMARK  11 active torsions:
REMARK  status: ('A' for Active; 'I' for Inactive)
REMARK    1  A    between atoms: C_1  and  C_2
REMARK    2  A    between atoms: C_2  and  C_3
REMARK    3  A    between atoms: C_2  and  C_4
REMARK    4  A    between atoms: C_4  and  C_5
REMARK    5  A    between atoms: C_5  and  C_6
REMARK    6  A    between atoms: C_7  and  C_8
REMARK    7  A    between atoms: C_11  and  O_12
REMARK    8  A    between atoms: O_12  and  C_13
REMARK    9  A    between atoms: C_13  and  C_14
REMARK   10  A    between atoms: C_25  and  C_26
REMARK   11  A    between atoms: C_26  and  O_28
REMARK                            x       y       z     vdW  Elec       q    Type
REMARK                         _______ _______ _______ _____ _____    ______ ____
ROOT
ATOM      1  C   UNL     1       3.099   5.669  19.312  0.00  0.00    +0.000 A 
ATOM      2  C   UNL     1       2.889   6.856  18.686  0.00  0.00    +0.000 A 
ATOM      3  N   UNL     1       3.524   7.199  17.501  0.00  0.00    +0.000 N 
ATOM      4  C   UNL     1       4.395   6.381  16.891  0.00  0.00    +0.000 A 
ATOM      5  C   UNL     1       5.155   6.473  15.760  0.00  0.00    +0.000 A 
ATOM      6  C   UNL     1       5.849   5.240  15.695  0.00  0.00    +0.000 A 
ATOM      7  N   UNL     1       5.535   4.423  16.725  0.00  0.00    +0.000 NA
ATOM      8  N   UNL     1       4.633   5.149  17.452  0.00  0.00    +0.000 N 
ATOM      9  C   UNL     1       4.018   4.677  18.626  0.00  0.00    +0.000 A 
ATOM     10  O   UNL     1       4.230   3.537  19.017  0.00  0.00    +0.000 OA
ATOM     11  H   UNL     1       3.301   8.125  17.128  0.00  0.00    +0.000 HD
ENDROOT
BRANCH   2  12
ATOM     12  C   UNL     1       1.994   7.929  19.165  0.00  0.00    +0.000 A 
ATOM     13  C   UNL     1       1.687   8.009  20.527  0.00  0.00    +0.000 A 
ATOM     14  C   UNL     1       1.111   9.162  21.058  0.00  0.00    +0.000 A 
ATOM     15  C   UNL     1       0.890  10.276  20.244  0.00  0.00    +0.000 A 
ATOM     16  C   UNL     1       1.111  10.177  18.871  0.00  0.00    +0.000 A 
ATOM     17  C   UNL     1       1.663   9.007  18.330  0.00  0.00    +0.000 A 
BRANCH  15  18
ATOM     18  O   UNL     1       0.500  11.505  20.712  0.00  0.00    +0.000 OA
BRANCH  18  19
ATOM     19  C   UNL     1      -0.643  12.054  20.042  0.00  0.00    +0.000 C 
BRANCH  19  20
ATOM     20  C   UNL     1      -1.793  12.237  21.002  0.00  0.00    +0.000 A 
ATOM     21  C   UNL     1      -1.627  11.985  22.370  0.00  0.00    +0.000 A 
ATOM     22  C   UNL     1      -2.682  12.196  23.259  0.00  0.00    +0.000 A 
ATOM     23  C   UNL     1      -3.912  12.656  22.791  0.00  0.00    +0.000 A 
ATOM     24  C   UNL     1      -4.089  12.909  21.432  0.00  0.00    +0.000 A 
ATOM     25  C   UNL     1      -3.034  12.703  20.542  0.00  0.00    +0.000 A 
ENDBRANCH  19  20
ENDBRANCH  18  19
ENDBRANCH  15  18
ENDBRANCH   2  12
BRANCH   6  26
ATOM     26  C   UNL     1       6.809   4.817  14.674  0.00  0.00    +0.000 C 
ATOM     27  O   UNL     1       6.652   3.853  13.940  0.00  0.00    +0.000 OA
BRANCH  26  28
ATOM     28  O   UNL     1       7.906   5.621  14.623  0.00  0.00    +0.000 OA
ATOM     29  H   UNL     1       7.594   6.542  14.801  0.00  0.00    +0.000 HD
ENDBRANCH  26  28
ENDBRANCH   6  26
BRANCH   1  30
ATOM     30  C   UNL     1       2.449   5.177  20.585  0.00  0.00    +0.000 C 
BRANCH  30  31
ATOM     31  C   UNL     1       1.063   4.510  20.449  0.00  0.00    +0.000 C 
BRANCH  31  33
ATOM     32  C   UNL     1       1.142   2.241  19.299  0.00  0.00    +0.000 C 
ATOM     33  C   UNL     1       1.003   2.982  20.626  0.00  0.00    +0.000 C 
ATOM     34  C   UNL     1       2.134   2.535  21.563  0.00  0.00    +0.000 C 
ENDBRANCH  31  33
ENDBRANCH  30  31
ENDBRANCH   1  30
TORSDOF 9
ENDMDL
MODEL 5
REMARK VINA RESULT:      -9.1      0.665      1.469
REMARK  Name = 
REMARK  11 active torsions:
REMARK  status: ('A' for Active; 'I' for Inactive)
REMARK    1  A    between atoms: C_1  and  C_2
REMARK    2  A    between atoms: C_2  and  C_3
REMARK    3  A    between atoms: C_2  and  C_4
REMARK    4  A    between atoms: C_4  and  C_5
REMARK    5  A    between atoms: C_5  and  C_6
REMARK    6  A    between atoms: C_7  and  C_8
REMARK    7  A    between atoms: C_11  and  O_12
REMARK    8  A    between atoms: O_12  and  C_13
REMARK    9  A    between atoms: C_13  and  C_14
REMARK   10  A    between atoms: C_25  and  C_26
REMARK   11  A    between atoms: C_26  and  O_28
REMARK                            x       y       z     vdW  Elec       q    Type
REMARK                         _______ _______ _______ _____ _____    ______ ____
ROOT
ATOM      1  C   UNL     1       3.099   5.704  19.248  0.00  0.00    +0.000 A 
ATOM      2  C   UNL     1       2.874   6.872  18.591  0.00  0.00    +0.000 A 
ATOM      3  N   UNL     1       3.510   7.195  17.401  0.00  0.00    +0.000 N 
ATOM      4  C   UNL     1       4.396   6.374  16.816  0.00  0.00    +0.000 A 
ATOM      5  C   UNL     1       5.160   6.449  15.686  0.00  0.00    +0.000 A 
ATOM      6  C   UNL     1       5.872   5.224  15.655  0.00  0.00    +0.000 A 
ATOM      7  N   UNL     1       5.564   4.429  16.704  0.00  0.00    +0.000 NA
ATOM      8  N   UNL     1       4.648   5.160  17.408  0.00  0.00    +0.000 N 
ATOM      9  C   UNL     1       4.035   4.709  18.591  0.00  0.00    +0.000 A 
ATOM     10  O   UNL     1       4.262   3.582  19.012  0.00  0.00    +0.000 OA
ATOM     11  H   UNL     1       3.276   8.107  17.004  0.00  0.00    +0.000 HD
ENDROOT
BRANCH   2  12
ATOM     12  C   UNL     1       1.961   7.944  19.039  0.00  0.00    +0.000 A 
ATOM     13  C   UNL     1       1.694   8.091  20.403  0.00  0.00    +0.000 A 
ATOM     14  C   UNL     1       1.099   9.254  20.888  0.00  0.00    +0.000 A 
ATOM     15  C   UNL     1       0.818  10.314  20.022  0.00  0.00    +0.000 A 
ATOM     16  C   UNL     1       1.001  10.145  18.650  0.00  0.00    +0.000 A 
ATOM     17  C   UNL     1       1.572   8.963  18.156  0.00  0.00    +0.000 A 
BRANCH  15  18
ATOM     18  O   UNL     1       0.405  11.556  20.434  0.00  0.00    +0.000 OA
BRANCH  18  19
ATOM     19  C   UNL     1      -0.140  12.371  19.387  0.00  0.00    +0.000 C 
BRANCH  19  20
ATOM     20  C   UNL     1      -1.646  12.269  19.355  0.00  0.00    +0.000 A 
ATOM     21  C   UNL     1      -2.420  12.816  20.386  0.00  0.00    +0.000 A 
ATOM     22  C   UNL     1      -3.814  12.755  20.330  0.00  0.00    +0.000 A 
ATOM     23  C   UNL     1      -4.445  12.144  19.248  0.00  0.00    +0.000 A 
ATOM     24  C   UNL     1      -3.686  11.596  18.217  0.00  0.00    +0.000 A 
ATOM     25  C   UNL     1      -2.293  11.660  18.268  0.00  0.00    +0.000 A 
ENDBRANCH  19  20
ENDBRANCH  18  19
ENDBRANCH  15  18
ENDBRANCH   2  12
BRANCH   6  26
ATOM     26  C   UNL     1       6.843   4.790  14.649  0.00  0.00    +0.000 C 
ATOM     27  O   UNL     1       6.706   3.802  13.943  0.00  0.00    +0.000 OA
BRANCH  26  28
ATOM     28  O   UNL     1       7.925   5.613  14.578  0.00  0.00    +0.000 OA
ATOM     29  H   UNL     1       7.580   6.528  14.439  0.00  0.00    +0.000 HD
ENDBRANCH  26  28
ENDBRANCH   6  26
BRANCH   1  30
ATOM     30  C   UNL     1       2.449   5.235  20.530  0.00  0.00    +0.000 C 
BRANCH  30  31
ATOM     31  C   UNL     1       1.069   4.555  20.405  0.00  0.00    +0.000 C 
BRANCH  31  33
ATOM     32  C   UNL     1       1.155   2.271  19.284  0.00  0.00    +0.000 C 
ATOM     33  C   UNL     1       1.023   3.029  20.603  0.00  0.00    +0.000 C 
ATOM     34  C   UNL     1       2.166   2.602  21.535  0.00  0.00    +0.000 C 
ENDBRANCH  31  33
ENDBRANCH  30  31
ENDBRANCH   1  30
TORSDOF 9
ENDMDL
MODEL 6
REMARK VINA RESULT:      -9.1      1.235      2.020
REMARK  Name = 
REMARK  11 active torsions:
REMARK  status: ('A' for Active; 'I' for Inactive)
REMARK    1  A    between atoms: C_1  and  C_2
REMARK    2  A    between atoms: C_2  and  C_3
REMARK    3  A    between atoms: C_2  and  C_4
REMARK    4  A    between atoms: C_4  and  C_5
REMARK    5  A    between atoms: C_5  and  C_6
REMARK    6  A    between atoms: C_7  and  C_8
REMARK    7  A    between atoms: C_11  and  O_12
REMARK    8  A    between atoms: O_12  and  C_13
REMARK    9  A    between atoms: C_13  and  C_14
REMARK   10  A    between atoms: C_25  and  C_26
REMARK   11  A    between atoms: C_26  and  O_28
REMARK                            x       y       z     vdW  Elec       q    Type
REMARK                         _______ _______ _______ _____ _____    ______ ____
ROOT
ATOM      1  C   UNL     1       3.142   5.734  19.165  0.00  0.00    +0.000 A 
ATOM      2  C   UNL     1       3.023   6.942  18.556  0.00  0.00    +0.000 A 
ATOM      3  N   UNL     1       3.690   7.256  17.381  0.00  0.00    +0.000 N 
ATOM      4  C   UNL     1       4.504   6.386  16.764  0.00  0.00    +0.000 A 
ATOM      5  C   UNL     1       5.277   6.440  15.638  0.00  0.00    +0.000 A 
ATOM      6  C   UNL     1       5.879   5.160  15.558  0.00  0.00    +0.000 A 
ATOM      7  N   UNL     1       5.498   4.352  16.573  0.00  0.00    +0.000 NA
ATOM      8  N   UNL     1       4.646   5.131  17.306  0.00  0.00    +0.000 N 
ATOM      9  C   UNL     1       3.991   4.688  18.469  0.00  0.00    +0.000 A 
ATOM     10  O   UNL     1       4.116   3.529  18.843  0.00  0.00    +0.000 OA
ATOM     11  H   UNL     1       3.539   8.202  17.022  0.00  0.00    +0.000 HD
ENDROOT
BRANCH   2  12
ATOM     12  C   UNL     1       2.206   8.071  19.047  0.00  0.00    +0.000 A 
ATOM     13  C   UNL     1       1.685   8.989  18.131  0.00  0.00    +0.000 A 
ATOM     14  C   UNL     1       0.675   9.873  18.508  0.00  0.00    +0.000 A 
ATOM     15  C   UNL     1       0.127   9.807  19.792  0.00  0.00    +0.000 A 
ATOM     16  C   UNL     1       0.696   8.954  20.737  0.00  0.00    +0.000 A 
ATOM     17  C   UNL     1       1.733   8.086  20.368  0.00  0.00    +0.000 A 
BRANCH  15  18
ATOM     18  O   UNL     1      -0.984  10.505  20.190  0.00  0.00    +0.000 OA
BRANCH  18  19
ATOM     19  C   UNL     1      -1.565  11.322  19.164  0.00  0.00    +0.000 C 
BRANCH  19  20
ATOM     20  C   UNL     1      -1.275  12.783  19.410  0.00  0.00    +0.000 A 
ATOM     21  C   UNL     1      -0.376  13.480  18.592  0.00  0.00    +0.000 A 
ATOM     22  C   UNL     1      -0.143  14.840  18.799  0.00  0.00    +0.000 A 
ATOM     23  C   UNL     1      -0.802  15.516  19.826  0.00  0.00    +0.000 A 
ATOM     24  C   UNL     1      -1.698  14.833  20.646  0.00  0.00    +0.000 A 
ATOM     25  C   UNL     1      -1.935  13.474  20.438  0.00  0.00    +0.000 A 
ENDBRANCH  19  20
ENDBRANCH  18  19
ENDBRANCH  15  18
ENDBRANCH   2  12
BRANCH   6  26
ATOM     26  C   UNL     1       6.813   4.683  14.536  0.00  0.00    +0.000 C 
ATOM     27  O   UNL     1       7.829   5.275  14.205  0.00  0.00    +0.000 OA
BRANCH  26  28
ATOM     28  O   UNL     1       6.429   3.498  13.990  0.00  0.00    +0.000 OA
ATOM     29  H   UNL     1       6.811   3.465  13.079  0.00  0.00    +0.000 HD
ENDBRANCH  26  28
ENDBRANCH   6  26
BRANCH   1  30
ATOM     30  C   UNL     1       2.448   5.271  20.426  0.00  0.00    +0.000 C 
BRANCH  30  31
ATOM     31  C   UNL     1       1.048   4.641  20.262  0.00  0.00    +0.000 C 
BRANCH  31  33
ATOM     32  C   UNL     1       1.020   2.294  19.278  0.00  0.00    +0.000 C 
ATOM     33  C   UNL     1       0.923   3.134  20.549  0.00  0.00    +0.000 C 
ATOM     34  C   UNL     1       2.039   2.706  21.512  0.00  0.00    +0.000 C 
ENDBRANCH  31  33
ENDBRANCH  30  31
ENDBRANCH   1  30
TORSDOF 9
ENDMDL
MODEL 7
REMARK VINA RESULT:      -9.0      0.521      1.199
REMARK  Name = 
REMARK  11 active torsions:
REMARK  status: ('A' for Active; 'I' for Inactive)
REMARK    1  A    between atoms: C_1  and  C_2
REMARK    2  A    between atoms: C_2  and  C_3
REMARK    3  A    between atoms: C_2  and  C_4
REMARK    4  A    between atoms: C_4  and  C_5
REMARK    5  A    between atoms: C_5  and  C_6
REMARK    6  A    between atoms: C_7  and  C_8
REMARK    7  A    between atoms: C_11  and  O_12
REMARK    8  A    between atoms: O_12  and  C_13
REMARK    9  A    between atoms: C_13  and  C_14
REMARK   10  A    between atoms: C_25  and  C_26
REMARK   11  A    between atoms: C_26  and  O_28
REMARK                            x       y       z     vdW  Elec       q    Type
REMARK                         _______ _______ _______ _____ _____    ______ ____
ROOT
ATOM      1  C   UNL     1       2.555   5.718  18.665  0.00  0.00    +0.000 A 
ATOM      2  C   UNL     1       2.786   7.013  18.324  0.00  0.00    +0.000 A 
ATOM      3  N   UNL     1       3.721   7.378  17.366  0.00  0.00    +0.000 N 
ATOM      4  C   UNL     1       4.465   6.474  16.709  0.00  0.00    +0.000 A 
ATOM      5  C   UNL     1       5.443   6.558  15.759  0.00  0.00    +0.000 A 
ATOM      6  C   UNL     1       5.801   5.212  15.498  0.00  0.00    +0.000 A 
ATOM      7  N   UNL     1       5.082   4.339  16.239  0.00  0.00    +0.000 NA
ATOM      8  N   UNL     1       4.261   5.143  16.980  0.00  0.00    +0.000 N 
ATOM      9  C   UNL     1       3.316   4.653  17.900  0.00  0.00    +0.000 A 
ATOM     10  O   UNL     1       3.147   3.448  18.028  0.00  0.00    +0.000 OA
ATOM     11  H   UNL     1       3.822   8.382  17.202  0.00  0.00    +0.000 HD
ENDROOT
BRANCH   2  12
ATOM     12  C   UNL     1       2.111   8.187  18.914  0.00  0.00    +0.000 A 
ATOM     13  C   UNL     1       1.702   9.233  18.081  0.00  0.00    +0.000 A 
ATOM     14  C   UNL     1       0.806  10.197  18.540  0.00  0.00    +0.000 A 
ATOM     15  C   UNL     1       0.257  10.092  19.821  0.00  0.00    +0.000 A 
ATOM     16  C   UNL     1       0.722   9.104  20.688  0.00  0.00    +0.000 A 
ATOM     17  C   UNL     1       1.647   8.151  20.238  0.00  0.00    +0.000 A 
BRANCH  15  18
ATOM     18  O   UNL     1      -0.762  10.883  20.288  0.00  0.00    +0.000 OA
BRANCH  18  19
ATOM     19  C   UNL     1      -1.119  11.961  19.411  0.00  0.00    +0.000 C 
BRANCH  19  20
ATOM     20  C   UNL     1      -2.487  11.738  18.815  0.00  0.00    +0.000 A 
ATOM     21  C   UNL     1      -3.634  12.219  19.460  0.00  0.00    +0.000 A 
ATOM     22  C   UNL     1      -4.893  12.047  18.884  0.00  0.00    +0.000 A 
ATOM     23  C   UNL     1      -5.019  11.389  17.661  0.00  0.00    +0.000 A 
ATOM     24  C   UNL     1      -3.887  10.906  17.010  0.00  0.00    +0.000 A 
ATOM     25  C   UNL     1      -2.627  11.081  17.583  0.00  0.00    +0.000 A 
ENDBRANCH  19  20
ENDBRANCH  18  19
ENDBRANCH  15  18
ENDBRANCH   2  12
BRANCH   6  26
ATOM     26  C   UNL     1       6.815   4.733  14.556  0.00  0.00    +0.000 C 
ATOM     27  O   UNL     1       7.840   5.339  14.283  0.00  0.00    +0.000 OA
BRANCH  26  28
ATOM     28  O   UNL     1       6.496   3.526  14.015  0.00  0.00    +0.000 OA
ATOM     29  H   UNL     1       5.786   3.690  13.348  0.00  0.00    +0.000 HD
ENDBRANCH  26  28
ENDBRANCH   6  26
BRANCH   1  30
ATOM     30  C   UNL     1       1.550   5.201  19.669  0.00  0.00    +0.000 C 
BRANCH  30  31
ATOM     31  C   UNL     1       2.103   4.727  21.031  0.00  0.00    +0.000 C 
BRANCH  31  33
ATOM     32  C   UNL     1       0.830   2.590  20.491  0.00  0.00    +0.000 C 
ATOM     33  C   UNL     1       1.842   3.260  21.417  0.00  0.00    +0.000 C 
ATOM     34  C   UNL     1       3.161   2.477  21.356  0.00  0.00    +0.000 C 
ENDBRANCH  31  33
ENDBRANCH  30  31
ENDBRANCH   1  30
TORSDOF 9
ENDMDL
MODEL 8
REMARK VINA RESULT:      -9.0      1.796      2.440
REMARK  Name = 
REMARK  11 active torsions:
REMARK  status: ('A' for Active; 'I' for Inactive)
REMARK    1  A    between atoms: C_1  and  C_2
REMARK    2  A    between atoms: C_2  and  C_3
REMARK    3  A    between atoms: C_2  and  C_4
REMARK    4  A    between atoms: C_4  and  C_5
REMARK    5  A    between atoms: C_5  and  C_6
REMARK    6  A    between atoms: C_7  and  C_8
REMARK    7  A    between atoms: C_11  and  O_12
REMARK    8  A    between atoms: O_12  and  C_13
REMARK    9  A    between atoms: C_13  and  C_14
REMARK   10  A    between atoms: C_25  and  C_26
REMARK   11  A    between atoms: C_26  and  O_28
REMARK                            x       y       z     vdW  Elec       q    Type
REMARK                         _______ _______ _______ _____ _____    ______ ____
ROOT
ATOM      1  C   UNL     1       3.117   5.719  19.181  0.00  0.00    +0.000 A 
ATOM      2  C   UNL     1       2.998   6.933  18.583  0.00  0.00    +0.000 A 
ATOM      3  N   UNL     1       3.655   7.253  17.404  0.00  0.00    +0.000 N 
ATOM      4  C   UNL     1       4.458   6.383  16.772  0.00  0.00    +0.000 A 
ATOM      5  C   UNL     1       5.220   6.442  15.640  0.00  0.00    +0.000 A 
ATOM      6  C   UNL     1       5.815   5.159  15.544  0.00  0.00    +0.000 A 
ATOM      7  N   UNL     1       5.440   4.346  16.556  0.00  0.00    +0.000 NA
ATOM      8  N   UNL     1       4.600   5.124  17.303  0.00  0.00    +0.000 N 
ATOM      9  C   UNL     1       3.953   4.674  18.469  0.00  0.00    +0.000 A 
ATOM     10  O   UNL     1       4.076   3.512  18.833  0.00  0.00    +0.000 OA
ATOM     11  H   UNL     1       3.505   8.202  17.054  0.00  0.00    +0.000 HD
ENDROOT
BRANCH   2  12
ATOM     12  C   UNL     1       2.191   8.062  19.091  0.00  0.00    +0.000 A 
ATOM     13  C   UNL     1       1.663   8.988  18.187  0.00  0.00    +0.000 A 
ATOM     14  C   UNL     1       0.661   9.873  18.581  0.00  0.00    +0.000 A 
ATOM     15  C   UNL     1       0.129   9.801  19.871  0.00  0.00    +0.000 A 
ATOM     16  C   UNL     1       0.706   8.941  20.805  0.00  0.00    +0.000 A 
ATOM     17  C   UNL     1       1.735   8.071  20.418  0.00  0.00    +0.000 A 
BRANCH  15  18
ATOM     18  O   UNL     1      -0.975  10.502  20.288  0.00  0.00    +0.000 OA
BRANCH  18  19
ATOM     19  C   UNL     1      -0.683  11.568  21.202  0.00  0.00    +0.000 C 
BRANCH  19  20
ATOM     20  C   UNL     1      -0.047  12.734  20.485  0.00  0.00    +0.000 A 
ATOM     21  C   UNL     1       1.259  13.134  20.793  0.00  0.00    +0.000 A 
ATOM     22  C   UNL     1       1.858  14.186  20.097  0.00  0.00    +0.000 A 
ATOM     23  C   UNL     1       1.156  14.849  19.091  0.00  0.00    +0.000 A 
ATOM     24  C   UNL     1      -0.143  14.460  18.776  0.00  0.00    +0.000 A 
ATOM     25  C   UNL     1      -0.742  13.406  19.467  0.00  0.00    +0.000 A 
ENDBRANCH  19  20
ENDBRANCH  18  19
ENDBRANCH  15  18
ENDBRANCH   2  12
BRANCH   6  26
ATOM     26  C   UNL     1       6.737   4.686  14.509  0.00  0.00    +0.000 C 
ATOM     27  O   UNL     1       6.514   3.737  13.773  0.00  0.00    +0.000 OA
BRANCH  26  28
ATOM     28  O   UNL     1       7.878   5.425  14.448  0.00  0.00    +0.000 OA
ATOM     29  H   UNL     1       8.041   5.775  15.358  0.00  0.00    +0.000 HD
ENDBRANCH  26  28
ENDBRANCH   6  26
BRANCH   1  30
ATOM     30  C   UNL     1       2.433   5.250  20.446  0.00  0.00    +0.000 C 
BRANCH  30  31
ATOM     31  C   UNL     1       1.004   4.684  20.298  0.00  0.00    +0.000 C 
BRANCH  31  33
ATOM     32  C   UNL     1       0.956   2.387  19.202  0.00  0.00    +0.000 C 
ATOM     33  C   UNL     1       0.829   3.169  20.507  0.00  0.00    +0.000 C 
ATOM     34  C   UNL     1       1.895   2.665  21.490  0.00  0.00    +0.000 C 
ENDBRANCH  31  33
ENDBRANCH  30  31
ENDBRANCH   1  30
TORSDOF 9
ENDMDL
MODEL 9
REMARK VINA RESULT:      -9.0      2.198      3.465
REMARK  Name = 
REMARK  11 active torsions:
REMARK  status: ('A' for Active; 'I' for Inactive)
REMARK    1  A    between atoms: C_1  and  C_2
REMARK    2  A    between atoms: C_2  and  C_3
REMARK    3  A    between atoms: C_2  and  C_4
REMARK    4  A    between atoms: C_4  and  C_5
REMARK    5  A    between atoms: C_5  and  C_6
REMARK    6  A    between atoms: C_7  and  C_8
REMARK    7  A    between atoms: C_11  and  O_12
REMARK    8  A    between atoms: O_12  and  C_13
REMARK    9  A    between atoms: C_13  and  C_14
REMARK   10  A    between atoms: C_25  and  C_26
REMARK   11  A    between atoms: C_26  and  O_28
REMARK                            x       y       z     vdW  Elec       q    Type
REMARK                         _______ _______ _______ _____ _____    ______ ____
ROOT
ATOM      1  C   UNL     1       3.114   5.744  19.252  0.00  0.00    +0.000 A 
ATOM      2  C   UNL     1       2.863   6.883  18.556  0.00  0.00    +0.000 A 
ATOM      3  N   UNL     1       3.507   7.189  17.366  0.00  0.00    +0.000 N 
ATOM      4  C   UNL     1       4.427   6.379  16.820  0.00  0.00    +0.000 A 
ATOM      5  C   UNL     1       5.206   6.444  15.699  0.00  0.00    +0.000 A 
ATOM      6  C   UNL     1       5.956   5.242  15.717  0.00  0.00    +0.000 A 
ATOM      7  N   UNL     1       5.657   4.470  16.785  0.00  0.00    +0.000 NA
ATOM      8  N   UNL     1       4.708   5.193  17.453  0.00  0.00    +0.000 N 
ATOM      9  C   UNL     1       4.091   4.759  18.641  0.00  0.00    +0.000 A 
ATOM     10  O   UNL     1       4.346   3.653  19.100  0.00  0.00    +0.000 OA
ATOM     11  H   UNL     1       3.250   8.082  16.937  0.00  0.00    +0.000 HD
ENDROOT
BRANCH   2  12
ATOM     12  C   UNL     1       1.910   7.939  18.957  0.00  0.00    +0.000 A 
ATOM     13  C   UNL     1       1.727   8.217  20.315  0.00  0.00    +0.000 A 
ATOM     14  C   UNL     1       1.087   9.387  20.720  0.00  0.00    +0.000 A 
ATOM     15  C   UNL     1       0.675  10.326  19.771  0.00  0.00    +0.000 A 
ATOM     16  C   UNL     1       0.774  10.020  18.414  0.00  0.00    +0.000 A 
ATOM     17  C   UNL     1       1.391   8.829  18.005  0.00  0.00    +0.000 A 
BRANCH  15  18
ATOM     18  O   UNL     1       0.205  11.578  20.081  0.00  0.00    +0.000 OA
BRANCH  18  19
ATOM     19  C   UNL     1       1.045  12.315  20.981  0.00  0.00    +0.000 C 
BRANCH  19  20
ATOM     20  C   UNL     1       2.013  13.187  20.220  0.00  0.00    +0.000 A 
ATOM     21  C   UNL     1       1.853  13.399  18.844  0.00  0.00    +0.000 A 
ATOM     22  C   UNL     1       2.727  14.240  18.153  0.00  0.00    +0.000 A 
ATOM     23  C   UNL     1       3.769  14.874  18.828  0.00  0.00    +0.000 A 
ATOM     24  C   UNL     1       3.939  14.671  20.196  0.00  0.00    +0.000 A 
ATOM     25  C   UNL     1       3.064  13.834  20.889  0.00  0.00    +0.000 A 
ENDBRANCH  19  20
ENDBRANCH  18  19
ENDBRANCH  15  18
ENDBRANCH   2  12
BRANCH   6  26
ATOM     26  C   UNL     1       6.956   4.809  14.739  0.00  0.00    +0.000 C 
ATOM     27  O   UNL     1       7.972   5.432  14.473  0.00  0.00    +0.000 OA
BRANCH  26  28
ATOM     28  O   UNL     1       6.633   3.623  14.154  0.00  0.00    +0.000 OA
ATOM     29  H   UNL     1       7.345   3.425  13.498  0.00  0.00    +0.000 HD
ENDBRANCH  26  28
ENDBRANCH   6  26
BRANCH   1  30
ATOM     30  C   UNL     1       2.459   5.294  20.539  0.00  0.00    +0.000 C 
BRANCH  30  31
ATOM     31  C   UNL     1       1.077   4.615  20.420  0.00  0.00    +0.000 C 
BRANCH  31  33
ATOM     32  C   UNL     1       1.226   2.327  19.314  0.00  0.00    +0.000 C 
ATOM     33  C   UNL     1       1.029   3.090  20.622  0.00  0.00    +0.000 C 
ATOM     34  C   UNL     1       2.130   2.673  21.608  0.00  0.00    +0.000 C 
ENDBRANCH  31  33
ENDBRANCH  30  31
ENDBRANCH   1  30
TORSDOF 9
ENDMDL
