MODEL 1
REMARK VINA RESULT:      -6.9      0.000      0.000
REMARK  Name = 
REMARK  4 active torsions:
REMARK  status: ('A' for Active; 'I' for Inactive)
REMARK    1  A    between atoms: C_1  and  N_2
REMARK    2  A    between atoms: C_4  and  C_5
REMARK    3  A    between atoms: C_8  and  C_9
REMARK    4  A    between atoms: N_17  and  C_18
REMARK                            x       y       z     vdW  Elec       q    Type
REMARK                         _______ _______ _______ _____ _____    ______ ____
ROOT
ATOM      1  C   UNL     1       2.205   4.608  21.281  0.00  0.00    +0.000 C 
ATOM      2  N   UNL     1       2.415   5.543  20.187  0.00  0.00    +0.000 N 
ATOM      3  N   UNL     1       3.169   5.089  19.139  0.00  0.00    +0.000 NA
ATOM      4  C   UNL     1       3.422   5.915  18.165  0.00  0.00    +0.000 A 
ATOM      5  N   UNL     1       2.980   7.219  18.107  0.00  0.00    +0.000 NA
ATOM      6  C   UNL     1       2.243   7.671  19.077  0.00  0.00    +0.000 A 
ATOM      7  C   UNL     1       1.712   9.072  19.036  0.00  0.00    +0.000 A 
ATOM      8  O   UNL     1       1.962   9.793  18.079  0.00  0.00    +0.000 OA
ATOM      9  N   UNL     1       0.952   9.416  20.135  0.00  0.00    +0.000 N 
ATOM     10  C   UNL     1       0.380  10.747  20.196  0.00  0.00    +0.000 C 
ATOM     11  C   UNL     1       0.695   8.567  21.206  0.00  0.00    +0.000 A 
ATOM     12  O   UNL     1       0.026   8.961  22.160  0.00  0.00    +0.000 OA
ATOM     13  N   UNL     1       1.180   7.289  21.206  0.00  0.00    +0.000 NA
ATOM     14  C   UNL     1       1.901   6.818  20.245  0.00  0.00    +0.000 A 
ENDROOT
BRANCH   4  15
ATOM     15  C   UNL     1       4.236   5.456  16.993  0.00  0.00    +0.000 A 
ATOM     16  C   UNL     1       4.385   4.087  16.730  0.00  0.00    +0.000 A 
ATOM     17  C   UNL     1       5.125   3.656  15.624  0.00  0.00    +0.000 A 
ATOM     18  C   UNL     1       5.731   4.587  14.776  0.00  0.00    +0.000 A 
ATOM     19  C   UNL     1       5.594   5.953  15.039  0.00  0.00    +0.000 A 
ATOM     20  C   UNL     1       4.848   6.387  16.141  0.00  0.00    +0.000 A 
BRANCH  18  21
ATOM     21  C   UNL     1       6.487   4.144  13.638  0.00  0.00    +0.000 C 
ATOM     22  N   UNL     1       7.101   3.787  12.718  0.00  0.00    +0.000 NA
ENDBRANCH  18  21
ENDBRANCH   4  15
TORSDOF 2
ENDMDL
MODEL 2
REMARK VINA RESULT:      -6.8      0.117      1.037
REMARK  Name = 
REMARK  4 active torsions:
REMARK  status: ('A' for Active; 'I' for Inactive)
REMARK    1  A    between atoms: C_1  and  N_2
REMARK    2  A    between atoms: C_4  and  C_5
REMARK    3  A    between atoms: C_8  and  C_9
REMARK    4  A    between atoms: N_17  and  C_18
REMARK                            x       y       z     vdW  Elec       q    Type
REMARK                         _______ _______ _______ _____ _____    ______ ____
ROOT
ATOM      1  C   UNL     1       2.176   4.599  21.254  0.00  0.00    +0.000 C 
ATOM      2  N   UNL     1       2.384   5.555  20.179  0.00  0.00    +0.000 N 
ATOM      3  N   UNL     1       3.146   5.126  19.126  0.00  0.00    +0.000 NA
ATOM      4  C   UNL     1       3.397   5.972  18.168  0.00  0.00    +0.000 A 
ATOM      5  N   UNL     1       2.947   7.274  18.133  0.00  0.00    +0.000 NA
ATOM      6  C   UNL     1       2.203   7.703  19.108  0.00  0.00    +0.000 A 
ATOM      7  C   UNL     1       1.662   9.101  19.090  0.00  0.00    +0.000 A 
ATOM      8  O   UNL     1       1.911   9.841  18.148  0.00  0.00    +0.000 OA
ATOM      9  N   UNL     1       0.895   9.419  20.192  0.00  0.00    +0.000 N 
ATOM     10  C   UNL     1       0.313  10.745  20.276  0.00  0.00    +0.000 C 
ATOM     11  C   UNL     1       0.639   8.548  21.247  0.00  0.00    +0.000 A 
ATOM     12  O   UNL     1      -0.036   8.919  22.205  0.00  0.00    +0.000 OA
ATOM     13  N   UNL     1       1.134   7.274  21.225  0.00  0.00    +0.000 NA
ATOM     14  C   UNL     1       1.862   6.826  20.258  0.00  0.00    +0.000 A 
ENDROOT
BRANCH   4  15
ATOM     15  C   UNL     1       4.219   5.541  16.992  0.00  0.00    +0.000 A 
ATOM     16  C   UNL     1       4.821   6.498  16.163  0.00  0.00    +0.000 A 
ATOM     17  C   UNL     1       5.609   6.099  15.077  0.00  0.00    +0.000 A 
ATOM     18  C   UNL     1       5.795   4.741  14.805  0.00  0.00    +0.000 A 
ATOM     19  C   UNL     1       5.189   3.782  15.622  0.00  0.00    +0.000 A 
ATOM     20  C   UNL     1       4.407   4.179  16.712  0.00  0.00    +0.000 A 
BRANCH  18  21
ATOM     21  C   UNL     1       6.607   4.331  13.693  0.00  0.00    +0.000 C 
ATOM     22  N   UNL     1       7.263   4.000  12.792  0.00  0.00    +0.000 NA
ENDBRANCH  18  21
ENDBRANCH   4  15
TORSDOF 2
ENDMDL
MODEL 3
REMARK VINA RESULT:      -6.8      2.689      7.323
REMARK  Name = 
REMARK  4 active torsions:
REMARK  status: ('A' for Active; 'I' for Inactive)
REMARK    1  A    between atoms: C_1  and  N_2
REMARK    2  A    between atoms: C_4  and  C_5
REMARK    3  A    between atoms: C_8  and  C_9
REMARK    4  A    between atoms: N_17  and  C_18
REMARK                            x       y       z     vdW  Elec       q    Type
REMARK                         _______ _______ _______ _____ _____    ______ ____
ROOT
ATOM      1  C   UNL     1       1.832   3.207  18.215  0.00  0.00    +0.000 C 
ATOM      2  N   UNL     1       2.518   4.488  18.162  0.00  0.00    +0.000 N 
ATOM      3  N   UNL     1       1.936   5.516  18.853  0.00  0.00    +0.000 NA
ATOM      4  C   UNL     1       2.494   6.691  18.786  0.00  0.00    +0.000 A 
ATOM      5  N   UNL     1       3.635   6.978  18.070  0.00  0.00    +0.000 NA
ATOM      6  C   UNL     1       4.223   6.018  17.422  0.00  0.00    +0.000 A 
ATOM      7  C   UNL     1       5.487   6.279  16.660  0.00  0.00    +0.000 A 
ATOM      8  O   UNL     1       5.978   7.400  16.657  0.00  0.00    +0.000 OA
ATOM      9  N   UNL     1       5.994   5.169  16.016  0.00  0.00    +0.000 N 
ATOM     10  C   UNL     1       7.220   5.305  15.254  0.00  0.00    +0.000 C 
ATOM     11  C   UNL     1       5.401   3.911  16.041  0.00  0.00    +0.000 A 
ATOM     12  O   UNL     1       5.905   2.978  15.419  0.00  0.00    +0.000 OA
ATOM     13  N   UNL     1       4.256   3.701  16.758  0.00  0.00    +0.000 NA
ATOM     14  C   UNL     1       3.667   4.639  17.421  0.00  0.00    +0.000 A 
ENDROOT
BRANCH   4  15
ATOM     15  C   UNL     1       1.895   7.842  19.535  0.00  0.00    +0.000 A 
ATOM     16  C   UNL     1       1.567   9.028  18.863  0.00  0.00    +0.000 A 
ATOM     17  C   UNL     1       0.986  10.097  19.555  0.00  0.00    +0.000 A 
ATOM     18  C   UNL     1       0.735   9.993  20.926  0.00  0.00    +0.000 A 
ATOM     19  C   UNL     1       1.069   8.817  21.604  0.00  0.00    +0.000 A 
ATOM     20  C   UNL     1       1.644   7.745  20.912  0.00  0.00    +0.000 A 
BRANCH  18  21
ATOM     21  C   UNL     1       0.135  11.089  21.636  0.00  0.00    +0.000 C 
ATOM     22  N   UNL     1      -0.351  11.976  22.208  0.00  0.00    +0.000 NA
ENDBRANCH  18  21
ENDBRANCH   4  15
TORSDOF 2
ENDMDL
MODEL 4
REMARK VINA RESULT:      -6.8      2.392      7.522
REMARK  Name = 
REMARK  4 active torsions:
REMARK  status: ('A' for Active; 'I' for Inactive)
REMARK    1  A    between atoms: C_1  and  N_2
REMARK    2  A    between atoms: C_4  and  C_5
REMARK    3  A    between atoms: C_8  and  C_9
REMARK    4  A    between atoms: N_17  and  C_18
REMARK                            x       y       z     vdW  Elec       q    Type
REMARK                         _______ _______ _______ _____ _____    ______ ____
ROOT
ATOM      1  C   UNL     1       1.822   3.850  21.190  0.00  0.00    +0.000 C 
ATOM      2  N   UNL     1       2.049   5.129  20.536  0.00  0.00    +0.000 N 
ATOM      3  N   UNL     1       1.404   6.208  21.076  0.00  0.00    +0.000 NA
ATOM      4  C   UNL     1       1.542   7.361  20.486  0.00  0.00    +0.000 A 
ATOM      5  N   UNL     1       2.297   7.577  19.353  0.00  0.00    +0.000 NA
ATOM      6  C   UNL     1       2.939   6.577  18.831  0.00  0.00    +0.000 A 
ATOM      7  C   UNL     1       3.800   6.776  17.621  0.00  0.00    +0.000 A 
ATOM      8  O   UNL     1       3.912   7.891  17.127  0.00  0.00    +0.000 OA
ATOM      9  N   UNL     1       4.415   5.625  17.173  0.00  0.00    +0.000 N 
ATOM     10  C   UNL     1       5.280   5.703  16.012  0.00  0.00    +0.000 C 
ATOM     11  C   UNL     1       4.258   4.374  17.762  0.00  0.00    +0.000 A 
ATOM     12  O   UNL     1       4.823   3.392  17.286  0.00  0.00    +0.000 OA
ATOM     13  N   UNL     1       3.478   4.228  18.875  0.00  0.00    +0.000 NA
ATOM     14  C   UNL     1       2.845   5.214  19.417  0.00  0.00    +0.000 A 
ENDROOT
BRANCH   4  15
ATOM     15  C   UNL     1       0.860   8.571  21.049  0.00  0.00    +0.000 A 
ATOM     16  C   UNL     1       0.381   8.561  22.366  0.00  0.00    +0.000 A 
ATOM     17  C   UNL     1      -0.235   9.697  22.904  0.00  0.00    +0.000 A 
ATOM     18  C   UNL     1      -0.386  10.849  22.127  0.00  0.00    +0.000 A 
ATOM     19  C   UNL     1       0.081  10.861  20.809  0.00  0.00    +0.000 A 
ATOM     20  C   UNL     1       0.703   9.729  20.273  0.00  0.00    +0.000 A 
BRANCH  18  21
ATOM     21  C   UNL     1      -1.015  12.017  22.680  0.00  0.00    +0.000 C 
ATOM     22  N   UNL     1      -1.525  12.961  23.125  0.00  0.00    +0.000 NA
ENDBRANCH  18  21
ENDBRANCH   4  15
TORSDOF 2
ENDMDL
MODEL 5
REMARK VINA RESULT:      -6.8      2.684      7.263
REMARK  Name = 
REMARK  4 active torsions:
REMARK  status: ('A' for Active; 'I' for Inactive)
REMARK    1  A    between atoms: C_1  and  N_2
REMARK    2  A    between atoms: C_4  and  C_5
REMARK    3  A    between atoms: C_8  and  C_9
REMARK    4  A    between atoms: N_17  and  C_18
REMARK                            x       y       z     vdW  Elec       q    Type
REMARK                         _______ _______ _______ _____ _____    ______ ____
ROOT
ATOM      1  C   UNL     1       1.837   3.179  18.223  0.00  0.00    +0.000 C 
ATOM      2  N   UNL     1       2.511   4.466  18.157  0.00  0.00    +0.000 N 
ATOM      3  N   UNL     1       1.918   5.494  18.839  0.00  0.00    +0.000 NA
ATOM      4  C   UNL     1       2.465   6.674  18.761  0.00  0.00    +0.000 A 
ATOM      5  N   UNL     1       3.604   6.965  18.042  0.00  0.00    +0.000 NA
ATOM      6  C   UNL     1       4.201   6.005  17.404  0.00  0.00    +0.000 A 
ATOM      7  C   UNL     1       5.463   6.271  16.640  0.00  0.00    +0.000 A 
ATOM      8  O   UNL     1       5.943   7.397  16.627  0.00  0.00    +0.000 OA
ATOM      9  N   UNL     1       5.981   5.160  16.007  0.00  0.00    +0.000 N 
ATOM     10  C   UNL     1       7.207   5.300  15.245  0.00  0.00    +0.000 C 
ATOM     11  C   UNL     1       5.400   3.896  16.044  0.00  0.00    +0.000 A 
ATOM     12  O   UNL     1       5.914   2.962  15.431  0.00  0.00    +0.000 OA
ATOM     13  N   UNL     1       4.258   3.682  16.763  0.00  0.00    +0.000 NA
ATOM     14  C   UNL     1       3.659   4.621  17.416  0.00  0.00    +0.000 A 
ENDROOT
BRANCH   4  15
ATOM     15  C   UNL     1       1.854   7.827  19.499  0.00  0.00    +0.000 A 
ATOM     16  C   UNL     1       1.559   7.713  20.864  0.00  0.00    +0.000 A 
ATOM     17  C   UNL     1       1.010   8.795  21.562  0.00  0.00    +0.000 A 
ATOM     18  C   UNL     1       0.743   9.996  20.900  0.00  0.00    +0.000 A 
ATOM     19  C   UNL     1       1.026  10.112  19.536  0.00  0.00    +0.000 A 
ATOM     20  C   UNL     1       1.581   9.034  18.838  0.00  0.00    +0.000 A 
BRANCH  18  21
ATOM     21  C   UNL     1       0.183  11.108  21.617  0.00  0.00    +0.000 C 
ATOM     22  N   UNL     1      -0.269  12.009  22.196  0.00  0.00    +0.000 NA
ENDBRANCH  18  21
ENDBRANCH   4  15
TORSDOF 2
ENDMDL
MODEL 6
REMARK VINA RESULT:      -6.8      2.384      7.554
REMARK  Name = 
REMARK  4 active torsions:
REMARK  status: ('A' for Active; 'I' for Inactive)
REMARK    1  A    between atoms: C_1  and  N_2
REMARK    2  A    between atoms: C_4  and  C_5
REMARK    3  A    between atoms: C_8  and  C_9
REMARK    4  A    between atoms: N_17  and  C_18
REMARK                            x       y       z     vdW  Elec       q    Type
REMARK                         _______ _______ _______ _____ _____    ______ ____
ROOT
ATOM      1  C   UNL     1       1.724   3.859  21.104  0.00  0.00    +0.000 C 
ATOM      2  N   UNL     1       1.995   5.135  20.461  0.00  0.00    +0.000 N 
ATOM      3  N   UNL     1       1.397   6.232  21.018  0.00  0.00    +0.000 NA
ATOM      4  C   UNL     1       1.575   7.385  20.438  0.00  0.00    +0.000 A 
ATOM      5  N   UNL     1       2.329   7.584  19.302  0.00  0.00    +0.000 NA
ATOM      6  C   UNL     1       2.927   6.565  18.764  0.00  0.00    +0.000 A 
ATOM      7  C   UNL     1       3.786   6.744  17.549  0.00  0.00    +0.000 A 
ATOM      8  O   UNL     1       3.936   7.858  17.065  0.00  0.00    +0.000 OA
ATOM      9  N   UNL     1       4.351   5.574  17.084  0.00  0.00    +0.000 N 
ATOM     10  C   UNL     1       5.209   5.631  15.916  0.00  0.00    +0.000 C 
ATOM     11  C   UNL     1       4.150   4.324  17.661  0.00  0.00    +0.000 A 
ATOM     12  O   UNL     1       4.673   3.326  17.169  0.00  0.00    +0.000 OA
ATOM     13  N   UNL     1       3.374   4.196  18.778  0.00  0.00    +0.000 NA
ATOM     14  C   UNL     1       2.785   5.200  19.336  0.00  0.00    +0.000 A 
ENDROOT
BRANCH   4  15
ATOM     15  C   UNL     1       0.946   8.615  21.020  0.00  0.00    +0.000 A 
ATOM     16  C   UNL     1       0.762   9.756  20.227  0.00  0.00    +0.000 A 
ATOM     17  C   UNL     1       0.153  10.898  20.760  0.00  0.00    +0.000 A 
ATOM     18  C   UNL     1      -0.268  10.913  22.093  0.00  0.00    +0.000 A 
ATOM     19  C   UNL     1      -0.077   9.782  22.892  0.00  0.00    +0.000 A 
ATOM     20  C   UNL     1       0.524   8.637  22.358  0.00  0.00    +0.000 A 
BRANCH  18  21
ATOM     21  C   UNL     1      -0.896  12.084  22.639  0.00  0.00    +0.000 C 
ATOM     22  N   UNL     1      -1.406  13.030  23.081  0.00  0.00    +0.000 NA
ENDBRANCH  18  21
ENDBRANCH   4  15
TORSDOF 2
ENDMDL
MODEL 7
REMARK VINA RESULT:      -6.5      3.118      8.026
REMARK  Name = 
REMARK  4 active torsions:
REMARK  status: ('A' for Active; 'I' for Inactive)
REMARK    1  A    between atoms: C_1  and  N_2
REMARK    2  A    between atoms: C_4  and  C_5
REMARK    3  A    between atoms: C_8  and  C_9
REMARK    4  A    between atoms: N_17  and  C_18
REMARK                            x       y       z     vdW  Elec       q    Type
REMARK                         _______ _______ _______ _____ _____    ______ ____
ROOT
ATOM      1  C   UNL     1       3.538   7.884  17.026  0.00  0.00    +0.000 C 
ATOM      2  N   UNL     1       2.909   7.430  18.257  0.00  0.00    +0.000 N 
ATOM      3  N   UNL     1       2.158   8.355  18.930  0.00  0.00    +0.000 NA
ATOM      4  C   UNL     1       1.622   7.999  20.062  0.00  0.00    +0.000 A 
ATOM      5  N   UNL     1       1.751   6.753  20.635  0.00  0.00    +0.000 NA
ATOM      6  C   UNL     1       2.439   5.847  20.008  0.00  0.00    +0.000 A 
ATOM      7  C   UNL     1       2.574   4.468  20.578  0.00  0.00    +0.000 A 
ATOM      8  O   UNL     1       2.024   4.186  21.634  0.00  0.00    +0.000 OA
ATOM      9  N   UNL     1       3.338   3.614  19.808  0.00  0.00    +0.000 N 
ATOM     10  C   UNL     1       3.529   2.250  20.261  0.00  0.00    +0.000 C 
ATOM     11  C   UNL     1       3.952   3.976  18.613  0.00  0.00    +0.000 A 
ATOM     12  O   UNL     1       4.637   3.161  17.999  0.00  0.00    +0.000 OA
ATOM     13  N   UNL     1       3.796   5.238  18.111  0.00  0.00    +0.000 NA
ATOM     14  C   UNL     1       3.104   6.146  18.712  0.00  0.00    +0.000 A 
ENDROOT
BRANCH   4  15
ATOM     15  C   UNL     1       0.784   8.978  20.828  0.00  0.00    +0.000 A 
ATOM     16  C   UNL     1       0.109  10.006  20.155  0.00  0.00    +0.000 A 
ATOM     17  C   UNL     1      -0.693  10.908  20.864  0.00  0.00    +0.000 A 
ATOM     18  C   UNL     1      -0.820  10.797  22.252  0.00  0.00    +0.000 A 
ATOM     19  C   UNL     1      -0.141   9.780  22.929  0.00  0.00    +0.000 A 
ATOM     20  C   UNL     1       0.656   8.873  22.221  0.00  0.00    +0.000 A 
BRANCH  18  21
ATOM     21  C   UNL     1      -1.646  11.720  22.978  0.00  0.00    +0.000 C 
ATOM     22  N   UNL     1      -2.313  12.468  23.567  0.00  0.00    +0.000 NA
ENDBRANCH  18  21
ENDBRANCH   4  15
TORSDOF 2
ENDMDL
MODEL 8
REMARK VINA RESULT:      -6.5      2.768      7.282
REMARK  Name = 
REMARK  4 active torsions:
REMARK  status: ('A' for Active; 'I' for Inactive)
REMARK    1  A    between atoms: C_1  and  N_2
REMARK    2  A    between atoms: C_4  and  C_5
REMARK    3  A    between atoms: C_8  and  C_9
REMARK    4  A    between atoms: N_17  and  C_18
REMARK                            x       y       z     vdW  Elec       q    Type
REMARK                         _______ _______ _______ _____ _____    ______ ____
ROOT
ATOM      1  C   UNL     1       5.014   6.493  16.423  0.00  0.00    +0.000 C 
ATOM      2  N   UNL     1       3.897   6.450  17.355  0.00  0.00    +0.000 N 
ATOM      3  N   UNL     1       3.365   7.657  17.717  0.00  0.00    +0.000 NA
ATOM      4  C   UNL     1       2.397   7.662  18.589  0.00  0.00    +0.000 A 
ATOM      5  N   UNL     1       1.864   6.534  19.175  0.00  0.00    +0.000 NA
ATOM      6  C   UNL     1       2.334   5.373  18.834  0.00  0.00    +0.000 A 
ATOM      7  C   UNL     1       1.758   4.120  19.420  0.00  0.00    +0.000 A 
ATOM      8  O   UNL     1       0.830   4.188  20.216  0.00  0.00    +0.000 OA
ATOM      9  N   UNL     1       2.360   2.962  18.972  0.00  0.00    +0.000 N 
ATOM     10  C   UNL     1       1.875   1.688  19.468  0.00  0.00    +0.000 C 
ATOM     11  C   UNL     1       3.417   2.928  18.069  0.00  0.00    +0.000 A 
ATOM     12  O   UNL     1       3.914   1.853  17.738  0.00  0.00    +0.000 OA
ATOM     13  N   UNL     1       3.910   4.088  17.539  0.00  0.00    +0.000 NA
ATOM     14  C   UNL     1       3.446   5.250  17.854  0.00  0.00    +0.000 A 
ENDROOT
BRANCH   4  15
ATOM     15  C   UNL     1       1.779   8.962  19.007  0.00  0.00    +0.000 A 
ATOM     16  C   UNL     1       1.866  10.084  18.172  0.00  0.00    +0.000 A 
ATOM     17  C   UNL     1       1.270  11.293  18.548  0.00  0.00    +0.000 A 
ATOM     18  C   UNL     1       0.590  11.394  19.765  0.00  0.00    +0.000 A 
ATOM     19  C   UNL     1       0.509  10.280  20.606  0.00  0.00    +0.000 A 
ATOM     20  C   UNL     1       1.098   9.069  20.229  0.00  0.00    +0.000 A 
BRANCH  18  21
ATOM     21  C   UNL     1      -0.026  12.634  20.149  0.00  0.00    +0.000 C 
ATOM     22  N   UNL     1      -0.525  13.636  20.461  0.00  0.00    +0.000 NA
ENDBRANCH  18  21
ENDBRANCH   4  15
TORSDOF 2
ENDMDL
MODEL 9
REMARK VINA RESULT:      -6.5      3.041      7.792
REMARK  Name = 
REMARK  4 active torsions:
REMARK  status: ('A' for Active; 'I' for Inactive)
REMARK    1  A    between atoms: C_1  and  N_2
REMARK    2  A    between atoms: C_4  and  C_5
REMARK    3  A    between atoms: C_8  and  C_9
REMARK    4  A    between atoms: N_17  and  C_18
REMARK                            x       y       z     vdW  Elec       q    Type
REMARK                         _______ _______ _______ _____ _____    ______ ____
ROOT
ATOM      1  C   UNL     1       4.189   7.360  17.071  0.00  0.00    +0.000 C 
ATOM      2  N   UNL     1       3.268   6.962  18.124  0.00  0.00    +0.000 N 
ATOM      3  N   UNL     1       2.644   7.977  18.798  0.00  0.00    +0.000 NA
ATOM      4  C   UNL     1       1.852   7.660  19.783  0.00  0.00    +0.000 A 
ATOM      5  N   UNL     1       1.591   6.372  20.197  0.00  0.00    +0.000 NA
ATOM      6  C   UNL     1       2.152   5.388  19.562  0.00  0.00    +0.000 A 
ATOM      7  C   UNL     1       1.866   3.970  19.957  0.00  0.00    +0.000 A 
ATOM      8  O   UNL     1       1.091   3.736  20.874  0.00  0.00    +0.000 OA
ATOM      9  N   UNL     1       2.536   3.031  19.200  0.00  0.00    +0.000 N 
ATOM     10  C   UNL     1       2.327   1.625  19.490  0.00  0.00    +0.000 C 
ATOM     11  C   UNL     1       3.414   3.340  18.166  0.00  0.00    +0.000 A 
ATOM     12  O   UNL     1       3.990   2.442  17.556  0.00  0.00    +0.000 OA
ATOM     13  N   UNL     1       3.641   4.642  17.820  0.00  0.00    +0.000 NA
ATOM     14  C   UNL     1       3.081   5.633  18.429  0.00  0.00    +0.000 A 
ENDROOT
BRANCH   4  15
ATOM     15  C   UNL     1       1.141   8.740  20.541  0.00  0.00    +0.000 A 
ATOM     16  C   UNL     1       0.928   8.609  21.920  0.00  0.00    +0.000 A 
ATOM     17  C   UNL     1       0.285   9.626  22.636  0.00  0.00    +0.000 A 
ATOM     18  C   UNL     1      -0.158  10.777  21.979  0.00  0.00    +0.000 A 
ATOM     19  C   UNL     1       0.043  10.908  20.602  0.00  0.00    +0.000 A 
ATOM     20  C   UNL     1       0.692   9.896  19.886  0.00  0.00    +0.000 A 
BRANCH  18  21
ATOM     21  C   UNL     1      -0.815  11.822  22.714  0.00  0.00    +0.000 C 
ATOM     22  N   UNL     1      -1.347  12.667  23.308  0.00  0.00    +0.000 NA
ENDBRANCH  18  21
ENDBRANCH   4  15
TORSDOF 2
ENDMDL
