MODEL 1
REMARK VINA RESULT:      -5.9      0.000      0.000
REMARK  Name = 
REMARK  15 active torsions:
REMARK  status: ('A' for Active; 'I' for Inactive)
REMARK    1  A    between atoms: C_8  and  C_9
REMARK    2  A    between atoms: C_13  and  C_14
REMARK    3  A    between atoms: C_14  and  O_16
REMARK    4  A    between atoms: O_16  and  C_17
REMARK    5  A    between atoms: C_18  and  O_19
REMARK    6  A    between atoms: O_19  and  C_20
REMARK    7  A    between atoms: C_20  and  C_21
REMARK    8  A    between atoms: C_23  and  O_24
REMARK    9  A    between atoms: O_24  and  C_25
REMARK   10  A    between atoms: C_25  and  C_27
REMARK   11  A    between atoms: C_27  and  C_28
REMARK   12  A    between atoms: C_27  and  O_29
REMARK   13  A    between atoms: C_27  and  C_30
REMARK   14  A    between atoms: C_30  and  C_31
REMARK   15  A    between atoms: C_30  and  O_32
REMARK                            x       y       z     vdW  Elec       q    Type
REMARK                         _______ _______ _______ _____ _____    ______ ____
ROOT
ATOM      1  C   UNL     1       8.300  13.786  24.575  0.00  0.00    +0.000 C 
ATOM      2  C   UNL     1       7.897  13.813  23.295  0.00  0.00    +0.000 C 
ATOM      3  C   UNL     1       6.951  12.721  23.005  0.00  0.00    +0.000 C 
ATOM      4  O   UNL     1       5.838  12.557  23.441  0.00  0.00    +0.000 OA
ATOM      5  O   UNL     1       7.693  11.866  22.242  0.00  0.00    +0.000 OA
ATOM      6  C   UNL     1       8.614  12.658  21.493  0.00  0.00    +0.000 C 
ATOM      7  C   UNL     1       9.986  12.052  21.357  0.00  0.00    +0.000 C 
ATOM      8  C   UNL     1      10.399  11.639  20.142  0.00  0.00    +0.000 C 
ATOM      9  C   UNL     1       9.407  11.211  19.090  0.00  0.00    +0.000 C 
ATOM     10  C   UNL     1      11.851  11.774  19.730  0.00  0.00    +0.000 C 
ATOM     11  C   UNL     1      12.332  13.231  19.442  0.00  0.00    +0.000 C 
ATOM     12  C   UNL     1      11.371  14.332  19.874  0.00  0.00    +0.000 C 
ATOM     13  C   UNL     1      10.218  14.735  19.279  0.00  0.00    +0.000 C 
ATOM     14  C   UNL     1       9.234  15.703  19.962  0.00  0.00    +0.000 C 
ATOM     15  C   UNL     1       8.151  15.132  21.001  0.00  0.00    +0.000 C 
ATOM     16  C   UNL     1       8.702  14.085  22.050  0.00  0.00    +0.000 C 
ENDROOT
BRANCH  13  17
ATOM     17  C   UNL     1      10.012  14.304  17.855  0.00  0.00    +0.000 C 
ATOM     18  O   UNL     1       9.061  13.643  17.486  0.00  0.00    +0.000 OA
BRANCH  17  19
ATOM     19  O   UNL     1      10.968  14.782  17.019  0.00  0.00    +0.000 OA
ATOM     20  C   UNL     1      10.832  16.193  16.739  0.00  0.00    +0.000 C 
ENDBRANCH  17  19
ENDBRANCH  13  17
BRANCH  14  21
ATOM     21  O   UNL     1      10.015  16.648  20.742  0.00  0.00    +0.000 OA
BRANCH  21  22
ATOM     22  C   UNL     1       9.520  17.915  20.832  0.00  0.00    +0.000 C 
ATOM     23  C   UNL     1       9.133  18.437  19.474  0.00  0.00    +0.000 C 
ATOM     24  O   UNL     1       9.356  18.540  21.869  0.00  0.00    +0.000 OA
ENDBRANCH  21  22
ENDBRANCH  14  21
BRANCH  15  25
ATOM     25  O   UNL     1       7.014  14.546  20.300  0.00  0.00    +0.000 OA
BRANCH  25  26
ATOM     26  C   UNL     1       5.782  15.116  20.421  0.00  0.00    +0.000 C 
ATOM     27  O   UNL     1       5.322  15.508  21.490  0.00  0.00    +0.000 OA
BRANCH  26  28
ATOM     28  C   UNL     1       5.062  15.221  19.048  0.00  0.00    +0.000 C 
ATOM     29  C   UNL     1       6.023  14.742  17.957  0.00  0.00    +0.000 C 
BRANCH  28  30
ATOM     30  O   UNL     1       3.939  14.316  18.971  0.00  0.00    +0.000 OA
ATOM     31  H   UNL     1       3.204  14.716  19.476  0.00  0.00    +0.000 HD
ENDBRANCH  28  30
BRANCH  28  32
ATOM     32  C   UNL     1       4.527  16.665  18.811  0.00  0.00    +0.000 C 
ATOM     33  C   UNL     1       3.113  16.962  19.300  0.00  0.00    +0.000 C 
BRANCH  32  34
ATOM     34  O   UNL     1       5.408  17.632  19.406  0.00  0.00    +0.000 OA
ATOM     35  H   UNL     1       6.086  17.886  18.753  0.00  0.00    +0.000 HD
ENDBRANCH  32  34
ENDBRANCH  28  32
ENDBRANCH  26  28
ENDBRANCH  25  26
ENDBRANCH  15  25
TORSDOF 10
ENDMDL
MODEL 2
REMARK VINA RESULT:      -5.7      6.931     11.319
REMARK  Name = 
REMARK  15 active torsions:
REMARK  status: ('A' for Active; 'I' for Inactive)
REMARK    1  A    between atoms: C_8  and  C_9
REMARK    2  A    between atoms: C_13  and  C_14
REMARK    3  A    between atoms: C_14  and  O_16
REMARK    4  A    between atoms: O_16  and  C_17
REMARK    5  A    between atoms: C_18  and  O_19
REMARK    6  A    between atoms: O_19  and  C_20
REMARK    7  A    between atoms: C_20  and  C_21
REMARK    8  A    between atoms: C_23  and  O_24
REMARK    9  A    between atoms: O_24  and  C_25
REMARK   10  A    between atoms: C_25  and  C_27
REMARK   11  A    between atoms: C_27  and  C_28
REMARK   12  A    between atoms: C_27  and  O_29
REMARK   13  A    between atoms: C_27  and  C_30
REMARK   14  A    between atoms: C_30  and  C_31
REMARK   15  A    between atoms: C_30  and  O_32
REMARK                            x       y       z     vdW  Elec       q    Type
REMARK                         _______ _______ _______ _____ _____    ______ ____
ROOT
ATOM      1  C   UNL     1       3.190  13.838  20.660  0.00  0.00    +0.000 C 
ATOM      2  C   UNL     1       1.972  13.504  20.204  0.00  0.00    +0.000 C 
ATOM      3  C   UNL     1       1.610  14.289  19.011  0.00  0.00    +0.000 C 
ATOM      4  O   UNL     1       2.119  14.270  17.917  0.00  0.00    +0.000 OA
ATOM      5  O   UNL     1       0.658  15.147  19.485  0.00  0.00    +0.000 OA
ATOM      6  C   UNL     1      -0.044  14.466  20.524  0.00  0.00    +0.000 C 
ATOM      7  C   UNL     1      -0.400  15.332  21.703  0.00  0.00    +0.000 C 
ATOM      8  C   UNL     1      -1.697  15.615  21.937  0.00  0.00    +0.000 C 
ATOM      9  C   UNL     1      -2.704  15.623  20.814  0.00  0.00    +0.000 C 
ATOM     10  C   UNL     1      -2.219  15.742  23.354  0.00  0.00    +0.000 C 
ATOM     11  C   UNL     1      -2.326  14.403  24.150  0.00  0.00    +0.000 C 
ATOM     12  C   UNL     1      -1.641  13.204  23.504  0.00  0.00    +0.000 C 
ATOM     13  C   UNL     1      -2.056  12.457  22.448  0.00  0.00    +0.000 C 
ATOM     14  C   UNL     1      -1.144  11.423  21.762  0.00  0.00    +0.000 C 
ATOM     15  C   UNL     1      -0.107  11.904  20.634  0.00  0.00    +0.000 C 
ATOM     16  C   UNL     1       0.714  13.212  20.979  0.00  0.00    +0.000 C 
ENDROOT
BRANCH  13  17
ATOM     17  C   UNL     1      -3.503  12.581  22.065  0.00  0.00    +0.000 C 
ATOM     18  O   UNL     1      -3.884  12.726  20.921  0.00  0.00    +0.000 OA
BRANCH  17  19
ATOM     19  O   UNL     1      -4.339  12.455  23.128  0.00  0.00    +0.000 OA
ATOM     20  C   UNL     1      -5.637  13.051  22.911  0.00  0.00    +0.000 C 
ENDBRANCH  17  19
ENDBRANCH  13  17
BRANCH  14  21
ATOM     21  O   UNL     1      -0.306  10.825  22.787  0.00  0.00    +0.000 OA
BRANCH  21  22
ATOM     22  C   UNL     1       0.396   9.714  22.425  0.00  0.00    +0.000 C 
ATOM     23  C   UNL     1      -0.507   8.696  21.782  0.00  0.00    +0.000 C 
ATOM     24  O   UNL     1       1.602   9.567  22.549  0.00  0.00    +0.000 OA
ENDBRANCH  21  22
ENDBRANCH  14  21
BRANCH  15  25
ATOM     25  O   UNL     1      -0.778  12.091  19.354  0.00  0.00    +0.000 OA
BRANCH  25  26
ATOM     26  C   UNL     1      -0.932  11.030  18.513  0.00  0.00    +0.000 C 
ATOM     27  O   UNL     1      -0.032  10.235  18.259  0.00  0.00    +0.000 OA
BRANCH  26  28
ATOM     28  C   UNL     1      -2.377  10.951  17.948  0.00  0.00    +0.000 C 
ATOM     29  C   UNL     1      -3.060   9.712  18.533  0.00  0.00    +0.000 C 
BRANCH  28  30
ATOM     30  O   UNL     1      -3.182  12.061  18.401  0.00  0.00    +0.000 OA
ATOM     31  H   UNL     1      -2.579  12.808  18.581  0.00  0.00    +0.000 HD
ENDBRANCH  28  30
BRANCH  28  32
ATOM     32  C   UNL     1      -2.367  10.976  16.390  0.00  0.00    +0.000 C 
ATOM     33  C   UNL     1      -2.452   9.628  15.681  0.00  0.00    +0.000 C 
BRANCH  32  34
ATOM     34  O   UNL     1      -3.434  11.801  15.893  0.00  0.00    +0.000 OA
ATOM     35  H   UNL     1      -3.699  12.429  16.590  0.00  0.00    +0.000 HD
ENDBRANCH  32  34
ENDBRANCH  28  32
ENDBRANCH  26  28
ENDBRANCH  25  26
ENDBRANCH  15  25
TORSDOF 10
ENDMDL
MODEL 3
REMARK VINA RESULT:      -5.7      9.327     12.601
REMARK  Name = 
REMARK  15 active torsions:
REMARK  status: ('A' for Active; 'I' for Inactive)
REMARK    1  A    between atoms: C_8  and  C_9
REMARK    2  A    between atoms: C_13  and  C_14
REMARK    3  A    between atoms: C_14  and  O_16
REMARK    4  A    between atoms: O_16  and  C_17
REMARK    5  A    between atoms: C_18  and  O_19
REMARK    6  A    between atoms: O_19  and  C_20
REMARK    7  A    between atoms: C_20  and  C_21
REMARK    8  A    between atoms: C_23  and  O_24
REMARK    9  A    between atoms: O_24  and  C_25
REMARK   10  A    between atoms: C_25  and  C_27
REMARK   11  A    between atoms: C_27  and  C_28
REMARK   12  A    between atoms: C_27  and  O_29
REMARK   13  A    between atoms: C_27  and  C_30
REMARK   14  A    between atoms: C_30  and  C_31
REMARK   15  A    between atoms: C_30  and  O_32
REMARK                            x       y       z     vdW  Elec       q    Type
REMARK                         _______ _______ _______ _____ _____    ______ ____
ROOT
ATOM      1  C   UNL     1      -0.668  10.167  23.418  0.00  0.00    +0.000 C 
ATOM      2  C   UNL     1      -1.118  11.003  22.469  0.00  0.00    +0.000 C 
ATOM      3  C   UNL     1      -0.041  11.395  21.542  0.00  0.00    +0.000 C 
ATOM      4  O   UNL     1       0.569  10.702  20.764  0.00  0.00    +0.000 OA
ATOM      5  O   UNL     1       0.200  12.695  21.882  0.00  0.00    +0.000 OA
ATOM      6  C   UNL     1      -1.039  13.253  22.319  0.00  0.00    +0.000 C 
ATOM      7  C   UNL     1      -0.918  14.184  23.497  0.00  0.00    +0.000 C 
ATOM      8  C   UNL     1      -1.167  15.497  23.319  0.00  0.00    +0.000 C 
ATOM      9  C   UNL     1      -0.974  16.147  21.971  0.00  0.00    +0.000 C 
ATOM     10  C   UNL     1      -1.828  16.317  24.409  0.00  0.00    +0.000 C 
ATOM     11  C   UNL     1      -3.343  16.021  24.641  0.00  0.00    +0.000 C 
ATOM     12  C   UNL     1      -3.879  14.776  23.944  0.00  0.00    +0.000 C 
ATOM     13  C   UNL     1      -4.181  14.602  22.631  0.00  0.00    +0.000 C 
ATOM     14  C   UNL     1      -4.491  13.217  22.035  0.00  0.00    +0.000 C 
ATOM     15  C   UNL     1      -3.284  12.260  21.579  0.00  0.00    +0.000 C 
ATOM     16  C   UNL     1      -2.077  12.158  22.595  0.00  0.00    +0.000 C 
ENDROOT
BRANCH  13  17
ATOM     17  C   UNL     1      -4.341  15.848  21.808  0.00  0.00    +0.000 C 
ATOM     18  O   UNL     1      -3.748  16.044  20.766  0.00  0.00    +0.000 OA
BRANCH  17  19
ATOM     19  O   UNL     1      -5.262  16.702  22.323  0.00  0.00    +0.000 OA
ATOM     20  C   UNL     1      -5.607  17.782  21.428  0.00  0.00    +0.000 C 
ENDBRANCH  17  19
ENDBRANCH  13  17
BRANCH  14  21
ATOM     21  O   UNL     1      -5.194  12.447  23.047  0.00  0.00    +0.000 OA
BRANCH  21  22
ATOM     22  C   UNL     1      -6.547  12.351  22.906  0.00  0.00    +0.000 C 
ATOM     23  C   UNL     1      -7.254  13.057  24.030  0.00  0.00    +0.000 C 
ATOM     24  O   UNL     1      -7.125  11.814  21.973  0.00  0.00    +0.000 OA
ENDBRANCH  21  22
ENDBRANCH  14  21
BRANCH  15  25
ATOM     25  O   UNL     1      -2.771  12.654  20.272  0.00  0.00    +0.000 OA
BRANCH  25  26
ATOM     26  C   UNL     1      -3.225  12.026  19.152  0.00  0.00    +0.000 C 
ATOM     27  O   UNL     1      -4.417  11.868  18.904  0.00  0.00    +0.000 OA
BRANCH  26  28
ATOM     28  C   UNL     1      -2.056  11.566  18.239  0.00  0.00    +0.000 C 
ATOM     29  C   UNL     1      -0.971  12.646  18.257  0.00  0.00    +0.000 C 
BRANCH  28  30
ATOM     30  O   UNL     1      -1.408  10.387  18.765  0.00  0.00    +0.000 OA
ATOM     31  H   UNL     1      -0.946   9.949  18.024  0.00  0.00    +0.000 HD
ENDBRANCH  28  30
BRANCH  28  32
ATOM     32  C   UNL     1      -2.569  11.227  16.807  0.00  0.00    +0.000 C 
ATOM     33  C   UNL     1      -2.927   9.770  16.533  0.00  0.00    +0.000 C 
BRANCH  32  34
ATOM     34  O   UNL     1      -3.717  12.029  16.482  0.00  0.00    +0.000 OA
ATOM     35  H   UNL     1      -4.476  11.441  16.311  0.00  0.00    +0.000 HD
ENDBRANCH  32  34
ENDBRANCH  28  32
ENDBRANCH  26  28
ENDBRANCH  25  26
ENDBRANCH  15  25
TORSDOF 10
ENDMDL
MODEL 4
REMARK VINA RESULT:      -5.7      6.763     11.041
REMARK  Name = 
REMARK  15 active torsions:
REMARK  status: ('A' for Active; 'I' for Inactive)
REMARK    1  A    between atoms: C_8  and  C_9
REMARK    2  A    between atoms: C_13  and  C_14
REMARK    3  A    between atoms: C_14  and  O_16
REMARK    4  A    between atoms: O_16  and  C_17
REMARK    5  A    between atoms: C_18  and  O_19
REMARK    6  A    between atoms: O_19  and  C_20
REMARK    7  A    between atoms: C_20  and  C_21
REMARK    8  A    between atoms: C_23  and  O_24
REMARK    9  A    between atoms: O_24  and  C_25
REMARK   10  A    between atoms: C_25  and  C_27
REMARK   11  A    between atoms: C_27  and  C_28
REMARK   12  A    between atoms: C_27  and  O_29
REMARK   13  A    between atoms: C_27  and  C_30
REMARK   14  A    between atoms: C_30  and  C_31
REMARK   15  A    between atoms: C_30  and  O_32
REMARK                            x       y       z     vdW  Elec       q    Type
REMARK                         _______ _______ _______ _____ _____    ______ ____
ROOT
ATOM      1  C   UNL     1      -0.639   8.315  21.647  0.00  0.00    +0.000 C 
ATOM      2  C   UNL     1      -0.353   9.608  21.426  0.00  0.00    +0.000 C 
ATOM      3  C   UNL     1       0.740  10.075  22.296  0.00  0.00    +0.000 C 
ATOM      4  O   UNL     1       1.898   9.731  22.297  0.00  0.00    +0.000 OA
ATOM      5  O   UNL     1       0.098  10.878  23.194  0.00  0.00    +0.000 OA
ATOM      6  C   UNL     1      -1.005  11.476  22.512  0.00  0.00    +0.000 C 
ATOM      7  C   UNL     1      -2.257  11.589  23.340  0.00  0.00    +0.000 C 
ATOM      8  C   UNL     1      -2.691  12.813  23.702  0.00  0.00    +0.000 C 
ATOM      9  C   UNL     1      -1.730  13.967  23.840  0.00  0.00    +0.000 C 
ATOM     10  C   UNL     1      -4.174  13.116  23.792  0.00  0.00    +0.000 C 
ATOM     11  C   UNL     1      -4.921  13.212  22.425  0.00  0.00    +0.000 C 
ATOM     12  C   UNL     1      -4.133  12.723  21.215  0.00  0.00    +0.000 C 
ATOM     13  C   UNL     1      -3.119  13.343  20.556  0.00  0.00    +0.000 C 
ATOM     14  C   UNL     1      -2.265  12.623  19.496  0.00  0.00    +0.000 C 
ATOM     15  C   UNL     1      -1.018  11.723  19.959  0.00  0.00    +0.000 C 
ATOM     16  C   UNL     1      -1.292  10.762  21.185  0.00  0.00    +0.000 C 
ENDROOT
BRANCH  13  17
ATOM     17  C   UNL     1      -2.959  14.816  20.804  0.00  0.00    +0.000 C 
ATOM     18  O   UNL     1      -3.877  15.548  21.115  0.00  0.00    +0.000 OA
BRANCH  17  19
ATOM     19  O   UNL     1      -1.669  15.227  20.700  0.00  0.00    +0.000 OA
ATOM     20  C   UNL     1      -1.484  16.622  21.029  0.00  0.00    +0.000 C 
ENDBRANCH  17  19
ENDBRANCH  13  17
BRANCH  14  21
ATOM     21  O   UNL     1      -3.130  11.696  18.787  0.00  0.00    +0.000 OA
BRANCH  21  22
ATOM     22  C   UNL     1      -2.623  11.142  17.649  0.00  0.00    +0.000 C 
ATOM     23  C   UNL     1      -2.951   9.675  17.575  0.00  0.00    +0.000 C 
ATOM     24  O   UNL     1      -2.025  11.747  16.773  0.00  0.00    +0.000 OA
ENDBRANCH  21  22
ENDBRANCH  14  21
BRANCH  15  25
ATOM     25  O   UNL     1       0.142  12.555  20.260  0.00  0.00    +0.000 OA
BRANCH  25  26
ATOM     26  C   UNL     1       1.229  12.515  19.441  0.00  0.00    +0.000 C 
ATOM     27  O   UNL     1       1.616  11.492  18.882  0.00  0.00    +0.000 OA
BRANCH  26  28
ATOM     28  C   UNL     1       1.888  13.915  19.294  0.00  0.00    +0.000 C 
ATOM     29  C   UNL     1       2.776  13.905  18.047  0.00  0.00    +0.000 C 
BRANCH  28  30
ATOM     30  O   UNL     1       0.901  14.937  19.034  0.00  0.00    +0.000 OA
ATOM     31  H   UNL     1       0.345  14.627  18.294  0.00  0.00    +0.000 HD
ENDBRANCH  28  30
BRANCH  28  32
ATOM     32  C   UNL     1       2.650  14.309  20.595  0.00  0.00    +0.000 C 
ATOM     33  C   UNL     1       2.049  15.437  21.427  0.00  0.00    +0.000 C 
BRANCH  32  34
ATOM     34  O   UNL     1       2.806  13.166  21.452  0.00  0.00    +0.000 OA
ATOM     35  H   UNL     1       3.232  13.449  22.283  0.00  0.00    +0.000 HD
ENDBRANCH  32  34
ENDBRANCH  28  32
ENDBRANCH  26  28
ENDBRANCH  25  26
ENDBRANCH  15  25
TORSDOF 10
ENDMDL
MODEL 5
REMARK VINA RESULT:      -5.6     10.032     13.568
REMARK  Name = 
REMARK  15 active torsions:
REMARK  status: ('A' for Active; 'I' for Inactive)
REMARK    1  A    between atoms: C_8  and  C_9
REMARK    2  A    between atoms: C_13  and  C_14
REMARK    3  A    between atoms: C_14  and  O_16
REMARK    4  A    between atoms: O_16  and  C_17
REMARK    5  A    between atoms: C_18  and  O_19
REMARK    6  A    between atoms: O_19  and  C_20
REMARK    7  A    between atoms: C_20  and  C_21
REMARK    8  A    between atoms: C_23  and  O_24
REMARK    9  A    between atoms: O_24  and  C_25
REMARK   10  A    between atoms: C_25  and  C_27
REMARK   11  A    between atoms: C_27  and  C_28
REMARK   12  A    between atoms: C_27  and  O_29
REMARK   13  A    between atoms: C_27  and  C_30
REMARK   14  A    between atoms: C_30  and  C_31
REMARK   15  A    between atoms: C_30  and  O_32
REMARK                            x       y       z     vdW  Elec       q    Type
REMARK                         _______ _______ _______ _____ _____    ______ ____
ROOT
ATOM      1  C   UNL     1      -0.940  10.932  22.984  0.00  0.00    +0.000 C 
ATOM      2  C   UNL     1      -1.714  11.655  22.159  0.00  0.00    +0.000 C 
ATOM      3  C   UNL     1      -0.967  12.099  20.970  0.00  0.00    +0.000 C 
ATOM      4  O   UNL     1      -0.500  11.428  20.082  0.00  0.00    +0.000 OA
ATOM      5  O   UNL     1      -0.802  13.437  21.192  0.00  0.00    +0.000 OA
ATOM      6  C   UNL     1      -1.944  13.887  21.921  0.00  0.00    +0.000 C 
ATOM      7  C   UNL     1      -1.635  14.897  22.994  0.00  0.00    +0.000 C 
ATOM      8  C   UNL     1      -2.074  16.163  22.844  0.00  0.00    +0.000 C 
ATOM      9  C   UNL     1      -2.313  16.744  21.473  0.00  0.00    +0.000 C 
ATOM     10  C   UNL     1      -2.525  16.974  24.043  0.00  0.00    +0.000 C 
ATOM     11  C   UNL     1      -3.883  16.536  24.674  0.00  0.00    +0.000 C 
ATOM     12  C   UNL     1      -4.430  15.200  24.184  0.00  0.00    +0.000 C 
ATOM     13  C   UNL     1      -5.036  14.913  23.002  0.00  0.00    +0.000 C 
ATOM     14  C   UNL     1      -5.324  13.468  22.554  0.00  0.00    +0.000 C 
ATOM     15  C   UNL     1      -4.170  12.617  21.829  0.00  0.00    +0.000 C 
ATOM     16  C   UNL     1      -2.739  12.707  22.495  0.00  0.00    +0.000 C 
ENDROOT
BRANCH  13  17
ATOM     17  C   UNL     1      -5.549  16.081  22.210  0.00  0.00    +0.000 C 
ATOM     18  O   UNL     1      -5.185  16.336  21.079  0.00  0.00    +0.000 OA
BRANCH  17  19
ATOM     19  O   UNL     1      -6.504  16.784  22.871  0.00  0.00    +0.000 OA
ATOM     20  C   UNL     1      -7.772  16.818  22.180  0.00  0.00    +0.000 C 
ENDBRANCH  17  19
ENDBRANCH  13  17
BRANCH  14  21
ATOM     21  O   UNL     1      -5.646  12.693  23.741  0.00  0.00    +0.000 OA
BRANCH  21  22
ATOM     22  C   UNL     1      -6.962  12.392  23.929  0.00  0.00    +0.000 C 
ATOM     23  C   UNL     1      -7.751  13.626  24.272  0.00  0.00    +0.000 C 
ATOM     24  O   UNL     1      -7.462  11.285  23.791  0.00  0.00    +0.000 OA
ENDBRANCH  21  22
ENDBRANCH  14  21
BRANCH  15  25
ATOM     25  O   UNL     1      -4.061  12.982  20.421  0.00  0.00    +0.000 OA
BRANCH  25  26
ATOM     26  C   UNL     1      -5.153  12.884  19.613  0.00  0.00    +0.000 C 
ATOM     27  O   UNL     1      -6.181  13.533  19.788  0.00  0.00    +0.000 OA
BRANCH  26  28
ATOM     28  C   UNL     1      -4.920  11.879  18.452  0.00  0.00    +0.000 C 
ATOM     29  C   UNL     1      -5.962  10.763  18.559  0.00  0.00    +0.000 C 
BRANCH  28  30
ATOM     30  O   UNL     1      -5.169  12.490  17.167  0.00  0.00    +0.000 OA
ATOM     31  H   UNL     1      -5.710  13.289  17.321  0.00  0.00    +0.000 HD
ENDBRANCH  28  30
BRANCH  28  32
ATOM     32  C   UNL     1      -3.451  11.358  18.455  0.00  0.00    +0.000 C 
ATOM     33  C   UNL     1      -3.185  10.050  17.717  0.00  0.00    +0.000 C 
BRANCH  32  34
ATOM     34  O   UNL     1      -2.564  12.354  17.917  0.00  0.00    +0.000 OA
ATOM     35  H   UNL     1      -1.651  12.141  18.185  0.00  0.00    +0.000 HD
ENDBRANCH  32  34
ENDBRANCH  28  32
ENDBRANCH  26  28
ENDBRANCH  25  26
ENDBRANCH  15  25
TORSDOF 10
ENDMDL
MODEL 6
REMARK VINA RESULT:      -5.6      6.825     10.516
REMARK  Name = 
REMARK  15 active torsions:
REMARK  status: ('A' for Active; 'I' for Inactive)
REMARK    1  A    between atoms: C_8  and  C_9
REMARK    2  A    between atoms: C_13  and  C_14
REMARK    3  A    between atoms: C_14  and  O_16
REMARK    4  A    between atoms: O_16  and  C_17
REMARK    5  A    between atoms: C_18  and  O_19
REMARK    6  A    between atoms: O_19  and  C_20
REMARK    7  A    between atoms: C_20  and  C_21
REMARK    8  A    between atoms: C_23  and  O_24
REMARK    9  A    between atoms: O_24  and  C_25
REMARK   10  A    between atoms: C_25  and  C_27
REMARK   11  A    between atoms: C_27  and  C_28
REMARK   12  A    between atoms: C_27  and  O_29
REMARK   13  A    between atoms: C_27  and  C_30
REMARK   14  A    between atoms: C_30  and  C_31
REMARK   15  A    between atoms: C_30  and  O_32
REMARK                            x       y       z     vdW  Elec       q    Type
REMARK                         _______ _______ _______ _____ _____    ______ ____
ROOT
ATOM      1  C   UNL     1      -1.411   9.590  17.614  0.00  0.00    +0.000 C 
ATOM      2  C   UNL     1      -1.702  10.508  18.549  0.00  0.00    +0.000 C 
ATOM      3  C   UNL     1      -2.836  11.354  18.139  0.00  0.00    +0.000 C 
ATOM      4  O   UNL     1      -3.988  11.035  17.971  0.00  0.00    +0.000 OA
ATOM      5  O   UNL     1      -2.242  12.549  17.852  0.00  0.00    +0.000 OA
ATOM      6  C   UNL     1      -1.119  12.681  18.723  0.00  0.00    +0.000 C 
ATOM      7  C   UNL     1       0.097  13.294  18.078  0.00  0.00    +0.000 C 
ATOM      8  C   UNL     1       0.500  14.517  18.477  0.00  0.00    +0.000 C 
ATOM      9  C   UNL     1      -0.480  15.506  19.056  0.00  0.00    +0.000 C 
ATOM     10  C   UNL     1       1.974  14.866  18.537  0.00  0.00    +0.000 C 
ATOM     11  C   UNL     1       2.777  14.182  19.687  0.00  0.00    +0.000 C 
ATOM     12  C   UNL     1       2.047  13.059  20.415  0.00  0.00    +0.000 C 
ATOM     13  C   UNL     1       1.054  13.151  21.339  0.00  0.00    +0.000 C 
ATOM     14  C   UNL     1       0.255  11.923  21.811  0.00  0.00    +0.000 C 
ATOM     15  C   UNL     1      -1.001  11.413  20.949  0.00  0.00    +0.000 C 
ATOM     16  C   UNL     1      -0.768  11.343  19.386  0.00  0.00    +0.000 C 
ENDROOT
BRANCH  13  17
ATOM     17  C   UNL     1       0.866  14.491  21.991  0.00  0.00    +0.000 C 
ATOM     18  O   UNL     1      -0.211  15.042  22.092  0.00  0.00    +0.000 OA
BRANCH  17  19
ATOM     19  O   UNL     1       2.019  14.989  22.507  0.00  0.00    +0.000 OA
ATOM     20  C   UNL     1       1.982  16.417  22.719  0.00  0.00    +0.000 C 
ENDBRANCH  17  19
ENDBRANCH  13  17
BRANCH  14  21
ATOM     21  O   UNL     1       1.160  10.787  21.831  0.00  0.00    +0.000 OA
BRANCH  21  22
ATOM     22  C   UNL     1       0.725   9.677  22.492  0.00  0.00    +0.000 C 
ATOM     23  C   UNL     1       0.771   8.468  21.597  0.00  0.00    +0.000 C 
ATOM     24  O   UNL     1       0.389   9.637  23.666  0.00  0.00    +0.000 OA
ENDBRANCH  21  22
ENDBRANCH  14  21
BRANCH  15  25
ATOM     25  O   UNL     1      -2.182  12.226  21.215  0.00  0.00    +0.000 OA
BRANCH  25  26
ATOM     26  C   UNL     1      -2.797  12.143  22.427  0.00  0.00    +0.000 C 
ATOM     27  O   UNL     1      -2.312  11.556  23.391  0.00  0.00    +0.000 OA
BRANCH  26  28
ATOM     28  C   UNL     1      -4.156  12.895  22.434  0.00  0.00    +0.000 C 
ATOM     29  C   UNL     1      -4.857  12.644  21.096  0.00  0.00    +0.000 C 
BRANCH  28  30
ATOM     30  O   UNL     1      -5.054  12.353  23.426  0.00  0.00    +0.000 OA
ATOM     31  H   UNL     1      -5.283  13.076  24.042  0.00  0.00    +0.000 HD
ENDBRANCH  28  30
BRANCH  28  32
ATOM     32  C   UNL     1      -3.953  14.407  22.752  0.00  0.00    +0.000 C 
ATOM     33  C   UNL     1      -3.620  14.766  24.196  0.00  0.00    +0.000 C 
BRANCH  32  34
ATOM     34  O   UNL     1      -2.926  14.964  21.914  0.00  0.00    +0.000 OA
ATOM     35  H   UNL     1      -2.723  15.867  22.219  0.00  0.00    +0.000 HD
ENDBRANCH  32  34
ENDBRANCH  28  32
ENDBRANCH  26  28
ENDBRANCH  25  26
ENDBRANCH  15  25
TORSDOF 10
ENDMDL
MODEL 7
REMARK VINA RESULT:      -5.5      7.262     11.706
REMARK  Name = 
REMARK  15 active torsions:
REMARK  status: ('A' for Active; 'I' for Inactive)
REMARK    1  A    between atoms: C_8  and  C_9
REMARK    2  A    between atoms: C_13  and  C_14
REMARK    3  A    between atoms: C_14  and  O_16
REMARK    4  A    between atoms: O_16  and  C_17
REMARK    5  A    between atoms: C_18  and  O_19
REMARK    6  A    between atoms: O_19  and  C_20
REMARK    7  A    between atoms: C_20  and  C_21
REMARK    8  A    between atoms: C_23  and  O_24
REMARK    9  A    between atoms: O_24  and  C_25
REMARK   10  A    between atoms: C_25  and  C_27
REMARK   11  A    between atoms: C_27  and  C_28
REMARK   12  A    between atoms: C_27  and  O_29
REMARK   13  A    between atoms: C_27  and  C_30
REMARK   14  A    between atoms: C_30  and  C_31
REMARK   15  A    between atoms: C_30  and  O_32
REMARK                            x       y       z     vdW  Elec       q    Type
REMARK                         _______ _______ _______ _____ _____    ______ ____
ROOT
ATOM      1  C   UNL     1       2.333  15.297  21.271  0.00  0.00    +0.000 C 
ATOM      2  C   UNL     1       1.158  14.859  20.793  0.00  0.00    +0.000 C 
ATOM      3  C   UNL     1       0.628  15.763  19.756  0.00  0.00    +0.000 C 
ATOM      4  O   UNL     1       1.082  16.000  18.663  0.00  0.00    +0.000 OA
ATOM      5  O   UNL     1      -0.416  16.377  20.388  0.00  0.00    +0.000 OA
ATOM      6  C   UNL     1      -0.961  15.437  21.313  0.00  0.00    +0.000 C 
ATOM      7  C   UNL     1      -1.384  16.036  22.628  0.00  0.00    +0.000 C 
ATOM      8  C   UNL     1      -2.696  16.075  22.935  0.00  0.00    +0.000 C 
ATOM      9  C   UNL     1      -3.745  16.111  21.852  0.00  0.00    +0.000 C 
ATOM     10  C   UNL     1      -3.164  15.889  24.365  0.00  0.00    +0.000 C 
ATOM     11  C   UNL     1      -3.035  14.439  24.927  0.00  0.00    +0.000 C 
ATOM     12  C   UNL     1      -2.213  13.479  24.075  0.00  0.00    +0.000 C 
ATOM     13  C   UNL     1      -2.563  12.859  22.917  0.00  0.00    +0.000 C 
ATOM     14  C   UNL     1      -1.543  12.102  22.048  0.00  0.00    +0.000 C 
ATOM     15  C   UNL     1      -0.641  12.912  20.994  0.00  0.00    +0.000 C 
ATOM     16  C   UNL     1      -0.007  14.256  21.535  0.00  0.00    +0.000 C 
ENDROOT
BRANCH  13  17
ATOM     17  C   UNL     1      -4.029  12.821  22.593  0.00  0.00    +0.000 C 
ATOM     18  O   UNL     1      -4.480  13.086  21.496  0.00  0.00    +0.000 OA
BRANCH  17  19
ATOM     19  O   UNL     1      -4.787  12.403  23.639  0.00  0.00    +0.000 OA
ATOM     20  C   UNL     1      -6.112  12.979  23.654  0.00  0.00    +0.000 C 
ENDBRANCH  17  19
ENDBRANCH  13  17
BRANCH  14  21
ATOM     21  O   UNL     1      -0.578  11.480  22.939  0.00  0.00    +0.000 OA
BRANCH  21  22
ATOM     22  C   UNL     1       0.126  10.429  22.433  0.00  0.00    +0.000 C 
ATOM     23  C   UNL     1      -0.643   9.145  22.585  0.00  0.00    +0.000 C 
ATOM     24  O   UNL     1       1.213  10.505  21.879  0.00  0.00    +0.000 OA
ENDBRANCH  21  22
ENDBRANCH  14  21
BRANCH  15  25
ATOM     25  O   UNL     1      -1.392  13.200  19.778  0.00  0.00    +0.000 OA
BRANCH  25  26
ATOM     26  C   UNL     1      -1.088  12.539  18.626  0.00  0.00    +0.000 C 
ATOM     27  O   UNL     1      -0.098  12.794  17.944  0.00  0.00    +0.000 OA
BRANCH  26  28
ATOM     28  C   UNL     1      -2.126  11.428  18.310  0.00  0.00    +0.000 C 
ATOM     29  C   UNL     1      -1.580  10.092  18.821  0.00  0.00    +0.000 C 
BRANCH  28  30
ATOM     30  O   UNL     1      -3.353  11.628  19.046  0.00  0.00    +0.000 OA
ATOM     31  H   UNL     1      -3.951  12.155  18.483  0.00  0.00    +0.000 HD
ENDBRANCH  28  30
BRANCH  28  32
ATOM     32  C   UNL     1      -2.479  11.414  16.792  0.00  0.00    +0.000 C 
ATOM     33  C   UNL     1      -2.484  10.054  16.102  0.00  0.00    +0.000 C 
BRANCH  32  34
ATOM     34  O   UNL     1      -3.762  12.024  16.569  0.00  0.00    +0.000 OA
ATOM     35  H   UNL     1      -4.379  11.350  16.229  0.00  0.00    +0.000 HD
ENDBRANCH  32  34
ENDBRANCH  28  32
ENDBRANCH  26  28
ENDBRANCH  25  26
ENDBRANCH  15  25
TORSDOF 10
ENDMDL
MODEL 8
REMARK VINA RESULT:      -5.5      6.873     11.314
REMARK  Name = 
REMARK  15 active torsions:
REMARK  status: ('A' for Active; 'I' for Inactive)
REMARK    1  A    between atoms: C_8  and  C_9
REMARK    2  A    between atoms: C_13  and  C_14
REMARK    3  A    between atoms: C_14  and  O_16
REMARK    4  A    between atoms: O_16  and  C_17
REMARK    5  A    between atoms: C_18  and  O_19
REMARK    6  A    between atoms: O_19  and  C_20
REMARK    7  A    between atoms: C_20  and  C_21
REMARK    8  A    between atoms: C_23  and  O_24
REMARK    9  A    between atoms: O_24  and  C_25
REMARK   10  A    between atoms: C_25  and  C_27
REMARK   11  A    between atoms: C_27  and  C_28
REMARK   12  A    between atoms: C_27  and  O_29
REMARK   13  A    between atoms: C_27  and  C_30
REMARK   14  A    between atoms: C_30  and  C_31
REMARK   15  A    between atoms: C_30  and  O_32
REMARK                            x       y       z     vdW  Elec       q    Type
REMARK                         _______ _______ _______ _____ _____    ______ ____
ROOT
ATOM      1  C   UNL     1       3.249  13.807  20.931  0.00  0.00    +0.000 C 
ATOM      2  C   UNL     1       2.025  13.500  20.472  0.00  0.00    +0.000 C 
ATOM      3  C   UNL     1       1.688  14.284  19.271  0.00  0.00    +0.000 C 
ATOM      4  O   UNL     1       2.201  14.243  18.179  0.00  0.00    +0.000 OA
ATOM      5  O   UNL     1       0.757  15.170  19.733  0.00  0.00    +0.000 OA
ATOM      6  C   UNL     1       0.033  14.516  20.774  0.00  0.00    +0.000 C 
ATOM      7  C   UNL     1      -0.306  15.401  21.944  0.00  0.00    +0.000 C 
ATOM      8  C   UNL     1      -1.597  15.718  22.170  0.00  0.00    +0.000 C 
ATOM      9  C   UNL     1      -2.598  15.742  21.042  0.00  0.00    +0.000 C 
ATOM     10  C   UNL     1      -2.122  15.871  23.583  0.00  0.00    +0.000 C 
ATOM     11  C   UNL     1      -2.267  14.542  24.390  0.00  0.00    +0.000 C 
ATOM     12  C   UNL     1      -1.610  13.320  23.757  0.00  0.00    +0.000 C 
ATOM     13  C   UNL     1      -2.039  12.575  22.705  0.00  0.00    +0.000 C 
ATOM     14  C   UNL     1      -1.151  11.513  22.033  0.00  0.00    +0.000 C 
ATOM     15  C   UNL     1      -0.096  11.957  20.905  0.00  0.00    +0.000 C 
ATOM     16  C   UNL     1       0.756  13.247  21.243  0.00  0.00    +0.000 C 
ENDROOT
BRANCH  13  17
ATOM     17  C   UNL     1      -3.481  12.733  22.315  0.00  0.00    +0.000 C 
ATOM     18  O   UNL     1      -3.841  13.152  21.233  0.00  0.00    +0.000 OA
BRANCH  17  19
ATOM     19  O   UNL     1      -4.335  12.301  23.277  0.00  0.00    +0.000 OA
ATOM     20  C   UNL     1      -5.551  13.078  23.356  0.00  0.00    +0.000 C 
ENDBRANCH  17  19
ENDBRANCH  13  17
BRANCH  14  21
ATOM     21  O   UNL     1      -0.333  10.902  23.066  0.00  0.00    +0.000 OA
BRANCH  21  22
ATOM     22  C   UNL     1      -0.027   9.584  22.898  0.00  0.00    +0.000 C 
ATOM     23  C   UNL     1       1.464   9.380  22.867  0.00  0.00    +0.000 C 
ATOM     24  O   UNL     1      -0.837   8.672  22.832  0.00  0.00    +0.000 OA
ENDBRANCH  21  22
ENDBRANCH  14  21
BRANCH  15  25
ATOM     25  O   UNL     1      -0.757  12.151  19.620  0.00  0.00    +0.000 OA
BRANCH  25  26
ATOM     26  C   UNL     1      -1.015  11.073  18.827  0.00  0.00    +0.000 C 
ATOM     27  O   UNL     1      -0.556   9.954  19.039  0.00  0.00    +0.000 OA
BRANCH  26  28
ATOM     28  C   UNL     1      -1.967  11.439  17.655  0.00  0.00    +0.000 C 
ATOM     29  C   UNL     1      -3.270  11.990  18.241  0.00  0.00    +0.000 C 
BRANCH  28  30
ATOM     30  O   UNL     1      -1.435  12.522  16.862  0.00  0.00    +0.000 OA
ATOM     31  H   UNL     1      -2.169  13.140  16.677  0.00  0.00    +0.000 HD
ENDBRANCH  28  30
BRANCH  28  32
ATOM     32  C   UNL     1      -2.179  10.218  16.711  0.00  0.00    +0.000 C 
ATOM     33  C   UNL     1      -3.395   9.340  16.987  0.00  0.00    +0.000 C 
BRANCH  32  34
ATOM     34  O   UNL     1      -2.251  10.648  15.341  0.00  0.00    +0.000 OA
ATOM     35  H   UNL     1      -1.503  11.246  15.157  0.00  0.00    +0.000 HD
ENDBRANCH  32  34
ENDBRANCH  28  32
ENDBRANCH  26  28
ENDBRANCH  25  26
ENDBRANCH  15  25
TORSDOF 10
ENDMDL
MODEL 9
REMARK VINA RESULT:      -5.5      6.865     10.668
REMARK  Name = 
REMARK  15 active torsions:
REMARK  status: ('A' for Active; 'I' for Inactive)
REMARK    1  A    between atoms: C_8  and  C_9
REMARK    2  A    between atoms: C_13  and  C_14
REMARK    3  A    between atoms: C_14  and  O_16
REMARK    4  A    between atoms: O_16  and  C_17
REMARK    5  A    between atoms: C_18  and  O_19
REMARK    6  A    between atoms: O_19  and  C_20
REMARK    7  A    between atoms: C_20  and  C_21
REMARK    8  A    between atoms: C_23  and  O_24
REMARK    9  A    between atoms: O_24  and  C_25
REMARK   10  A    between atoms: C_25  and  C_27
REMARK   11  A    between atoms: C_27  and  C_28
REMARK   12  A    between atoms: C_27  and  O_29
REMARK   13  A    between atoms: C_27  and  C_30
REMARK   14  A    between atoms: C_30  and  C_31
REMARK   15  A    between atoms: C_30  and  O_32
REMARK                            x       y       z     vdW  Elec       q    Type
REMARK                         _______ _______ _______ _____ _____    ______ ____
ROOT
ATOM      1  C   UNL     1      -1.660   9.633  17.726  0.00  0.00    +0.000 C 
ATOM      2  C   UNL     1      -1.909  10.564  18.661  0.00  0.00    +0.000 C 
ATOM      3  C   UNL     1      -3.022  11.443  18.263  0.00  0.00    +0.000 C 
ATOM      4  O   UNL     1      -4.186  11.159  18.113  0.00  0.00    +0.000 OA
ATOM      5  O   UNL     1      -2.395  12.618  17.962  0.00  0.00    +0.000 OA
ATOM      6  C   UNL     1      -1.256  12.718  18.816  0.00  0.00    +0.000 C 
ATOM      7  C   UNL     1      -0.031  13.290  18.152  0.00  0.00    +0.000 C 
ATOM      8  C   UNL     1       0.416  14.501  18.540  0.00  0.00    +0.000 C 
ATOM      9  C   UNL     1      -0.524  15.523  19.129  0.00  0.00    +0.000 C 
ATOM     10  C   UNL     1       1.901  14.804  18.577  0.00  0.00    +0.000 C 
ATOM     11  C   UNL     1       2.699  14.100  19.718  0.00  0.00    +0.000 C 
ATOM     12  C   UNL     1       1.944  13.004  20.461  0.00  0.00    +0.000 C 
ATOM     13  C   UNL     1       0.969  13.130  21.399  0.00  0.00    +0.000 C 
ATOM     14  C   UNL     1       0.138  11.930  21.888  0.00  0.00    +0.000 C 
ATOM     15  C   UNL     1      -1.145  11.456  21.046  0.00  0.00    +0.000 C 
ATOM     16  C   UNL     1      -0.937  11.373  19.480  0.00  0.00    +0.000 C 
ENDROOT
BRANCH  13  17
ATOM     17  C   UNL     1       0.832  14.477  22.048  0.00  0.00    +0.000 C 
ATOM     18  O   UNL     1      -0.235  15.028  22.232  0.00  0.00    +0.000 OA
BRANCH  17  19
ATOM     19  O   UNL     1       2.022  14.984  22.459  0.00  0.00    +0.000 OA
ATOM     20  C   UNL     1       1.973  16.398  22.752  0.00  0.00    +0.000 C 
ENDBRANCH  17  19
ENDBRANCH  13  17
BRANCH  14  21
ATOM     21  O   UNL     1       1.007  10.766  21.900  0.00  0.00    +0.000 OA
BRANCH  21  22
ATOM     22  C   UNL     1       0.553   9.676  22.582  0.00  0.00    +0.000 C 
ATOM     23  C   UNL     1       0.472   8.475  21.679  0.00  0.00    +0.000 C 
ATOM     24  O   UNL     1       0.291   9.645  23.774  0.00  0.00    +0.000 OA
ENDBRANCH  21  22
ENDBRANCH  14  21
BRANCH  15  25
ATOM     25  O   UNL     1      -2.296  12.306  21.325  0.00  0.00    +0.000 OA
BRANCH  25  26
ATOM     26  C   UNL     1      -2.797  12.367  22.591  0.00  0.00    +0.000 C 
ATOM     27  O   UNL     1      -2.691  11.451  23.403  0.00  0.00    +0.000 OA
BRANCH  26  28
ATOM     28  C   UNL     1      -3.486  13.731  22.871  0.00  0.00    +0.000 C 
ATOM     29  C   UNL     1      -3.047  14.223  24.253  0.00  0.00    +0.000 C 
BRANCH  28  30
ATOM     30  O   UNL     1      -3.026  14.751  21.956  0.00  0.00    +0.000 OA
ATOM     31  H   UNL     1      -3.643  14.766  21.199  0.00  0.00    +0.000 HD
ENDBRANCH  28  30
BRANCH  28  32
ATOM     32  C   UNL     1      -5.032  13.615  22.716  0.00  0.00    +0.000 C 
ATOM     33  C   UNL     1      -5.588  13.699  21.298  0.00  0.00    +0.000 C 
BRANCH  32  34
ATOM     34  O   UNL     1      -5.505  12.390  23.301  0.00  0.00    +0.000 OA
ATOM     35  H   UNL     1      -4.739  11.853  23.575  0.00  0.00    +0.000 HD
ENDBRANCH  32  34
ENDBRANCH  28  32
ENDBRANCH  26  28
ENDBRANCH  25  26
ENDBRANCH  15  25
TORSDOF 10
ENDMDL
