MODEL 1
REMARK VINA RESULT:      -7.4      0.000      0.000
REMARK  Name = 
REMARK  14 active torsions:
REMARK  status: ('A' for Active; 'I' for Inactive)
REMARK    1  A    between atoms: C_1  and  O_2
REMARK    2  A    between atoms: O_2  and  C_3
REMARK    3  A    between atoms: C_6  and  C_7
REMARK    4  A    between atoms: C_7  and  C_8
REMARK    5  A    between atoms: C_8  and  C_9
REMARK    6  A    between atoms: C_9  and  C_10
REMARK    7  A    between atoms: C_9  and  N_11
REMARK    8  A    between atoms: N_11  and  C_12
REMARK    9  A    between atoms: C_12  and  C_13
REMARK   10  A    between atoms: C_13  and  O_14
REMARK   11  A    between atoms: C_13  and  C_15
REMARK   12  A    between atoms: C_18  and  O_19
REMARK   13  A    between atoms: C_20  and  S_21
REMARK   14  A    between atoms: S_21  and  C_22
REMARK                            x       y       z     vdW  Elec       q    Type
REMARK                         _______ _______ _______ _____ _____    ______ ____
ROOT
ATOM      1  C   UNL     1       1.954   3.286  17.938  0.00  0.00    +0.000 C 
ENDROOT
BRANCH   1   2
ATOM      2  N   UNL     1       1.168   3.476  19.168  0.00  0.00    +0.000 NA
ATOM      3  H   UNL     1       0.416   4.185  19.013  0.00  0.00    +0.000 HD
BRANCH   2   4
ATOM      4  C   UNL     1       2.017   3.893  20.310  0.00  0.00    +0.000 C 
ATOM      5  C   UNL     1       1.597   3.090  21.549  0.00  0.00    +0.000 C 
BRANCH   4   6
ATOM      6  C   UNL     1       1.916   5.432  20.579  0.00  0.00    +0.000 C 
BRANCH   6   7
ATOM      7  C   UNL     1       2.764   6.314  19.645  0.00  0.00    +0.000 C 
BRANCH   7  11
ATOM      8  C   UNL     1       0.970  10.203  19.020  0.00  0.00    +0.000 A 
ATOM      9  C   UNL     1       1.673   9.567  17.979  0.00  0.00    +0.000 A 
ATOM     10  C   UNL     1       2.238   8.307  18.177  0.00  0.00    +0.000 A 
ATOM     11  C   UNL     1       2.116   7.659  19.417  0.00  0.00    +0.000 A 
ATOM     12  C   UNL     1       1.398   8.283  20.448  0.00  0.00    +0.000 A 
ATOM     13  C   UNL     1       0.830   9.545  20.249  0.00  0.00    +0.000 A 
BRANCH   8  15
ATOM     14  C   UNL     1      -0.326  12.091  19.837  0.00  0.00    +0.000 C 
ATOM     15  O   UNL     1       0.426  11.442  18.881  0.00  0.00    +0.000 OA
ENDBRANCH   8  15
ENDBRANCH   7  11
ENDBRANCH   6   7
ENDBRANCH   4   6
ENDBRANCH   2   4
ENDBRANCH   1   2
BRANCH   1  16
ATOM     16  C   UNL     1       3.336   2.645  18.190  0.00  0.00    +0.000 C 
BRANCH  16  17
ATOM     17  C   UNL     1       4.398   3.483  17.496  0.00  0.00    +0.000 A 
ATOM     18  C   UNL     1       4.359   3.662  16.106  0.00  0.00    +0.000 A 
ATOM     19  C   UNL     1       5.368   4.381  15.460  0.00  0.00    +0.000 A 
ATOM     20  C   UNL     1       6.437   4.921  16.189  0.00  0.00    +0.000 A 
ATOM     21  C   UNL     1       6.490   4.760  17.582  0.00  0.00    +0.000 A 
ATOM     22  C   UNL     1       5.462   4.053  18.229  0.00  0.00    +0.000 A 
BRANCH  21  23
ATOM     23  S   UNL     1       7.917   5.426  18.491  0.00  0.00    +0.000 S 
ATOM     24  C   UNL     1       7.620   7.182  18.113  0.00  0.00    +0.000 C 
ATOM     25  O   UNL     1       7.113   5.492  20.009  0.00  0.00    +0.000 OA
ENDBRANCH  21  23
BRANCH  20  26
ATOM     26  O   UNL     1       7.424   5.587  15.554  0.00  0.00    +0.000 OA
ATOM     27  H   UNL     1       8.264   5.797  15.984  0.00  0.00    +0.000 HD
ENDBRANCH  20  26
ENDBRANCH  16  17
BRANCH  16  28
ATOM     28  O   UNL     1       3.389   1.311  17.746  0.00  0.00    +0.000 OA
ATOM     29  H   UNL     1       3.059   1.278  16.812  0.00  0.00    +0.000 HD
ENDBRANCH  16  28
ENDBRANCH   1  16
TORSDOF 11
ENDMDL
MODEL 2
REMARK VINA RESULT:      -7.4      2.435      6.114
REMARK  Name = 
REMARK  14 active torsions:
REMARK  status: ('A' for Active; 'I' for Inactive)
REMARK    1  A    between atoms: C_1  and  O_2
REMARK    2  A    between atoms: O_2  and  C_3
REMARK    3  A    between atoms: C_6  and  C_7
REMARK    4  A    between atoms: C_7  and  C_8
REMARK    5  A    between atoms: C_8  and  C_9
REMARK    6  A    between atoms: C_9  and  C_10
REMARK    7  A    between atoms: C_9  and  N_11
REMARK    8  A    between atoms: N_11  and  C_12
REMARK    9  A    between atoms: C_12  and  C_13
REMARK   10  A    between atoms: C_13  and  O_14
REMARK   11  A    between atoms: C_13  and  C_15
REMARK   12  A    between atoms: C_18  and  O_19
REMARK   13  A    between atoms: C_20  and  S_21
REMARK   14  A    between atoms: S_21  and  C_22
REMARK                            x       y       z     vdW  Elec       q    Type
REMARK                         _______ _______ _______ _____ _____    ______ ____
ROOT
ATOM      1  C   UNL     1       1.261   4.487  20.281  0.00  0.00    +0.000 C 
ENDROOT
BRANCH   1   2
ATOM      2  N   UNL     1       1.067   4.407  18.823  0.00  0.00    +0.000 NA
ATOM      3  H   UNL     1       0.066   4.584  18.580  0.00  0.00    +0.000 HD
BRANCH   2   4
ATOM      4  C   UNL     1       1.487   3.095  18.278  0.00  0.00    +0.000 C 
ATOM      5  C   UNL     1       1.920   2.197  19.444  0.00  0.00    +0.000 C 
BRANCH   4   6
ATOM      6  C   UNL     1       2.639   3.243  17.228  0.00  0.00    +0.000 C 
BRANCH   6   7
ATOM      7  C   UNL     1       4.054   2.967  17.769  0.00  0.00    +0.000 C 
BRANCH   7  11
ATOM      8  C   UNL     1       6.674   6.325  16.998  0.00  0.00    +0.000 A 
ATOM      9  C   UNL     1       6.778   5.603  18.202  0.00  0.00    +0.000 A 
ATOM     10  C   UNL     1       5.942   4.512  18.444  0.00  0.00    +0.000 A 
ATOM     11  C   UNL     1       4.987   4.122  17.490  0.00  0.00    +0.000 A 
ATOM     12  C   UNL     1       4.898   4.829  16.282  0.00  0.00    +0.000 A 
ATOM     13  C   UNL     1       5.736   5.921  16.040  0.00  0.00    +0.000 A 
BRANCH   8  15
ATOM     14  C   UNL     1       7.885   8.324  17.668  0.00  0.00    +0.000 C 
ATOM     15  O   UNL     1       7.448   7.411  16.732  0.00  0.00    +0.000 OA
ENDBRANCH   8  15
ENDBRANCH   7  11
ENDBRANCH   6   7
ENDBRANCH   4   6
ENDBRANCH   2   4
ENDBRANCH   1   2
BRANCH   1  16
ATOM     16  C   UNL     1       2.316   5.534  20.698  0.00  0.00    +0.000 C 
BRANCH  16  17
ATOM     17  C   UNL     1       2.177   6.754  19.800  0.00  0.00    +0.000 A 
ATOM     18  C   UNL     1       2.827   6.795  18.559  0.00  0.00    +0.000 A 
ATOM     19  C   UNL     1       2.749   7.939  17.761  0.00  0.00    +0.000 A 
ATOM     20  C   UNL     1       2.032   9.063  18.195  0.00  0.00    +0.000 A 
ATOM     21  C   UNL     1       1.368   9.039  19.431  0.00  0.00    +0.000 A 
ATOM     22  C   UNL     1       1.434   7.878  20.221  0.00  0.00    +0.000 A 
BRANCH  21  23
ATOM     23  S   UNL     1       0.495  10.533  19.988  0.00  0.00    +0.000 S 
ATOM     24  C   UNL     1      -1.035  10.262  19.038  0.00  0.00    +0.000 C 
ATOM     25  O   UNL     1      -0.128   9.818  21.423  0.00  0.00    +0.000 OA
ENDBRANCH  21  23
BRANCH  20  26
ATOM     26  O   UNL     1       1.988  10.175  17.432  0.00  0.00    +0.000 OA
ATOM     27  H   UNL     1       2.288  11.036  17.756  0.00  0.00    +0.000 HD
ENDBRANCH  20  26
ENDBRANCH  16  17
BRANCH  16  28
ATOM     28  O   UNL     1       3.625   5.020  20.636  0.00  0.00    +0.000 OA
ATOM     29  H   UNL     1       3.999   5.223  19.740  0.00  0.00    +0.000 HD
ENDBRANCH  16  28
ENDBRANCH   1  16
TORSDOF 11
ENDMDL
MODEL 3
REMARK VINA RESULT:      -7.2      1.462      2.255
REMARK  Name = 
REMARK  14 active torsions:
REMARK  status: ('A' for Active; 'I' for Inactive)
REMARK    1  A    between atoms: C_1  and  O_2
REMARK    2  A    between atoms: O_2  and  C_3
REMARK    3  A    between atoms: C_6  and  C_7
REMARK    4  A    between atoms: C_7  and  C_8
REMARK    5  A    between atoms: C_8  and  C_9
REMARK    6  A    between atoms: C_9  and  C_10
REMARK    7  A    between atoms: C_9  and  N_11
REMARK    8  A    between atoms: N_11  and  C_12
REMARK    9  A    between atoms: C_12  and  C_13
REMARK   10  A    between atoms: C_13  and  O_14
REMARK   11  A    between atoms: C_13  and  C_15
REMARK   12  A    between atoms: C_18  and  O_19
REMARK   13  A    between atoms: C_20  and  S_21
REMARK   14  A    between atoms: S_21  and  C_22
REMARK                            x       y       z     vdW  Elec       q    Type
REMARK                         _______ _______ _______ _____ _____    ______ ____
ROOT
ATOM      1  C   UNL     1       2.197   1.932  18.716  0.00  0.00    +0.000 C 
ENDROOT
BRANCH   1   2
ATOM      2  N   UNL     1       1.149   2.512  19.572  0.00  0.00    +0.000 NA
ATOM      3  H   UNL     1       0.518   3.127  19.009  0.00  0.00    +0.000 HD
BRANCH   2   4
ATOM      4  C   UNL     1       1.718   3.286  20.701  0.00  0.00    +0.000 C 
ATOM      5  C   UNL     1       1.258   2.642  22.016  0.00  0.00    +0.000 C 
BRANCH   4   6
ATOM      6  C   UNL     1       1.304   4.794  20.641  0.00  0.00    +0.000 C 
BRANCH   6   7
ATOM      7  C   UNL     1       2.463   5.779  20.401  0.00  0.00    +0.000 C 
BRANCH   7  11
ATOM      8  C   UNL     1       1.064   9.765  19.455  0.00  0.00    +0.000 A 
ATOM      9  C   UNL     1       1.754   9.005  18.491  0.00  0.00    +0.000 A 
ATOM     10  C   UNL     1       2.192   7.715  18.792  0.00  0.00    +0.000 A 
ATOM     11  C   UNL     1       1.953   7.159  20.060  0.00  0.00    +0.000 A 
ATOM     12  C   UNL     1       1.247   7.908  21.014  0.00  0.00    +0.000 A 
ATOM     13  C   UNL     1       0.807   9.201  20.711  0.00  0.00    +0.000 A 
BRANCH   8  15
ATOM     14  C   UNL     1       1.376  12.006  18.565  0.00  0.00    +0.000 C 
ATOM     15  O   UNL     1       0.644  11.036  19.216  0.00  0.00    +0.000 OA
ENDBRANCH   8  15
ENDBRANCH   7  11
ENDBRANCH   6   7
ENDBRANCH   4   6
ENDBRANCH   2   4
ENDBRANCH   1   2
BRANCH   1  16
ATOM     16  C   UNL     1       2.513   2.791  17.473  0.00  0.00    +0.000 C 
BRANCH  16  17
ATOM     17  C   UNL     1       3.908   3.379  17.626  0.00  0.00    +0.000 A 
ATOM     18  C   UNL     1       4.483   3.511  18.898  0.00  0.00    +0.000 A 
ATOM     19  C   UNL     1       5.739   4.106  19.044  0.00  0.00    +0.000 A 
ATOM     20  C   UNL     1       6.433   4.589  17.926  0.00  0.00    +0.000 A 
ATOM     21  C   UNL     1       5.878   4.459  16.643  0.00  0.00    +0.000 A 
ATOM     22  C   UNL     1       4.623   3.842  16.500  0.00  0.00    +0.000 A 
BRANCH  21  23
ATOM     23  S   UNL     1       6.779   5.145  15.222  0.00  0.00    +0.000 S 
ATOM     24  C   UNL     1       6.096   4.020  13.963  0.00  0.00    +0.000 C 
ATOM     25  O   UNL     1       5.636   6.389  14.903  0.00  0.00    +0.000 OA
ENDBRANCH  21  23
BRANCH  20  26
ATOM     26  O   UNL     1       7.631   5.190  18.079  0.00  0.00    +0.000 OA
ATOM     27  H   UNL     1       7.873   5.990  17.592  0.00  0.00    +0.000 HD
ENDBRANCH  20  26
ENDBRANCH  16  17
BRANCH  16  28
ATOM     28  O   UNL     1       1.564   3.813  17.281  0.00  0.00    +0.000 OA
ATOM     29  H   UNL     1       1.903   4.429  16.582  0.00  0.00    +0.000 HD
ENDBRANCH  16  28
ENDBRANCH   1  16
TORSDOF 11
ENDMDL
MODEL 4
REMARK VINA RESULT:      -7.2      4.774      7.663
REMARK  Name = 
REMARK  14 active torsions:
REMARK  status: ('A' for Active; 'I' for Inactive)
REMARK    1  A    between atoms: C_1  and  O_2
REMARK    2  A    between atoms: O_2  and  C_3
REMARK    3  A    between atoms: C_6  and  C_7
REMARK    4  A    between atoms: C_7  and  C_8
REMARK    5  A    between atoms: C_8  and  C_9
REMARK    6  A    between atoms: C_9  and  C_10
REMARK    7  A    between atoms: C_9  and  N_11
REMARK    8  A    between atoms: N_11  and  C_12
REMARK    9  A    between atoms: C_12  and  C_13
REMARK   10  A    between atoms: C_13  and  O_14
REMARK   11  A    between atoms: C_13  and  C_15
REMARK   12  A    between atoms: C_18  and  O_19
REMARK   13  A    between atoms: C_20  and  S_21
REMARK   14  A    between atoms: S_21  and  C_22
REMARK                            x       y       z     vdW  Elec       q    Type
REMARK                         _______ _______ _______ _____ _____    ______ ____
ROOT
ATOM      1  C   UNL     1       6.181   6.316  17.261  0.00  0.00    +0.000 C 
ENDROOT
BRANCH   1   2
ATOM      2  N   UNL     1       6.679   7.658  16.917  0.00  0.00    +0.000 NA
ATOM      3  H   UNL     1       6.741   7.768  15.879  0.00  0.00    +0.000 HD
BRANCH   2   4
ATOM      4  C   UNL     1       8.001   7.934  17.527  0.00  0.00    +0.000 C 
ATOM      5  C   UNL     1       8.165   7.040  18.763  0.00  0.00    +0.000 C 
BRANCH   4   6
ATOM      6  C   UNL     1       8.166   9.445  17.902  0.00  0.00    +0.000 C 
BRANCH   6   7
ATOM      7  C   UNL     1       9.044   9.717  19.137  0.00  0.00    +0.000 C 
BRANCH   7  11
ATOM      8  C   UNL     1      11.328  13.365  18.681  0.00  0.00    +0.000 A 
ATOM      9  C   UNL     1      10.392  12.984  17.701  0.00  0.00    +0.000 A 
ATOM     10  C   UNL     1       9.646  11.816  17.856  0.00  0.00    +0.000 A 
ATOM     11  C   UNL     1       9.821  11.004  18.989  0.00  0.00    +0.000 A 
ATOM     12  C   UNL     1      10.738  11.394  19.976  0.00  0.00    +0.000 A 
ATOM     13  C   UNL     1      11.485  12.566  19.821  0.00  0.00    +0.000 A 
BRANCH   8  15
ATOM     14  C   UNL     1      11.627  15.740  18.254  0.00  0.00    +0.000 C 
ATOM     15  O   UNL     1      12.097  14.480  18.559  0.00  0.00    +0.000 OA
ENDBRANCH   8  15
ENDBRANCH   7  11
ENDBRANCH   6   7
ENDBRANCH   4   6
ENDBRANCH   2   4
ENDBRANCH   1   2
BRANCH   1  16
ATOM     16  C   UNL     1       4.863   5.953  16.544  0.00  0.00    +0.000 C 
BRANCH  16  17
ATOM     17  C   UNL     1       3.810   5.625  17.591  0.00  0.00    +0.000 A 
ATOM     18  C   UNL     1       3.340   6.623  18.456  0.00  0.00    +0.000 A 
ATOM     19  C   UNL     1       2.418   6.310  19.458  0.00  0.00    +0.000 A 
ATOM     20  C   UNL     1       1.960   4.995  19.620  0.00  0.00    +0.000 A 
ATOM     21  C   UNL     1       2.412   3.983  18.759  0.00  0.00    +0.000 A 
ATOM     22  C   UNL     1       3.325   4.308  17.740  0.00  0.00    +0.000 A 
BRANCH  21  23
ATOM     23  S   UNL     1       1.841   2.279  19.030  0.00  0.00    +0.000 S 
ATOM     24  C   UNL     1       3.371   1.446  18.500  0.00  0.00    +0.000 C 
ATOM     25  O   UNL     1       2.257   2.243  20.698  0.00  0.00    +0.000 OA
ENDBRANCH  21  23
BRANCH  20  26
ATOM     26  O   UNL     1       1.093   4.695  20.609  0.00  0.00    +0.000 OA
ATOM     27  H   UNL     1       0.144   4.599  20.452  0.00  0.00    +0.000 HD
ENDBRANCH  20  26
ENDBRANCH  16  17
BRANCH  16  28
ATOM     28  O   UNL     1       5.026   4.876  15.651  0.00  0.00    +0.000 OA
ATOM     29  H   UNL     1       4.339   4.953  14.940  0.00  0.00    +0.000 HD
ENDBRANCH  16  28
ENDBRANCH   1  16
TORSDOF 11
ENDMDL
MODEL 5
REMARK VINA RESULT:      -7.1      4.618      7.436
REMARK  Name = 
REMARK  14 active torsions:
REMARK  status: ('A' for Active; 'I' for Inactive)
REMARK    1  A    between atoms: C_1  and  O_2
REMARK    2  A    between atoms: O_2  and  C_3
REMARK    3  A    between atoms: C_6  and  C_7
REMARK    4  A    between atoms: C_7  and  C_8
REMARK    5  A    between atoms: C_8  and  C_9
REMARK    6  A    between atoms: C_9  and  C_10
REMARK    7  A    between atoms: C_9  and  N_11
REMARK    8  A    between atoms: N_11  and  C_12
REMARK    9  A    between atoms: C_12  and  C_13
REMARK   10  A    between atoms: C_13  and  O_14
REMARK   11  A    between atoms: C_13  and  C_15
REMARK   12  A    between atoms: C_18  and  O_19
REMARK   13  A    between atoms: C_20  and  S_21
REMARK   14  A    between atoms: S_21  and  C_22
REMARK                            x       y       z     vdW  Elec       q    Type
REMARK                         _______ _______ _______ _____ _____    ______ ____
ROOT
ATOM      1  C   UNL     1       5.665   7.149  17.189  0.00  0.00    +0.000 C 
ENDROOT
BRANCH   1   2
ATOM      2  N   UNL     1       7.009   7.028  16.599  0.00  0.00    +0.000 NA
ATOM      3  H   UNL     1       7.185   6.044  16.293  0.00  0.00    +0.000 HD
BRANCH   2   4
ATOM      4  C   UNL     1       8.070   7.453  17.543  0.00  0.00    +0.000 C 
ATOM      5  C   UNL     1       7.936   6.631  18.831  0.00  0.00    +0.000 C 
BRANCH   4   6
ATOM      6  C   UNL     1       7.998   8.987  17.847  0.00  0.00    +0.000 C 
BRANCH   6   7
ATOM      7  C   UNL     1       8.932   9.473  18.970  0.00  0.00    +0.000 C 
BRANCH   7  11
ATOM      8  C   UNL     1      10.424  13.464  18.208  0.00  0.00    +0.000 A 
ATOM      9  C   UNL     1      11.145  12.579  19.033  0.00  0.00    +0.000 A 
ATOM     10  C   UNL     1      10.671  11.288  19.266  0.00  0.00    +0.000 A 
ATOM     11  C   UNL     1       9.468  10.856  18.684  0.00  0.00    +0.000 A 
ATOM     12  C   UNL     1       8.759  11.730  17.846  0.00  0.00    +0.000 A 
ATOM     13  C   UNL     1       9.236  13.023  17.611  0.00  0.00    +0.000 A 
BRANCH   8  15
ATOM     14  C   UNL     1      12.034  15.277  18.388  0.00  0.00    +0.000 C 
ATOM     15  O   UNL     1      10.833  14.739  17.975  0.00  0.00    +0.000 OA
ENDBRANCH   8  15
ENDBRANCH   7  11
ENDBRANCH   6   7
ENDBRANCH   4   6
ENDBRANCH   2   4
ENDBRANCH   1   2
BRANCH   1  16
ATOM     16  C   UNL     1       4.640   6.174  16.572  0.00  0.00    +0.000 C 
BRANCH  16  17
ATOM     17  C   UNL     1       3.643   5.767  17.647  0.00  0.00    +0.000 A 
ATOM     18  C   UNL     1       3.091   6.734  18.499  0.00  0.00    +0.000 A 
ATOM     19  C   UNL     1       2.222   6.353  19.526  0.00  0.00    +0.000 A 
ATOM     20  C   UNL     1       1.901   5.003  19.724  0.00  0.00    +0.000 A 
ATOM     21  C   UNL     1       2.437   4.021  18.876  0.00  0.00    +0.000 A 
ATOM     22  C   UNL     1       3.295   4.412  17.833  0.00  0.00    +0.000 A 
BRANCH  21  23
ATOM     23  S   UNL     1       2.045   2.275  19.194  0.00  0.00    +0.000 S 
ATOM     24  C   UNL     1       3.533   1.569  18.418  0.00  0.00    +0.000 C 
ATOM     25  O   UNL     1       2.715   2.255  20.778  0.00  0.00    +0.000 OA
ENDBRANCH  21  23
BRANCH  20  26
ATOM     26  O   UNL     1       1.086   4.640  20.736  0.00  0.00    +0.000 OA
ATOM     27  H   UNL     1       0.676   5.288  21.326  0.00  0.00    +0.000 HD
ENDBRANCH  20  26
ENDBRANCH  16  17
BRANCH  16  28
ATOM     28  O   UNL     1       5.258   5.039  16.014  0.00  0.00    +0.000 OA
ATOM     29  H   UNL     1       5.117   5.056  15.033  0.00  0.00    +0.000 HD
ENDBRANCH  16  28
ENDBRANCH   1  16
TORSDOF 11
ENDMDL
MODEL 6
REMARK VINA RESULT:      -7.1      1.272      2.138
REMARK  Name = 
REMARK  14 active torsions:
REMARK  status: ('A' for Active; 'I' for Inactive)
REMARK    1  A    between atoms: C_1  and  O_2
REMARK    2  A    between atoms: O_2  and  C_3
REMARK    3  A    between atoms: C_6  and  C_7
REMARK    4  A    between atoms: C_7  and  C_8
REMARK    5  A    between atoms: C_8  and  C_9
REMARK    6  A    between atoms: C_9  and  C_10
REMARK    7  A    between atoms: C_9  and  N_11
REMARK    8  A    between atoms: N_11  and  C_12
REMARK    9  A    between atoms: C_12  and  C_13
REMARK   10  A    between atoms: C_13  and  O_14
REMARK   11  A    between atoms: C_13  and  C_15
REMARK   12  A    between atoms: C_18  and  O_19
REMARK   13  A    between atoms: C_20  and  S_21
REMARK   14  A    between atoms: S_21  and  C_22
REMARK                            x       y       z     vdW  Elec       q    Type
REMARK                         _______ _______ _______ _____ _____    ______ ____
ROOT
ATOM      1  C   UNL     1       2.400   2.938  17.779  0.00  0.00    +0.000 C 
ENDROOT
BRANCH   1   2
ATOM      2  N   UNL     1       1.489   3.805  18.546  0.00  0.00    +0.000 NA
ATOM      3  H   UNL     1       1.405   4.741  18.087  0.00  0.00    +0.000 HD
BRANCH   2   4
ATOM      4  C   UNL     1       1.934   3.976  19.949  0.00  0.00    +0.000 C 
ATOM      5  C   UNL     1       0.951   3.237  20.867  0.00  0.00    +0.000 C 
BRANCH   4   6
ATOM      6  C   UNL     1       2.042   5.487  20.345  0.00  0.00    +0.000 C 
BRANCH   6   7
ATOM      7  C   UNL     1       2.619   6.407  19.254  0.00  0.00    +0.000 C 
BRANCH   7  11
ATOM      8  C   UNL     1       0.911  10.380  19.437  0.00  0.00    +0.000 A 
ATOM      9  C   UNL     1       1.496   9.910  18.245  0.00  0.00    +0.000 A 
ATOM     10  C   UNL     1       2.033   8.624  18.183  0.00  0.00    +0.000 A 
ATOM     11  C   UNL     1       2.000   7.784  19.308  0.00  0.00    +0.000 A 
ATOM     12  C   UNL     1       1.399   8.244  20.490  0.00  0.00    +0.000 A 
ATOM     13  C   UNL     1       0.859   9.532  20.551  0.00  0.00    +0.000 A 
BRANCH   8  15
ATOM     14  C   UNL     1      -0.475  12.050  20.534  0.00  0.00    +0.000 C 
ATOM     15  O   UNL     1       0.400  11.635  19.552  0.00  0.00    +0.000 OA
ENDBRANCH   8  15
ENDBRANCH   7  11
ENDBRANCH   6   7
ENDBRANCH   4   6
ENDBRANCH   2   4
ENDBRANCH   1   2
BRANCH   1  16
ATOM     16  C   UNL     1       3.671   2.547  18.563  0.00  0.00    +0.000 C 
BRANCH  16  17
ATOM     17  C   UNL     1       4.782   3.527  18.216  0.00  0.00    +0.000 A 
ATOM     18  C   UNL     1       5.416   4.262  19.227  0.00  0.00    +0.000 A 
ATOM     19  C   UNL     1       6.394   5.206  18.903  0.00  0.00    +0.000 A 
ATOM     20  C   UNL     1       6.745   5.439  17.565  0.00  0.00    +0.000 A 
ATOM     21  C   UNL     1       6.127   4.707  16.539  0.00  0.00    +0.000 A 
ATOM     22  C   UNL     1       5.158   3.745  16.873  0.00  0.00    +0.000 A 
BRANCH  21  23
ATOM     23  S   UNL     1       6.564   5.073  14.813  0.00  0.00    +0.000 S 
ATOM     24  C   UNL     1       5.347   3.963  14.037  0.00  0.00    +0.000 C 
ATOM     25  O   UNL     1       5.556   6.461  14.692  0.00  0.00    +0.000 OA
ENDBRANCH  21  23
BRANCH  20  26
ATOM     26  O   UNL     1       7.667   6.374  17.258  0.00  0.00    +0.000 OA
ATOM     27  H   UNL     1       8.269   6.279  16.507  0.00  0.00    +0.000 HD
ENDBRANCH  20  26
ENDBRANCH  16  17
BRANCH  16  28
ATOM     28  O   UNL     1       4.073   1.226  18.293  0.00  0.00    +0.000 OA
ATOM     29  H   UNL     1       4.596   0.893  19.068  0.00  0.00    +0.000 HD
ENDBRANCH  16  28
ENDBRANCH   1  16
TORSDOF 11
ENDMDL
MODEL 7
REMARK VINA RESULT:      -7.0      2.727      6.950
REMARK  Name = 
REMARK  14 active torsions:
REMARK  status: ('A' for Active; 'I' for Inactive)
REMARK    1  A    between atoms: C_1  and  O_2
REMARK    2  A    between atoms: O_2  and  C_3
REMARK    3  A    between atoms: C_6  and  C_7
REMARK    4  A    between atoms: C_7  and  C_8
REMARK    5  A    between atoms: C_8  and  C_9
REMARK    6  A    between atoms: C_9  and  C_10
REMARK    7  A    between atoms: C_9  and  N_11
REMARK    8  A    between atoms: N_11  and  C_12
REMARK    9  A    between atoms: C_12  and  C_13
REMARK   10  A    between atoms: C_13  and  O_14
REMARK   11  A    between atoms: C_13  and  C_15
REMARK   12  A    between atoms: C_18  and  O_19
REMARK   13  A    between atoms: C_20  and  S_21
REMARK   14  A    between atoms: S_21  and  C_22
REMARK                            x       y       z     vdW  Elec       q    Type
REMARK                         _______ _______ _______ _____ _____    ______ ____
ROOT
ATOM      1  C   UNL     1       1.609   6.390  20.573  0.00  0.00    +0.000 C 
ENDROOT
BRANCH   1   2
ATOM      2  N   UNL     1       2.343   5.157  20.901  0.00  0.00    +0.000 NA
ATOM      3  H   UNL     1       3.272   5.147  20.421  0.00  0.00    +0.000 HD
BRANCH   2   4
ATOM      4  C   UNL     1       1.580   3.941  20.531  0.00  0.00    +0.000 C 
ATOM      5  C   UNL     1       1.829   2.865  21.596  0.00  0.00    +0.000 C 
BRANCH   4   6
ATOM      6  C   UNL     1       1.969   3.420  19.107  0.00  0.00    +0.000 C 
BRANCH   6   7
ATOM      7  C   UNL     1       3.396   2.858  18.986  0.00  0.00    +0.000 C 
BRANCH   7  11
ATOM      8  C   UNL     1       6.151   5.704  17.242  0.00  0.00    +0.000 A 
ATOM      9  C   UNL     1       5.230   5.015  16.430  0.00  0.00    +0.000 A 
ATOM     10  C   UNL     1       4.333   4.109  16.995  0.00  0.00    +0.000 A 
ATOM     11  C   UNL     1       4.339   3.870  18.379  0.00  0.00    +0.000 A 
ATOM     12  C   UNL     1       5.243   4.571  19.191  0.00  0.00    +0.000 A 
ATOM     13  C   UNL     1       6.141   5.481  18.624  0.00  0.00    +0.000 A 
BRANCH   8  15
ATOM     14  C   UNL     1       7.598   7.651  17.407  0.00  0.00    +0.000 C 
ATOM     15  O   UNL     1       7.062   6.575  16.731  0.00  0.00    +0.000 OA
ENDBRANCH   8  15
ENDBRANCH   7  11
ENDBRANCH   6   7
ENDBRANCH   4   6
ENDBRANCH   2   4
ENDBRANCH   1   2
BRANCH   1  16
ATOM     16  C   UNL     1       2.329   7.267  19.526  0.00  0.00    +0.000 C 
BRANCH  16  17
ATOM     17  C   UNL     1       1.613   8.606  19.433  0.00  0.00    +0.000 A 
ATOM     18  C   UNL     1       1.827   9.446  18.331  0.00  0.00    +0.000 A 
ATOM     19  C   UNL     1       1.218  10.702  18.274  0.00  0.00    +0.000 A 
ATOM     20  C   UNL     1       0.396  11.143  19.321  0.00  0.00    +0.000 A 
ATOM     21  C   UNL     1       0.162  10.314  20.429  0.00  0.00    +0.000 A 
ATOM     22  C   UNL     1       0.762   9.043  20.471  0.00  0.00    +0.000 A 
BRANCH  21  23
ATOM     23  S   UNL     1      -0.864  10.938  21.793  0.00  0.00    +0.000 S 
ATOM     24  C   UNL     1      -0.209   9.835  23.085  0.00  0.00    +0.000 C 
ATOM     25  O   UNL     1       0.191  12.235  22.196  0.00  0.00    +0.000 OA
ENDBRANCH  21  23
BRANCH  20  26
ATOM     26  O   UNL     1      -0.164  12.370  19.273  0.00  0.00    +0.000 OA
ATOM     27  H   UNL     1      -0.349  12.821  18.438  0.00  0.00    +0.000 HD
ENDBRANCH  20  26
ENDBRANCH  16  17
BRANCH  16  28
ATOM     28  O   UNL     1       2.383   6.646  18.264  0.00  0.00    +0.000 OA
ATOM     29  H   UNL     1       3.220   6.116  18.211  0.00  0.00    +0.000 HD
ENDBRANCH  16  28
ENDBRANCH   1  16
TORSDOF 11
ENDMDL
MODEL 8
REMARK VINA RESULT:      -6.9      4.302      6.882
REMARK  Name = 
REMARK  14 active torsions:
REMARK  status: ('A' for Active; 'I' for Inactive)
REMARK    1  A    between atoms: C_1  and  O_2
REMARK    2  A    between atoms: O_2  and  C_3
REMARK    3  A    between atoms: C_6  and  C_7
REMARK    4  A    between atoms: C_7  and  C_8
REMARK    5  A    between atoms: C_8  and  C_9
REMARK    6  A    between atoms: C_9  and  C_10
REMARK    7  A    between atoms: C_9  and  N_11
REMARK    8  A    between atoms: N_11  and  C_12
REMARK    9  A    between atoms: C_12  and  C_13
REMARK   10  A    between atoms: C_13  and  O_14
REMARK   11  A    between atoms: C_13  and  C_15
REMARK   12  A    between atoms: C_18  and  O_19
REMARK   13  A    between atoms: C_20  and  S_21
REMARK   14  A    between atoms: S_21  and  C_22
REMARK                            x       y       z     vdW  Elec       q    Type
REMARK                         _______ _______ _______ _____ _____    ______ ____
ROOT
ATOM      1  C   UNL     1       6.873   5.350  16.526  0.00  0.00    +0.000 C 
ENDROOT
BRANCH   1   2
ATOM      2  N   UNL     1       7.455   6.703  16.506  0.00  0.00    +0.000 NA
ATOM      3  H   UNL     1       8.189   6.773  15.764  0.00  0.00    +0.000 HD
BRANCH   2   4
ATOM      4  C   UNL     1       8.037   7.077  17.817  0.00  0.00    +0.000 C 
ATOM      5  C   UNL     1       7.531   6.088  18.876  0.00  0.00    +0.000 C 
BRANCH   4   6
ATOM      6  C   UNL     1       7.685   8.550  18.212  0.00  0.00    +0.000 C 
BRANCH   6   7
ATOM      7  C   UNL     1       8.453   9.635  17.435  0.00  0.00    +0.000 C 
BRANCH   7  11
ATOM      8  C   UNL     1      10.040  12.687  20.061  0.00  0.00    +0.000 A 
ATOM      9  C   UNL     1       9.611  13.019  18.762  0.00  0.00    +0.000 A 
ATOM     10  C   UNL     1       9.086  12.037  17.921  0.00  0.00    +0.000 A 
ATOM     11  C   UNL     1       8.982  10.706  18.359  0.00  0.00    +0.000 A 
ATOM     12  C   UNL     1       9.390  10.379  19.661  0.00  0.00    +0.000 A 
ATOM     13  C   UNL     1       9.914  11.364  20.504  0.00  0.00    +0.000 A 
BRANCH   8  15
ATOM     14  C   UNL     1       9.880  14.351  21.828  0.00  0.00    +0.000 C 
ATOM     15  O   UNL     1      10.583  13.605  20.905  0.00  0.00    +0.000 OA
ENDBRANCH   8  15
ENDBRANCH   7  11
ENDBRANCH   6   7
ENDBRANCH   4   6
ENDBRANCH   2   4
ENDBRANCH   1   2
BRANCH   1  16
ATOM     16  C   UNL     1       5.474   5.280  15.879  0.00  0.00    +0.000 C 
BRANCH  16  17
ATOM     17  C   UNL     1       4.424   5.304  16.979  0.00  0.00    +0.000 A 
ATOM     18  C   UNL     1       4.054   6.518  17.576  0.00  0.00    +0.000 A 
ATOM     19  C   UNL     1       3.134   6.534  18.627  0.00  0.00    +0.000 A 
ATOM     20  C   UNL     1       2.580   5.339  19.108  0.00  0.00    +0.000 A 
ATOM     21  C   UNL     1       2.931   4.115  18.519  0.00  0.00    +0.000 A 
ATOM     22  C   UNL     1       3.842   4.107  17.448  0.00  0.00    +0.000 A 
BRANCH  21  23
ATOM     23  S   UNL     1       2.236   2.580  19.201  0.00  0.00    +0.000 S 
ATOM     24  C   UNL     1       3.504   1.451  18.542  0.00  0.00    +0.000 C 
ATOM     25  O   UNL     1       2.999   2.736  20.734  0.00  0.00    +0.000 OA
ENDBRANCH  21  23
BRANCH  20  26
ATOM     26  O   UNL     1       1.716   5.360  20.144  0.00  0.00    +0.000 OA
ATOM     27  H   UNL     1       1.994   5.174  21.051  0.00  0.00    +0.000 HD
ENDBRANCH  20  26
ENDBRANCH  16  17
BRANCH  16  28
ATOM     28  O   UNL     1       5.321   4.137  15.073  0.00  0.00    +0.000 OA
ATOM     29  H   UNL     1       4.351   3.976  14.938  0.00  0.00    +0.000 HD
ENDBRANCH  16  28
ENDBRANCH   1  16
TORSDOF 11
ENDMDL
MODEL 9
REMARK VINA RESULT:      -6.9      1.340      2.361
REMARK  Name = 
REMARK  14 active torsions:
REMARK  status: ('A' for Active; 'I' for Inactive)
REMARK    1  A    between atoms: C_1  and  O_2
REMARK    2  A    between atoms: O_2  and  C_3
REMARK    3  A    between atoms: C_6  and  C_7
REMARK    4  A    between atoms: C_7  and  C_8
REMARK    5  A    between atoms: C_8  and  C_9
REMARK    6  A    between atoms: C_9  and  C_10
REMARK    7  A    between atoms: C_9  and  N_11
REMARK    8  A    between atoms: N_11  and  C_12
REMARK    9  A    between atoms: C_12  and  C_13
REMARK   10  A    between atoms: C_13  and  O_14
REMARK   11  A    between atoms: C_13  and  C_15
REMARK   12  A    between atoms: C_18  and  O_19
REMARK   13  A    between atoms: C_20  and  S_21
REMARK   14  A    between atoms: S_21  and  C_22
REMARK                            x       y       z     vdW  Elec       q    Type
REMARK                         _______ _______ _______ _____ _____    ______ ____
ROOT
ATOM      1  C   UNL     1       2.324   2.739  17.851  0.00  0.00    +0.000 C 
ENDROOT
BRANCH   1   2
ATOM      2  N   UNL     1       1.736   3.993  18.351  0.00  0.00    +0.000 NA
ATOM      3  H   UNL     1       2.254   4.816  17.968  0.00  0.00    +0.000 HD
BRANCH   2   4
ATOM      4  C   UNL     1       1.731   4.053  19.832  0.00  0.00    +0.000 C 
ATOM      5  C   UNL     1       0.535   3.244  20.350  0.00  0.00    +0.000 C 
BRANCH   4   6
ATOM      6  C   UNL     1       1.679   5.528  20.355  0.00  0.00    +0.000 C 
BRANCH   6   7
ATOM      7  C   UNL     1       2.545   6.529  19.569  0.00  0.00    +0.000 C 
BRANCH   7  11
ATOM      8  C   UNL     1       0.686  10.437  19.490  0.00  0.00    +0.000 A 
ATOM      9  C   UNL     1       0.769   9.712  20.694  0.00  0.00    +0.000 A 
ATOM     10  C   UNL     1       1.381   8.459  20.721  0.00  0.00    +0.000 A 
ATOM     11  C   UNL     1       1.919   7.904  19.548  0.00  0.00    +0.000 A 
ATOM     12  C   UNL     1       1.855   8.635  18.353  0.00  0.00    +0.000 A 
ATOM     13  C   UNL     1       1.243   9.891  18.326  0.00  0.00    +0.000 A 
BRANCH   8  15
ATOM     14  C   UNL     1       0.598  12.765  18.794  0.00  0.00    +0.000 C 
ATOM     15  O   UNL     1       0.074  11.649  19.410  0.00  0.00    +0.000 OA
ENDBRANCH   8  15
ENDBRANCH   7  11
ENDBRANCH   6   7
ENDBRANCH   4   6
ENDBRANCH   2   4
ENDBRANCH   1   2
BRANCH   1  16
ATOM     16  C   UNL     1       3.641   2.358  18.562  0.00  0.00    +0.000 C 
BRANCH  16  17
ATOM     17  C   UNL     1       4.675   3.440  18.287  0.00  0.00    +0.000 A 
ATOM     18  C   UNL     1       5.195   4.202  19.342  0.00  0.00    +0.000 A 
ATOM     19  C   UNL     1       6.100   5.236  19.085  0.00  0.00    +0.000 A 
ATOM     20  C   UNL     1       6.489   5.532  17.770  0.00  0.00    +0.000 A 
ATOM     21  C   UNL     1       5.985   4.774  16.701  0.00  0.00    +0.000 A 
ATOM     22  C   UNL     1       5.091   3.723  16.968  0.00  0.00    +0.000 A 
BRANCH  21  23
ATOM     23  S   UNL     1       6.467   5.219  15.006  0.00  0.00    +0.000 S 
ATOM     24  C   UNL     1       5.257   4.162  14.148  0.00  0.00    +0.000 C 
ATOM     25  O   UNL     1       5.475   6.622  14.929  0.00  0.00    +0.000 OA
ENDBRANCH  21  23
BRANCH  20  26
ATOM     26  O   UNL     1       7.338   6.551  17.527  0.00  0.00    +0.000 OA
ATOM     27  H   UNL     1       7.767   7.047  18.238  0.00  0.00    +0.000 HD
ENDBRANCH  20  26
ENDBRANCH  16  17
BRANCH  16  28
ATOM     28  O   UNL     1       4.119   1.100  18.151  0.00  0.00    +0.000 OA
ATOM     29  H   UNL     1       4.296   0.553  18.959  0.00  0.00    +0.000 HD
ENDBRANCH  16  28
ENDBRANCH   1  16
TORSDOF 11
ENDMDL
