MODEL 1
REMARK VINA RESULT:      -7.7      0.000      0.000
REMARK  Name = 
REMARK  13 active torsions:
REMARK  status: ('A' for Active; 'I' for Inactive)
REMARK    1  A    between atoms: C_1  and  C_2
REMARK    2  A    between atoms: C_2  and  C_22
REMARK    3  A    between atoms: N_3  and  O_4
REMARK    4  A    between atoms: O_4  and  C_5
REMARK    5  A    between atoms: C_5  and  C_6
REMARK    6  A    between atoms: C_9  and  C_10
REMARK    7  A    between atoms: C_15  and  C_16
REMARK    8  A    between atoms: C_25  and  C_26
REMARK    9  A    between atoms: C_26  and  N_27
REMARK   10  A    between atoms: N_27  and  C_28
REMARK   11  A    between atoms: C_28  and  C_29
REMARK   12  A    between atoms: C_29  and  C_30
REMARK   13  A    between atoms: C_30  and  O_32
REMARK                            x       y       z     vdW  Elec       q    Type
REMARK                         _______ _______ _______ _____ _____    ______ ____
ROOT
ATOM      1  C   UNL     1       8.022   5.806  19.210  0.00  0.00    +0.000 C 
ATOM      2  C   UNL     1       6.959   6.443  18.328  0.00  0.00    +0.000 C 
ATOM      3  N   UNL     1       7.053   7.639  17.824  0.00  0.00    +0.000 NA
ENDROOT
BRANCH   2   4
ATOM      4  C   UNL     1       5.742   5.626  18.028  0.00  0.00    +0.000 A 
ATOM      5  C   UNL     1       5.885   4.409  17.345  0.00  0.00    +0.000 A 
ATOM      6  C   UNL     1       4.764   3.634  17.053  0.00  0.00    +0.000 A 
ATOM      7  C   UNL     1       3.491   4.042  17.460  0.00  0.00    +0.000 A 
ATOM      8  C   UNL     1       3.344   5.258  18.147  0.00  0.00    +0.000 A 
ATOM      9  C   UNL     1       4.473   6.045  18.424  0.00  0.00    +0.000 A 
BRANCH   7  10
ATOM     10  C   UNL     1       2.284   3.185  17.164  0.00  0.00    +0.000 C 
BRANCH  10  11
ATOM     11  N   UNL     1       2.169   2.105  18.148  0.00  0.00    +0.000 NA
ATOM     12  H   UNL     1       2.937   2.198  18.813  0.00  0.00    +0.000 HD
BRANCH  11  13
ATOM     13  C   UNL     1       0.884   2.189  18.852  0.00  0.00    +0.000 C 
BRANCH  13  14
ATOM     14  C   UNL     1       0.951   3.244  19.953  0.00  0.00    +0.000 C 
BRANCH  14  15
ATOM     15  C   UNL     1       1.853   2.785  21.072  0.00  0.00    +0.000 C 
ATOM     16  O   UNL     1       1.481   2.463  22.191  0.00  0.00    +0.000 OA
BRANCH  15  17
ATOM     17  O   UNL     1       3.158   2.773  20.720  0.00  0.00    +0.000 OA
ATOM     18  H   UNL     1       3.523   1.876  20.620  0.00  0.00    +0.000 HD
ENDBRANCH  15  17
ENDBRANCH  14  15
ENDBRANCH  13  14
ENDBRANCH  11  13
ENDBRANCH  10  11
ENDBRANCH   7  10
ENDBRANCH   2   4
BRANCH   3  19
ATOM     19  O   UNL     1       8.232   8.273  18.232  0.00  0.00    +0.000 OA
BRANCH  19  20
ATOM     20  C   UNL     1       8.468   9.407  17.404  0.00  0.00    +0.000 C 
BRANCH  20  21
ATOM     21  C   UNL     1       8.887  10.545  18.294  0.00  0.00    +0.000 A 
ATOM     22  C   UNL     1       9.490  10.304  19.528  0.00  0.00    +0.000 A 
ATOM     23  C   UNL     1       9.760  11.364  20.399  0.00  0.00    +0.000 A 
ATOM     24  C   UNL     1       9.491  12.707  20.053  0.00  0.00    +0.000 A 
ATOM     25  C   UNL     1       8.996  12.927  18.761  0.00  0.00    +0.000 A 
ATOM     26  C   UNL     1       8.628  11.866  17.925  0.00  0.00    +0.000 A 
BRANCH  24  27
ATOM     27  C   UNL     1       9.726  13.805  21.032  0.00  0.00    +0.000 A 
ATOM     28  C   UNL     1      10.701  14.783  20.698  0.00  0.00    +0.000 A 
ATOM     29  C   UNL     1      11.075  15.813  21.562  0.00  0.00    +0.000 A 
ATOM     30  C   UNL     1      10.448  15.935  22.789  0.00  0.00    +0.000 A 
ATOM     31  C   UNL     1       9.463  15.020  23.141  0.00  0.00    +0.000 A 
ATOM     32  C   UNL     1       9.102  13.931  22.300  0.00  0.00    +0.000 A 
BRANCH  32  33
ATOM     33  C   UNL     1       8.070  13.004  22.920  0.00  0.00    +0.000 C 
ATOM     34  F   UNL     1       7.453  13.400  24.056  0.00  0.00    +0.000 F 
ATOM     35  F   UNL     1       7.040  12.749  22.050  0.00  0.00    +0.000 F 
ATOM     36  F   UNL     1       8.604  11.777  23.198  0.00  0.00    +0.000 F 
ENDBRANCH  32  33
ENDBRANCH  24  27
ENDBRANCH  20  21
ENDBRANCH  19  20
ENDBRANCH   3  19
TORSDOF 12
ENDMDL
MODEL 2
REMARK VINA RESULT:      -7.6      8.677     12.191
REMARK  Name = 
REMARK  13 active torsions:
REMARK  status: ('A' for Active; 'I' for Inactive)
REMARK    1  A    between atoms: C_1  and  C_2
REMARK    2  A    between atoms: C_2  and  C_22
REMARK    3  A    between atoms: N_3  and  O_4
REMARK    4  A    between atoms: O_4  and  C_5
REMARK    5  A    between atoms: C_5  and  C_6
REMARK    6  A    between atoms: C_9  and  C_10
REMARK    7  A    between atoms: C_15  and  C_16
REMARK    8  A    between atoms: C_25  and  C_26
REMARK    9  A    between atoms: C_26  and  N_27
REMARK   10  A    between atoms: N_27  and  C_28
REMARK   11  A    between atoms: C_28  and  C_29
REMARK   12  A    between atoms: C_29  and  C_30
REMARK   13  A    between atoms: C_30  and  O_32
REMARK                            x       y       z     vdW  Elec       q    Type
REMARK                         _______ _______ _______ _____ _____    ______ ____
ROOT
ATOM      1  C   UNL     1      -0.562   9.922  23.145  0.00  0.00    +0.000 C 
ATOM      2  C   UNL     1      -0.501  11.261  22.426  0.00  0.00    +0.000 C 
ATOM      3  N   UNL     1       0.230  11.490  21.375  0.00  0.00    +0.000 NA
ENDROOT
BRANCH   2   4
ATOM      4  C   UNL     1      -1.346  12.368  22.974  0.00  0.00    +0.000 A 
ATOM      5  C   UNL     1      -0.859  13.683  22.936  0.00  0.00    +0.000 A 
ATOM      6  C   UNL     1      -1.629  14.729  23.443  0.00  0.00    +0.000 A 
ATOM      7  C   UNL     1      -2.902  14.488  23.966  0.00  0.00    +0.000 A 
ATOM      8  C   UNL     1      -3.394  13.173  24.002  0.00  0.00    +0.000 A 
ATOM      9  C   UNL     1      -2.609  12.119  23.507  0.00  0.00    +0.000 A 
BRANCH   7  10
ATOM     10  C   UNL     1      -3.742  15.628  24.489  0.00  0.00    +0.000 C 
BRANCH  10  11
ATOM     11  N   UNL     1      -3.060  16.299  25.599  0.00  0.00    +0.000 NA
ATOM     12  H   UNL     1      -2.254  15.733  25.865  0.00  0.00    +0.000 HD
BRANCH  11  13
ATOM     13  C   UNL     1      -2.620  17.639  25.195  0.00  0.00    +0.000 C 
BRANCH  13  14
ATOM     14  C   UNL     1      -1.494  18.125  26.104  0.00  0.00    +0.000 C 
BRANCH  14  15
ATOM     15  C   UNL     1      -0.586  16.980  26.480  0.00  0.00    +0.000 C 
ATOM     16  O   UNL     1       0.148  16.380  25.709  0.00  0.00    +0.000 OA
BRANCH  15  17
ATOM     17  O   UNL     1      -0.666  16.659  27.790  0.00  0.00    +0.000 OA
ATOM     18  H   UNL     1      -0.601  15.702  27.958  0.00  0.00    +0.000 HD
ENDBRANCH  15  17
ENDBRANCH  14  15
ENDBRANCH  13  14
ENDBRANCH  11  13
ENDBRANCH  10  11
ENDBRANCH   7  10
ENDBRANCH   2   4
BRANCH   3  19
ATOM     19  O   UNL     1       0.980  10.363  21.020  0.00  0.00    +0.000 OA
BRANCH  19  20
ATOM     20  C   UNL     1       0.407   9.759  19.865  0.00  0.00    +0.000 C 
BRANCH  20  21
ATOM     21  C   UNL     1       1.423   8.810  19.291  0.00  0.00    +0.000 A 
ATOM     22  C   UNL     1       1.930   8.996  18.006  0.00  0.00    +0.000 A 
ATOM     23  C   UNL     1       2.777   8.039  17.438  0.00  0.00    +0.000 A 
ATOM     24  C   UNL     1       3.194   6.891  18.147  0.00  0.00    +0.000 A 
ATOM     25  C   UNL     1       2.763   6.792  19.477  0.00  0.00    +0.000 A 
ATOM     26  C   UNL     1       1.835   7.691  20.016  0.00  0.00    +0.000 A 
BRANCH  24  27
ATOM     27  C   UNL     1       4.040   5.857  17.487  0.00  0.00    +0.000 A 
ATOM     28  C   UNL     1       5.279   6.280  16.935  0.00  0.00    +0.000 A 
ATOM     29  C   UNL     1       6.123   5.430  16.218  0.00  0.00    +0.000 A 
ATOM     30  C   UNL     1       5.783   4.098  16.067  0.00  0.00    +0.000 A 
ATOM     31  C   UNL     1       4.595   3.635  16.622  0.00  0.00    +0.000 A 
ATOM     32  C   UNL     1       3.693   4.493  17.311  0.00  0.00    +0.000 A 
BRANCH  32  33
ATOM     33  C   UNL     1       2.418   3.797  17.756  0.00  0.00    +0.000 C 
ATOM     34  F   UNL     1       2.240   3.567  19.076  0.00  0.00    +0.000 F 
ATOM     35  F   UNL     1       1.304   4.508  17.386  0.00  0.00    +0.000 F 
ATOM     36  F   UNL     1       2.274   2.582  17.147  0.00  0.00    +0.000 F 
ENDBRANCH  32  33
ENDBRANCH  24  27
ENDBRANCH  20  21
ENDBRANCH  19  20
ENDBRANCH   3  19
TORSDOF 12
ENDMDL
MODEL 3
REMARK VINA RESULT:      -7.6      9.216     12.179
REMARK  Name = 
REMARK  13 active torsions:
REMARK  status: ('A' for Active; 'I' for Inactive)
REMARK    1  A    between atoms: C_1  and  C_2
REMARK    2  A    between atoms: C_2  and  C_22
REMARK    3  A    between atoms: N_3  and  O_4
REMARK    4  A    between atoms: O_4  and  C_5
REMARK    5  A    between atoms: C_5  and  C_6
REMARK    6  A    between atoms: C_9  and  C_10
REMARK    7  A    between atoms: C_15  and  C_16
REMARK    8  A    between atoms: C_25  and  C_26
REMARK    9  A    between atoms: C_26  and  N_27
REMARK   10  A    between atoms: N_27  and  C_28
REMARK   11  A    between atoms: C_28  and  C_29
REMARK   12  A    between atoms: C_29  and  C_30
REMARK   13  A    between atoms: C_30  and  O_32
REMARK                            x       y       z     vdW  Elec       q    Type
REMARK                         _______ _______ _______ _____ _____    ______ ____
ROOT
ATOM      1  C   UNL     1      -0.932  10.327  22.963  0.00  0.00    +0.000 C 
ATOM      2  C   UNL     1      -0.708  11.748  22.471  0.00  0.00    +0.000 C 
ATOM      3  N   UNL     1       0.122  12.068  21.522  0.00  0.00    +0.000 NA
ENDROOT
BRANCH   2   4
ATOM      4  C   UNL     1      -1.506  12.831  23.128  0.00  0.00    +0.000 A 
ATOM      5  C   UNL     1      -2.820  12.561  23.538  0.00  0.00    +0.000 A 
ATOM      6  C   UNL     1      -3.581  13.556  24.148  0.00  0.00    +0.000 A 
ATOM      7  C   UNL     1      -3.039  14.822  24.387  0.00  0.00    +0.000 A 
ATOM      8  C   UNL     1      -1.723  15.095  23.981  0.00  0.00    +0.000 A 
ATOM      9  C   UNL     1      -0.964  14.096  23.350  0.00  0.00    +0.000 A 
BRANCH   7  10
ATOM     10  C   UNL     1      -3.860  15.887  25.073  0.00  0.00    +0.000 C 
BRANCH  10  11
ATOM     11  N   UNL     1      -5.217  15.924  24.521  0.00  0.00    +0.000 NA
ATOM     12  H   UNL     1      -5.855  16.209  25.265  0.00  0.00    +0.000 HD
BRANCH  11  13
ATOM     13  C   UNL     1      -5.290  16.876  23.407  0.00  0.00    +0.000 C 
BRANCH  13  14
ATOM     14  C   UNL     1      -6.365  16.447  22.412  0.00  0.00    +0.000 C 
BRANCH  14  15
ATOM     15  C   UNL     1      -6.012  15.118  21.791  0.00  0.00    +0.000 C 
ATOM     16  O   UNL     1      -5.317  14.966  20.798  0.00  0.00    +0.000 OA
BRANCH  15  17
ATOM     17  O   UNL     1      -6.562  14.072  22.447  0.00  0.00    +0.000 OA
ATOM     18  H   UNL     1      -6.951  13.404  21.855  0.00  0.00    +0.000 HD
ENDBRANCH  15  17
ENDBRANCH  14  15
ENDBRANCH  13  14
ENDBRANCH  11  13
ENDBRANCH  10  11
ENDBRANCH   7  10
ENDBRANCH   2   4
BRANCH   3  19
ATOM     19  O   UNL     1       0.808  10.945  21.046  0.00  0.00    +0.000 OA
BRANCH  19  20
ATOM     20  C   UNL     1       0.381  10.660  19.717  0.00  0.00    +0.000 C 
BRANCH  20  21
ATOM     21  C   UNL     1       1.115   9.432  19.253  0.00  0.00    +0.000 A 
ATOM     22  C   UNL     1       1.449   8.418  20.150  0.00  0.00    +0.000 A 
ATOM     23  C   UNL     1       2.240   7.342  19.732  0.00  0.00    +0.000 A 
ATOM     24  C   UNL     1       2.680   7.208  18.397  0.00  0.00    +0.000 A 
ATOM     25  C   UNL     1       2.230   8.180  17.494  0.00  0.00    +0.000 A 
ATOM     26  C   UNL     1       1.526   9.311  17.925  0.00  0.00    +0.000 A 
BRANCH  24  27
ATOM     27  C   UNL     1       3.579   6.086  18.003  0.00  0.00    +0.000 A 
ATOM     28  C   UNL     1       4.937   6.400  17.730  0.00  0.00    +0.000 A 
ATOM     29  C   UNL     1       5.860   5.459  17.271  0.00  0.00    +0.000 A 
ATOM     30  C   UNL     1       5.468   4.142  17.112  0.00  0.00    +0.000 A 
ATOM     31  C   UNL     1       4.156   3.785  17.402  0.00  0.00    +0.000 A 
ATOM     32  C   UNL     1       3.184   4.736  17.820  0.00  0.00    +0.000 A 
BRANCH  32  33
ATOM     33  C   UNL     1       1.796   4.145  17.994  0.00  0.00    +0.000 C 
ATOM     34  F   UNL     1       1.633   2.817  17.793  0.00  0.00    +0.000 F 
ATOM     35  F   UNL     1       1.319   4.354  19.263  0.00  0.00    +0.000 F 
ATOM     36  F   UNL     1       0.887   4.756  17.175  0.00  0.00    +0.000 F 
ENDBRANCH  32  33
ENDBRANCH  24  27
ENDBRANCH  20  21
ENDBRANCH  19  20
ENDBRANCH   3  19
TORSDOF 12
ENDMDL
MODEL 4
REMARK VINA RESULT:      -7.4      8.293     10.026
REMARK  Name = 
REMARK  13 active torsions:
REMARK  status: ('A' for Active; 'I' for Inactive)
REMARK    1  A    between atoms: C_1  and  C_2
REMARK    2  A    between atoms: C_2  and  C_22
REMARK    3  A    between atoms: N_3  and  O_4
REMARK    4  A    between atoms: O_4  and  C_5
REMARK    5  A    between atoms: C_5  and  C_6
REMARK    6  A    between atoms: C_9  and  C_10
REMARK    7  A    between atoms: C_15  and  C_16
REMARK    8  A    between atoms: C_25  and  C_26
REMARK    9  A    between atoms: C_26  and  N_27
REMARK   10  A    between atoms: N_27  and  C_28
REMARK   11  A    between atoms: C_28  and  C_29
REMARK   12  A    between atoms: C_29  and  C_30
REMARK   13  A    between atoms: C_30  and  O_32
REMARK                            x       y       z     vdW  Elec       q    Type
REMARK                         _______ _______ _______ _____ _____    ______ ____
ROOT
ATOM      1  C   UNL     1       1.215   9.530  17.873  0.00  0.00    +0.000 C 
ATOM      2  C   UNL     1       1.743   8.678  19.017  0.00  0.00    +0.000 C 
ATOM      3  N   UNL     1       1.468   8.891  20.271  0.00  0.00    +0.000 NA
ENDROOT
BRANCH   2   4
ATOM      4  C   UNL     1       2.625   7.523  18.658  0.00  0.00    +0.000 A 
ATOM      5  C   UNL     1       2.614   6.376  19.465  0.00  0.00    +0.000 A 
ATOM      6  C   UNL     1       3.430   5.291  19.150  0.00  0.00    +0.000 A 
ATOM      7  C   UNL     1       4.245   5.319  18.015  0.00  0.00    +0.000 A 
ATOM      8  C   UNL     1       4.255   6.465  17.203  0.00  0.00    +0.000 A 
ATOM      9  C   UNL     1       3.446   7.563  17.532  0.00  0.00    +0.000 A 
BRANCH   7  10
ATOM     10  C   UNL     1       5.106   4.130  17.664  0.00  0.00    +0.000 C 
BRANCH  10  11
ATOM     11  N   UNL     1       6.255   4.044  18.570  0.00  0.00    +0.000 NA
ATOM     12  H   UNL     1       6.452   3.057  18.741  0.00  0.00    +0.000 HD
BRANCH  11  13
ATOM     13  C   UNL     1       7.428   4.692  17.970  0.00  0.00    +0.000 C 
BRANCH  13  14
ATOM     14  C   UNL     1       7.758   5.984  18.713  0.00  0.00    +0.000 C 
BRANCH  14  15
ATOM     15  C   UNL     1       7.866   7.137  17.747  0.00  0.00    +0.000 C 
ATOM     16  O   UNL     1       7.671   7.070  16.543  0.00  0.00    +0.000 OA
BRANCH  15  17
ATOM     17  O   UNL     1       8.222   8.293  18.351  0.00  0.00    +0.000 OA
ATOM     18  H   UNL     1       9.161   8.520  18.230  0.00  0.00    +0.000 HD
ENDBRANCH  15  17
ENDBRANCH  14  15
ENDBRANCH  13  14
ENDBRANCH  11  13
ENDBRANCH  10  11
ENDBRANCH   7  10
ENDBRANCH   2   4
BRANCH   3  19
ATOM     19  O   UNL     1       0.664  10.026  20.430  0.00  0.00    +0.000 OA
BRANCH  19  20
ATOM     20  C   UNL     1      -0.424   9.715  21.294  0.00  0.00    +0.000 C 
BRANCH  20  21
ATOM     21  C   UNL     1      -1.071  11.010  21.701  0.00  0.00    +0.000 A 
ATOM     22  C   UNL     1      -1.164  11.372  23.045  0.00  0.00    +0.000 A 
ATOM     23  C   UNL     1      -1.878  12.516  23.417  0.00  0.00    +0.000 A 
ATOM     24  C   UNL     1      -2.478  13.370  22.466  0.00  0.00    +0.000 A 
ATOM     25  C   UNL     1      -2.266  13.045  21.119  0.00  0.00    +0.000 A 
ATOM     26  C   UNL     1      -1.643  11.849  20.743  0.00  0.00    +0.000 A 
BRANCH  24  27
ATOM     27  C   UNL     1      -3.289  14.541  22.902  0.00  0.00    +0.000 A 
ATOM     28  C   UNL     1      -2.694  15.827  22.795  0.00  0.00    +0.000 A 
ATOM     29  C   UNL     1      -3.314  16.993  23.246  0.00  0.00    +0.000 A 
ATOM     30  C   UNL     1      -4.587  16.926  23.782  0.00  0.00    +0.000 A 
ATOM     31  C   UNL     1      -5.219  15.692  23.873  0.00  0.00    +0.000 A 
ATOM     32  C   UNL     1      -4.588  14.482  23.470  0.00  0.00    +0.000 A 
BRANCH  32  33
ATOM     33  C   UNL     1      -5.425  13.244  23.741  0.00  0.00    +0.000 C 
ATOM     34  F   UNL     1      -4.946  12.322  24.607  0.00  0.00    +0.000 F 
ATOM     35  F   UNL     1      -6.656  13.573  24.248  0.00  0.00    +0.000 F 
ATOM     36  F   UNL     1      -5.695  12.561  22.587  0.00  0.00    +0.000 F 
ENDBRANCH  32  33
ENDBRANCH  24  27
ENDBRANCH  20  21
ENDBRANCH  19  20
ENDBRANCH   3  19
TORSDOF 12
ENDMDL
MODEL 5
REMARK VINA RESULT:      -7.3      7.766      9.417
REMARK  Name = 
REMARK  13 active torsions:
REMARK  status: ('A' for Active; 'I' for Inactive)
REMARK    1  A    between atoms: C_1  and  C_2
REMARK    2  A    between atoms: C_2  and  C_22
REMARK    3  A    between atoms: N_3  and  O_4
REMARK    4  A    between atoms: O_4  and  C_5
REMARK    5  A    between atoms: C_5  and  C_6
REMARK    6  A    between atoms: C_9  and  C_10
REMARK    7  A    between atoms: C_15  and  C_16
REMARK    8  A    between atoms: C_25  and  C_26
REMARK    9  A    between atoms: C_26  and  N_27
REMARK   10  A    between atoms: N_27  and  C_28
REMARK   11  A    between atoms: C_28  and  C_29
REMARK   12  A    between atoms: C_29  and  C_30
REMARK   13  A    between atoms: C_30  and  O_32
REMARK                            x       y       z     vdW  Elec       q    Type
REMARK                         _______ _______ _______ _____ _____    ______ ____
ROOT
ATOM      1  C   UNL     1       1.592   8.874  17.572  0.00  0.00    +0.000 C 
ATOM      2  C   UNL     1       2.228   7.903  18.555  0.00  0.00    +0.000 C 
ATOM      3  N   UNL     1       2.081   7.973  19.846  0.00  0.00    +0.000 NA
ENDROOT
BRANCH   2   4
ATOM      4  C   UNL     1       3.064   6.802  17.982  0.00  0.00    +0.000 A 
ATOM      5  C   UNL     1       4.300   7.114  17.396  0.00  0.00    +0.000 A 
ATOM      6  C   UNL     1       5.092   6.104  16.854  0.00  0.00    +0.000 A 
ATOM      7  C   UNL     1       4.684   4.769  16.913  0.00  0.00    +0.000 A 
ATOM      8  C   UNL     1       3.449   4.453  17.502  0.00  0.00    +0.000 A 
ATOM      9  C   UNL     1       2.644   5.474  18.031  0.00  0.00    +0.000 A 
BRANCH   7  10
ATOM     10  C   UNL     1       5.559   3.677  16.348  0.00  0.00    +0.000 C 
BRANCH  10  11
ATOM     11  N   UNL     1       6.263   4.150  15.153  0.00  0.00    +0.000 NA
ATOM     12  H   UNL     1       7.116   3.599  15.048  0.00  0.00    +0.000 HD
BRANCH  11  13
ATOM     13  C   UNL     1       5.415   3.993  13.965  0.00  0.00    +0.000 C 
BRANCH  13  14
ATOM     14  C   UNL     1       6.256   3.557  12.768  0.00  0.00    +0.000 C 
BRANCH  14  15
ATOM     15  C   UNL     1       5.421   2.757  11.798  0.00  0.00    +0.000 C 
ATOM     16  O   UNL     1       5.702   1.645  11.377  0.00  0.00    +0.000 OA
BRANCH  15  17
ATOM     17  O   UNL     1       4.301   3.407  11.414  0.00  0.00    +0.000 OA
ATOM     18  H   UNL     1       4.464   4.323  11.128  0.00  0.00    +0.000 HD
ENDBRANCH  15  17
ENDBRANCH  14  15
ENDBRANCH  13  14
ENDBRANCH  11  13
ENDBRANCH  10  11
ENDBRANCH   7  10
ENDBRANCH   2   4
BRANCH   3  19
ATOM     19  O   UNL     1       1.303   9.077  20.211  0.00  0.00    +0.000 OA
BRANCH  19  20
ATOM     20  C   UNL     1       0.597   8.781  21.411  0.00  0.00    +0.000 C 
BRANCH  20  21
ATOM     21  C   UNL     1       0.004  10.065  21.924  0.00  0.00    +0.000 A 
ATOM     22  C   UNL     1      -0.918  10.059  22.970  0.00  0.00    +0.000 A 
ATOM     23  C   UNL     1      -1.555  11.244  23.352  0.00  0.00    +0.000 A 
ATOM     24  C   UNL     1      -1.259  12.485  22.747  0.00  0.00    +0.000 A 
ATOM     25  C   UNL     1      -0.243  12.478  21.781  0.00  0.00    +0.000 A 
ATOM     26  C   UNL     1       0.324  11.283  21.322  0.00  0.00    +0.000 A 
BRANCH  24  27
ATOM     27  C   UNL     1      -2.007  13.715  23.131  0.00  0.00    +0.000 A 
ATOM     28  C   UNL     1      -1.485  14.492  24.199  0.00  0.00    +0.000 A 
ATOM     29  C   UNL     1      -2.133  15.618  24.711  0.00  0.00    +0.000 A 
ATOM     30  C   UNL     1      -3.316  16.044  24.136  0.00  0.00    +0.000 A 
ATOM     31  C   UNL     1      -3.843  15.332  23.064  0.00  0.00    +0.000 A 
ATOM     32  C   UNL     1      -3.230  14.152  22.560  0.00  0.00    +0.000 A 
BRANCH  32  33
ATOM     33  C   UNL     1      -4.022  13.487  21.448  0.00  0.00    +0.000 C 
ATOM     34  F   UNL     1      -5.082  14.148  20.930  0.00  0.00    +0.000 F 
ATOM     35  F   UNL     1      -3.230  13.219  20.360  0.00  0.00    +0.000 F 
ATOM     36  F   UNL     1      -4.503  12.268  21.837  0.00  0.00    +0.000 F 
ENDBRANCH  32  33
ENDBRANCH  24  27
ENDBRANCH  20  21
ENDBRANCH  19  20
ENDBRANCH   3  19
TORSDOF 12
ENDMDL
MODEL 6
REMARK VINA RESULT:      -7.3      9.068     11.686
REMARK  Name = 
REMARK  13 active torsions:
REMARK  status: ('A' for Active; 'I' for Inactive)
REMARK    1  A    between atoms: C_1  and  C_2
REMARK    2  A    between atoms: C_2  and  C_22
REMARK    3  A    between atoms: N_3  and  O_4
REMARK    4  A    between atoms: O_4  and  C_5
REMARK    5  A    between atoms: C_5  and  C_6
REMARK    6  A    between atoms: C_9  and  C_10
REMARK    7  A    between atoms: C_15  and  C_16
REMARK    8  A    between atoms: C_25  and  C_26
REMARK    9  A    between atoms: C_26  and  N_27
REMARK   10  A    between atoms: N_27  and  C_28
REMARK   11  A    between atoms: C_28  and  C_29
REMARK   12  A    between atoms: C_29  and  C_30
REMARK   13  A    between atoms: C_30  and  O_32
REMARK                            x       y       z     vdW  Elec       q    Type
REMARK                         _______ _______ _______ _____ _____    ______ ____
ROOT
ATOM      1  C   UNL     1      -0.245  13.139  20.150  0.00  0.00    +0.000 C 
ATOM      2  C   UNL     1      -1.302  12.120  19.755  0.00  0.00    +0.000 C 
ATOM      3  N   UNL     1      -1.033  10.930  19.303  0.00  0.00    +0.000 NA
ENDROOT
BRANCH   2   4
ATOM      4  C   UNL     1      -2.734  12.527  19.907  0.00  0.00    +0.000 A 
ATOM      5  C   UNL     1      -3.702  11.950  19.072  0.00  0.00    +0.000 A 
ATOM      6  C   UNL     1      -5.041  12.317  19.196  0.00  0.00    +0.000 A 
ATOM      7  C   UNL     1      -5.440  13.239  20.168  0.00  0.00    +0.000 A 
ATOM      8  C   UNL     1      -4.474  13.815  21.008  0.00  0.00    +0.000 A 
ATOM      9  C   UNL     1      -3.124  13.457  20.869  0.00  0.00    +0.000 A 
BRANCH   7  10
ATOM     10  C   UNL     1      -6.896  13.612  20.315  0.00  0.00    +0.000 C 
BRANCH  10  11
ATOM     11  N   UNL     1      -7.102  14.399  21.533  0.00  0.00    +0.000 NA
ATOM     12  H   UNL     1      -7.582  15.263  21.275  0.00  0.00    +0.000 HD
BRANCH  11  13
ATOM     13  C   UNL     1      -7.913  13.646  22.497  0.00  0.00    +0.000 C 
BRANCH  13  14
ATOM     14  C   UNL     1      -7.414  13.895  23.918  0.00  0.00    +0.000 C 
BRANCH  14  15
ATOM     15  C   UNL     1      -6.100  13.193  24.150  0.00  0.00    +0.000 C 
ATOM     16  O   UNL     1      -5.931  11.983  24.119  0.00  0.00    +0.000 OA
BRANCH  15  17
ATOM     17  O   UNL     1      -5.089  14.050  24.415  0.00  0.00    +0.000 OA
ATOM     18  H   UNL     1      -5.315  14.981  24.243  0.00  0.00    +0.000 HD
ENDBRANCH  15  17
ENDBRANCH  14  15
ENDBRANCH  13  14
ENDBRANCH  11  13
ENDBRANCH  10  11
ENDBRANCH   7  10
ENDBRANCH   2   4
BRANCH   3  19
ATOM     19  O   UNL     1       0.348  10.728  19.190  0.00  0.00    +0.000 OA
BRANCH  19  20
ATOM     20  C   UNL     1       0.764   9.762  20.150  0.00  0.00    +0.000 C 
BRANCH  20  21
ATOM     21  C   UNL     1       1.538   8.697  19.422  0.00  0.00    +0.000 A 
ATOM     22  C   UNL     1       2.008   7.569  20.094  0.00  0.00    +0.000 A 
ATOM     23  C   UNL     1       2.832   6.651  19.436  0.00  0.00    +0.000 A 
ATOM     24  C   UNL     1       3.174   6.791  18.074  0.00  0.00    +0.000 A 
ATOM     25  C   UNL     1       2.591   7.869  17.395  0.00  0.00    +0.000 A 
ATOM     26  C   UNL     1       1.851   8.847  18.070  0.00  0.00    +0.000 A 
BRANCH  24  27
ATOM     27  C   UNL     1       4.111   5.832  17.423  0.00  0.00    +0.000 A 
ATOM     28  C   UNL     1       5.323   6.354  16.897  0.00  0.00    +0.000 A 
ATOM     29  C   UNL     1       6.244   5.579  16.191  0.00  0.00    +0.000 A 
ATOM     30  C   UNL     1       6.011   4.226  16.025  0.00  0.00    +0.000 A 
ATOM     31  C   UNL     1       4.854   3.667  16.555  0.00  0.00    +0.000 A 
ATOM     32  C   UNL     1       3.875   4.446  17.232  0.00  0.00    +0.000 A 
BRANCH  32  33
ATOM     33  C   UNL     1       2.651   3.649  17.649  0.00  0.00    +0.000 C 
ATOM     34  F   UNL     1       2.522   2.384  17.189  0.00  0.00    +0.000 F 
ATOM     35  F   UNL     1       2.579   3.520  19.013  0.00  0.00    +0.000 F 
ATOM     36  F   UNL     1       1.495   4.289  17.298  0.00  0.00    +0.000 F 
ENDBRANCH  32  33
ENDBRANCH  24  27
ENDBRANCH  20  21
ENDBRANCH  19  20
ENDBRANCH   3  19
TORSDOF 12
ENDMDL
MODEL 7
REMARK VINA RESULT:      -7.3      3.842      9.132
REMARK  Name = 
REMARK  13 active torsions:
REMARK  status: ('A' for Active; 'I' for Inactive)
REMARK    1  A    between atoms: C_1  and  C_2
REMARK    2  A    between atoms: C_2  and  C_22
REMARK    3  A    between atoms: N_3  and  O_4
REMARK    4  A    between atoms: O_4  and  C_5
REMARK    5  A    between atoms: C_5  and  C_6
REMARK    6  A    between atoms: C_9  and  C_10
REMARK    7  A    between atoms: C_15  and  C_16
REMARK    8  A    between atoms: C_25  and  C_26
REMARK    9  A    between atoms: C_26  and  N_27
REMARK   10  A    between atoms: N_27  and  C_28
REMARK   11  A    between atoms: C_28  and  C_29
REMARK   12  A    between atoms: C_29  and  C_30
REMARK   13  A    between atoms: C_30  and  O_32
REMARK                            x       y       z     vdW  Elec       q    Type
REMARK                         _______ _______ _______ _____ _____    ______ ____
ROOT
ATOM      1  C   UNL     1       5.539   3.681  16.007  0.00  0.00    +0.000 C 
ATOM      2  C   UNL     1       5.538   4.315  17.389  0.00  0.00    +0.000 C 
ATOM      3  N   UNL     1       4.925   3.812  18.421  0.00  0.00    +0.000 NA
ENDROOT
BRANCH   2   4
ATOM      4  C   UNL     1       6.301   5.592  17.555  0.00  0.00    +0.000 A 
ATOM      5  C   UNL     1       5.867   6.742  16.878  0.00  0.00    +0.000 A 
ATOM      6  C   UNL     1       6.564   7.940  17.016  0.00  0.00    +0.000 A 
ATOM      7  C   UNL     1       7.683   8.022  17.850  0.00  0.00    +0.000 A 
ATOM      8  C   UNL     1       8.118   6.873  18.532  0.00  0.00    +0.000 A 
ATOM      9  C   UNL     1       7.424   5.663  18.377  0.00  0.00    +0.000 A 
BRANCH   7  10
ATOM     10  C   UNL     1       8.418   9.330  18.016  0.00  0.00    +0.000 C 
BRANCH  10  11
ATOM     11  N   UNL     1       8.978   9.435  19.366  0.00  0.00    +0.000 NA
ATOM     12  H   UNL     1       9.545   8.604  19.540  0.00  0.00    +0.000 HD
BRANCH  11  13
ATOM     13  C   UNL     1       9.808  10.640  19.483  0.00  0.00    +0.000 C 
BRANCH  13  14
ATOM     14  C   UNL     1       9.937  11.328  18.127  0.00  0.00    +0.000 C 
BRANCH  14  15
ATOM     15  C   UNL     1       9.385  12.731  18.191  0.00  0.00    +0.000 C 
ATOM     16  O   UNL     1       8.728  13.190  19.113  0.00  0.00    +0.000 OA
BRANCH  15  17
ATOM     17  O   UNL     1       9.682  13.460  17.092  0.00  0.00    +0.000 OA
ATOM     18  H   UNL     1       8.927  13.969  16.749  0.00  0.00    +0.000 HD
ENDBRANCH  15  17
ENDBRANCH  14  15
ENDBRANCH  13  14
ENDBRANCH  11  13
ENDBRANCH  10  11
ENDBRANCH   7  10
ENDBRANCH   2   4
BRANCH   3  19
ATOM     19  O   UNL     1       4.236   2.642  18.083  0.00  0.00    +0.000 OA
BRANCH  19  20
ATOM     20  C   UNL     1       2.980   2.624  18.754  0.00  0.00    +0.000 C 
BRANCH  20  21
ATOM     21  C   UNL     1       2.655   4.036  19.157  0.00  0.00    +0.000 A 
ATOM     22  C   UNL     1       2.642   4.411  20.500  0.00  0.00    +0.000 A 
ATOM     23  C   UNL     1       2.216   5.691  20.869  0.00  0.00    +0.000 A 
ATOM     24  C   UNL     1       1.840   6.661  19.914  0.00  0.00    +0.000 A 
ATOM     25  C   UNL     1       1.977   6.294  18.569  0.00  0.00    +0.000 A 
ATOM     26  C   UNL     1       2.303   4.984  18.196  0.00  0.00    +0.000 A 
BRANCH  24  27
ATOM     27  C   UNL     1       1.325   7.992  20.346  0.00  0.00    +0.000 A 
ATOM     28  C   UNL     1       0.686   8.067  21.612  0.00  0.00    +0.000 A 
ATOM     29  C   UNL     1       0.087   9.232  22.095  0.00  0.00    +0.000 A 
ATOM     30  C   UNL     1       0.148  10.392  21.345  0.00  0.00    +0.000 A 
ATOM     31  C   UNL     1       0.795  10.370  20.115  0.00  0.00    +0.000 A 
ATOM     32  C   UNL     1       1.366   9.183  19.577  0.00  0.00    +0.000 A 
BRANCH  32  33
ATOM     33  C   UNL     1       1.941   9.367  18.183  0.00  0.00    +0.000 C 
ATOM     34  F   UNL     1       3.124   8.778  17.894  0.00  0.00    +0.000 F 
ATOM     35  F   UNL     1       1.086   8.891  17.222  0.00  0.00    +0.000 F 
ATOM     36  F   UNL     1       2.105  10.690  17.881  0.00  0.00    +0.000 F 
ENDBRANCH  32  33
ENDBRANCH  24  27
ENDBRANCH  20  21
ENDBRANCH  19  20
ENDBRANCH   3  19
TORSDOF 12
ENDMDL
MODEL 8
REMARK VINA RESULT:      -7.2      6.978      8.528
REMARK  Name = 
REMARK  13 active torsions:
REMARK  status: ('A' for Active; 'I' for Inactive)
REMARK    1  A    between atoms: C_1  and  C_2
REMARK    2  A    between atoms: C_2  and  C_22
REMARK    3  A    between atoms: N_3  and  O_4
REMARK    4  A    between atoms: O_4  and  C_5
REMARK    5  A    between atoms: C_5  and  C_6
REMARK    6  A    between atoms: C_9  and  C_10
REMARK    7  A    between atoms: C_15  and  C_16
REMARK    8  A    between atoms: C_25  and  C_26
REMARK    9  A    between atoms: C_26  and  N_27
REMARK   10  A    between atoms: N_27  and  C_28
REMARK   11  A    between atoms: C_28  and  C_29
REMARK   12  A    between atoms: C_29  and  C_30
REMARK   13  A    between atoms: C_30  and  O_32
REMARK                            x       y       z     vdW  Elec       q    Type
REMARK                         _______ _______ _______ _____ _____    ______ ____
ROOT
ATOM      1  C   UNL     1      -0.609   8.857  22.330  0.00  0.00    +0.000 C 
ATOM      2  C   UNL     1       0.411   9.631  21.509  0.00  0.00    +0.000 C 
ATOM      3  N   UNL     1       0.675  10.894  21.678  0.00  0.00    +0.000 NA
ENDROOT
BRANCH   2   4
ATOM      4  C   UNL     1       1.150   8.875  20.449  0.00  0.00    +0.000 A 
ATOM      5  C   UNL     1       1.253   9.424  19.162  0.00  0.00    +0.000 A 
ATOM      6  C   UNL     1       1.934   8.735  18.161  0.00  0.00    +0.000 A 
ATOM      7  C   UNL     1       2.547   7.508  18.430  0.00  0.00    +0.000 A 
ATOM      8  C   UNL     1       2.449   6.958  19.719  0.00  0.00    +0.000 A 
ATOM      9  C   UNL     1       1.747   7.645  20.721  0.00  0.00    +0.000 A 
BRANCH   7  10
ATOM     10  C   UNL     1       3.307   6.779  17.348  0.00  0.00    +0.000 C 
BRANCH  10  11
ATOM     11  N   UNL     1       4.732   6.708  17.682  0.00  0.00    +0.000 NA
ATOM     12  H   UNL     1       4.828   6.830  18.690  0.00  0.00    +0.000 HD
BRANCH  11  13
ATOM     13  C   UNL     1       5.287   5.411  17.278  0.00  0.00    +0.000 C 
BRANCH  13  14
ATOM     14  C   UNL     1       5.623   5.417  15.789  0.00  0.00    +0.000 C 
BRANCH  14  15
ATOM     15  C   UNL     1       7.074   5.068  15.572  0.00  0.00    +0.000 C 
ATOM     16  O   UNL     1       7.691   5.230  14.529  0.00  0.00    +0.000 OA
BRANCH  15  17
ATOM     17  O   UNL     1       7.652   4.529  16.669  0.00  0.00    +0.000 OA
ATOM     18  H   UNL     1       7.610   3.557  16.691  0.00  0.00    +0.000 HD
ENDBRANCH  15  17
ENDBRANCH  14  15
ENDBRANCH  13  14
ENDBRANCH  11  13
ENDBRANCH  10  11
ENDBRANCH   7  10
ENDBRANCH   2   4
BRANCH   3  19
ATOM     19  O   UNL     1      -0.127  11.452  22.680  0.00  0.00    +0.000 OA
BRANCH  19  20
ATOM     20  C   UNL     1      -1.252  12.089  22.083  0.00  0.00    +0.000 C 
BRANCH  20  21
ATOM     21  C   UNL     1      -0.737  13.155  21.156  0.00  0.00    +0.000 A 
ATOM     22  C   UNL     1      -0.106  14.294  21.655  0.00  0.00    +0.000 A 
ATOM     23  C   UNL     1       0.254  15.334  20.792  0.00  0.00    +0.000 A 
ATOM     24  C   UNL     1       0.051  15.257  19.397  0.00  0.00    +0.000 A 
ATOM     25  C   UNL     1      -0.476  14.052  18.913  0.00  0.00    +0.000 A 
ATOM     26  C   UNL     1      -0.934  13.051  19.778  0.00  0.00    +0.000 A 
BRANCH  24  27
ATOM     27  C   UNL     1       0.383  16.412  18.516  0.00  0.00    +0.000 A 
ATOM     28  C   UNL     1      -0.696  17.197  18.030  0.00  0.00    +0.000 A 
ATOM     29  C   UNL     1      -0.528  18.252  17.131  0.00  0.00    +0.000 A 
ATOM     30  C   UNL     1       0.745  18.598  16.718  0.00  0.00    +0.000 A 
ATOM     31  C   UNL     1       1.833  17.878  17.197  0.00  0.00    +0.000 A 
ATOM     32  C   UNL     1       1.683  16.765  18.072  0.00  0.00    +0.000 A 
BRANCH  32  33
ATOM     33  C   UNL     1       2.994  16.071  18.398  0.00  0.00    +0.000 C 
ATOM     34  F   UNL     1       3.450  16.124  19.670  0.00  0.00    +0.000 F 
ATOM     35  F   UNL     1       2.933  14.729  18.118  0.00  0.00    +0.000 F 
ATOM     36  F   UNL     1       4.015  16.542  17.620  0.00  0.00    +0.000 F 
ENDBRANCH  32  33
ENDBRANCH  24  27
ENDBRANCH  20  21
ENDBRANCH  19  20
ENDBRANCH   3  19
TORSDOF 12
ENDMDL
MODEL 9
REMARK VINA RESULT:      -7.2      6.362     11.478
REMARK  Name = 
REMARK  13 active torsions:
REMARK  status: ('A' for Active; 'I' for Inactive)
REMARK    1  A    between atoms: C_1  and  C_2
REMARK    2  A    between atoms: C_2  and  C_22
REMARK    3  A    between atoms: N_3  and  O_4
REMARK    4  A    between atoms: O_4  and  C_5
REMARK    5  A    between atoms: C_5  and  C_6
REMARK    6  A    between atoms: C_9  and  C_10
REMARK    7  A    between atoms: C_15  and  C_16
REMARK    8  A    between atoms: C_25  and  C_26
REMARK    9  A    between atoms: C_26  and  N_27
REMARK   10  A    between atoms: N_27  and  C_28
REMARK   11  A    between atoms: C_28  and  C_29
REMARK   12  A    between atoms: C_29  and  C_30
REMARK   13  A    between atoms: C_30  and  O_32
REMARK                            x       y       z     vdW  Elec       q    Type
REMARK                         _______ _______ _______ _____ _____    ______ ____
ROOT
ATOM      1  C   UNL     1      -0.677  11.453  18.451  0.00  0.00    +0.000 C 
ATOM      2  C   UNL     1       0.370  11.900  19.459  0.00  0.00    +0.000 C 
ATOM      3  N   UNL     1       0.705  11.216  20.514  0.00  0.00    +0.000 NA
ENDROOT
BRANCH   2   4
ATOM      4  C   UNL     1       1.052  13.208  19.202  0.00  0.00    +0.000 A 
ATOM      5  C   UNL     1       0.487  14.386  19.713  0.00  0.00    +0.000 A 
ATOM      6  C   UNL     1       1.104  15.614  19.482  0.00  0.00    +0.000 A 
ATOM      7  C   UNL     1       2.303  15.687  18.767  0.00  0.00    +0.000 A 
ATOM      8  C   UNL     1       2.872  14.508  18.257  0.00  0.00    +0.000 A 
ATOM      9  C   UNL     1       2.240  13.275  18.476  0.00  0.00    +0.000 A 
BRANCH   7  10
ATOM     10  C   UNL     1       2.980  17.017  18.544  0.00  0.00    +0.000 C 
BRANCH  10  11
ATOM     11  N   UNL     1       4.378  16.821  18.150  0.00  0.00    +0.000 NA
ATOM     12  H   UNL     1       4.571  17.429  17.353  0.00  0.00    +0.000 HD
BRANCH  11  13
ATOM     13  C   UNL     1       5.275  17.154  19.262  0.00  0.00    +0.000 C 
BRANCH  13  14
ATOM     14  C   UNL     1       6.731  16.980  18.840  0.00  0.00    +0.000 C 
BRANCH  14  15
ATOM     15  C   UNL     1       6.964  15.589  18.302  0.00  0.00    +0.000 C 
ATOM     16  O   UNL     1       6.397  14.579  18.689  0.00  0.00    +0.000 OA
BRANCH  15  17
ATOM     17  O   UNL     1       7.899  15.557  17.326  0.00  0.00    +0.000 OA
ATOM     18  H   UNL     1       7.965  14.693  16.883  0.00  0.00    +0.000 HD
ENDBRANCH  15  17
ENDBRANCH  14  15
ENDBRANCH  13  14
ENDBRANCH  11  13
ENDBRANCH  10  11
ENDBRANCH   7  10
ENDBRANCH   2   4
BRANCH   3  19
ATOM     19  O   UNL     1      -0.051  10.042  20.620  0.00  0.00    +0.000 OA
BRANCH  19  20
ATOM     20  C   UNL     1       0.688   9.069  21.351  0.00  0.00    +0.000 C 
BRANCH  20  21
ATOM     21  C   UNL     1       1.388   8.184  20.357  0.00  0.00    +0.000 A 
ATOM     22  C   UNL     1       1.845   6.918  20.724  0.00  0.00    +0.000 A 
ATOM     23  C   UNL     1       2.603   6.157  19.828  0.00  0.00    +0.000 A 
ATOM     24  C   UNL     1       2.889   6.602  18.519  0.00  0.00    +0.000 A 
ATOM     25  C   UNL     1       2.318   7.825  18.140  0.00  0.00    +0.000 A 
ATOM     26  C   UNL     1       1.646   8.637  19.062  0.00  0.00    +0.000 A 
BRANCH  24  27
ATOM     27  C   UNL     1       3.759   5.797  17.616  0.00  0.00    +0.000 A 
ATOM     28  C   UNL     1       4.846   6.462  16.989  0.00  0.00    +0.000 A 
ATOM     29  C   UNL     1       5.683   5.845  16.058  0.00  0.00    +0.000 A 
ATOM     30  C   UNL     1       5.494   4.510  15.751  0.00  0.00    +0.000 A 
ATOM     31  C   UNL     1       4.463   3.812  16.369  0.00  0.00    +0.000 A 
ATOM     32  C   UNL     1       3.564   4.432  17.281  0.00  0.00    +0.000 A 
BRANCH  32  33
ATOM     33  C   UNL     1       2.461   3.508  17.766  0.00  0.00    +0.000 C 
ATOM     34  F   UNL     1       2.464   3.132  19.065  0.00  0.00    +0.000 F 
ATOM     35  F   UNL     1       1.222   4.067  17.581  0.00  0.00    +0.000 F 
ATOM     36  F   UNL     1       2.430   2.346  17.046  0.00  0.00    +0.000 F 
ENDBRANCH  32  33
ENDBRANCH  24  27
ENDBRANCH  20  21
ENDBRANCH  19  20
ENDBRANCH   3  19
TORSDOF 12
ENDMDL
