MODEL 1
REMARK VINA RESULT:      -8.5      0.000      0.000
REMARK  Name = 
REMARK  11 active torsions:
REMARK  status: ('A' for Active; 'I' for Inactive)
REMARK    1  A    between atoms: C_1  and  C_2
REMARK    2  A    between atoms: C_5  and  C_6
REMARK    3  A    between atoms: C_6  and  C_7
REMARK    4  A    between atoms: C_7  and  C_8
REMARK    5  A    between atoms: C_8  and  C_9
REMARK    6  A    between atoms: C_8  and  N_10
REMARK    7  A    between atoms: N_10  and  C_11
REMARK    8  A    between atoms: C_11  and  C_12
REMARK    9  A    between atoms: C_12  and  O_13
REMARK   10  A    between atoms: C_12  and  C_14
REMARK   11  A    between atoms: C_17  and  O_18
REMARK                            x       y       z     vdW  Elec       q    Type
REMARK                         _______ _______ _______ _____ _____    ______ ____
ROOT
ATOM      1  C   UNL     1       3.465   3.409  17.384  0.00  0.00    +0.000 C 
ENDROOT
BRANCH   1   2
ATOM      2  C   UNL     1       4.752   3.916  16.723  0.00  0.00    +0.000 A 
ATOM      3  C   UNL     1       4.802   3.675  15.317  0.00  0.00    +0.000 A 
ATOM      4  C   UNL     1       5.820   4.155  14.493  0.00  0.00    +0.000 A 
ATOM      5  C   UNL     1       6.791   4.964  15.044  0.00  0.00    +0.000 A 
ATOM      6  C   UNL     1       6.766   5.249  16.411  0.00  0.00    +0.000 A 
ATOM      7  N   UNL     1       7.678   6.204  16.893  0.00  0.00    +0.000 N 
ATOM      8  C   UNL     1       7.701   6.650  18.182  0.00  0.00    +0.000 A 
ATOM      9  O   UNL     1       8.359   7.609  18.552  0.00  0.00    +0.000 OA
ATOM     10  C   UNL     1       6.912   5.843  19.138  0.00  0.00    +0.000 A 
ATOM     11  C   UNL     1       6.040   4.917  18.713  0.00  0.00    +0.000 A 
ATOM     12  C   UNL     1       5.803   4.675  17.283  0.00  0.00    +0.000 A 
ATOM     13  H   UNL     1       8.258   6.683  16.214  0.00  0.00    +0.000 HD
BRANCH   5  14
ATOM     14  O   UNL     1       7.775   5.515  14.270  0.00  0.00    +0.000 OA
ATOM     15  H   UNL     1       8.339   6.071  14.834  0.00  0.00    +0.000 HD
ENDBRANCH   5  14
ENDBRANCH   1   2
BRANCH   1  16
ATOM     16  O   UNL     1       2.479   3.219  16.343  0.00  0.00    +0.000 OA
ATOM     17  H   UNL     1       1.753   3.828  16.572  0.00  0.00    +0.000 HD
ENDBRANCH   1  16
BRANCH   1  18
ATOM     18  C   UNL     1       3.371   2.161  18.305  0.00  0.00    +0.000 C 
BRANCH  18  19
ATOM     19  N   UNL     1       3.065   2.574  19.680  0.00  0.00    +0.000 NA
ATOM     20  H   UNL     1       3.510   1.887  20.297  0.00  0.00    +0.000 HD
BRANCH  19  21
ATOM     21  C   UNL     1       1.648   2.659  20.070  0.00  0.00    +0.000 C 
ATOM     22  C   UNL     1       0.677   2.427  18.912  0.00  0.00    +0.000 C 
BRANCH  21  23
ATOM     23  C   UNL     1       1.534   4.081  20.669  0.00  0.00    +0.000 C 
BRANCH  23  24
ATOM     24  C   UNL     1       2.762   4.978  20.518  0.00  0.00    +0.000 C 
BRANCH  24  29
ATOM     25  C   UNL     1       1.400  10.178  18.238  0.00  0.00    +0.000 C 
ATOM     26  C   UNL     1       1.704   8.824  18.810  0.00  0.00    +0.000 A 
ATOM     27  C   UNL     1       1.307   8.487  20.107  0.00  0.00    +0.000 A 
ATOM     28  C   UNL     1       1.640   7.242  20.649  0.00  0.00    +0.000 A 
ATOM     29  C   UNL     1       2.388   6.314  19.911  0.00  0.00    +0.000 A 
ATOM     30  C   UNL     1       2.761   6.642  18.602  0.00  0.00    +0.000 A 
ATOM     31  C   UNL     1       2.428   7.889  18.060  0.00  0.00    +0.000 A 
ENDBRANCH  24  29
ENDBRANCH  23  24
ENDBRANCH  21  23
ENDBRANCH  19  21
ENDBRANCH  18  19
ENDBRANCH   1  18
TORSDOF 9
ENDMDL
MODEL 2
REMARK VINA RESULT:      -8.3      1.381      2.967
REMARK  Name = 
REMARK  11 active torsions:
REMARK  status: ('A' for Active; 'I' for Inactive)
REMARK    1  A    between atoms: C_1  and  C_2
REMARK    2  A    between atoms: C_5  and  C_6
REMARK    3  A    between atoms: C_6  and  C_7
REMARK    4  A    between atoms: C_7  and  C_8
REMARK    5  A    between atoms: C_8  and  C_9
REMARK    6  A    between atoms: C_8  and  N_10
REMARK    7  A    between atoms: N_10  and  C_11
REMARK    8  A    between atoms: C_11  and  C_12
REMARK    9  A    between atoms: C_12  and  O_13
REMARK   10  A    between atoms: C_12  and  C_14
REMARK   11  A    between atoms: C_17  and  O_18
REMARK                            x       y       z     vdW  Elec       q    Type
REMARK                         _______ _______ _______ _____ _____    ______ ____
ROOT
ATOM      1  C   UNL     1       4.221   2.385  18.126  0.00  0.00    +0.000 C 
ENDROOT
BRANCH   1   2
ATOM      2  C   UNL     1       5.057   3.661  17.968  0.00  0.00    +0.000 A 
ATOM      3  C   UNL     1       5.437   4.248  19.212  0.00  0.00    +0.000 A 
ATOM      4  C   UNL     1       6.297   5.342  19.312  0.00  0.00    +0.000 A 
ATOM      5  C   UNL     1       6.868   5.841  18.160  0.00  0.00    +0.000 A 
ATOM      6  C   UNL     1       6.546   5.279  16.924  0.00  0.00    +0.000 A 
ATOM      7  N   UNL     1       7.274   5.714  15.802  0.00  0.00    +0.000 N 
ATOM      8  C   UNL     1       7.133   5.185  14.553  0.00  0.00    +0.000 A 
ATOM      9  O   UNL     1       7.893   5.426  13.629  0.00  0.00    +0.000 OA
ATOM     10  C   UNL     1       5.940   4.330  14.366  0.00  0.00    +0.000 A 
ATOM     11  C   UNL     1       5.217   3.905  15.412  0.00  0.00    +0.000 A 
ATOM     12  C   UNL     1       5.585   4.241  16.795  0.00  0.00    +0.000 A 
ATOM     13  H   UNL     1       8.037   6.361  15.961  0.00  0.00    +0.000 HD
BRANCH   5  14
ATOM     14  O   UNL     1       7.768   6.870  18.207  0.00  0.00    +0.000 OA
ATOM     15  H   UNL     1       7.297   7.704  18.038  0.00  0.00    +0.000 HD
ENDBRANCH   5  14
ENDBRANCH   1   2
BRANCH   1  16
ATOM     16  O   UNL     1       4.622   1.743  19.359  0.00  0.00    +0.000 OA
ATOM     17  H   UNL     1       5.556   1.992  19.478  0.00  0.00    +0.000 HD
ENDBRANCH   1  16
BRANCH   1  18
ATOM     18  C   UNL     1       2.668   2.329  18.092  0.00  0.00    +0.000 C 
BRANCH  18  19
ATOM     19  N   UNL     1       2.116   3.018  19.265  0.00  0.00    +0.000 NA
ATOM     20  H   UNL     1       1.476   2.357  19.717  0.00  0.00    +0.000 HD
BRANCH  19  21
ATOM     21  C   UNL     1       1.365   4.264  19.037  0.00  0.00    +0.000 C 
ATOM     22  C   UNL     1       1.489   4.803  17.611  0.00  0.00    +0.000 C 
BRANCH  21  23
ATOM     23  C   UNL     1       1.957   5.227  20.092  0.00  0.00    +0.000 C 
BRANCH  23  24
ATOM     24  C   UNL     1       2.776   6.401  19.553  0.00  0.00    +0.000 C 
BRANCH  24  29
ATOM     25  C   UNL     1      -0.335  11.335  19.818  0.00  0.00    +0.000 C 
ATOM     26  C   UNL     1       0.507  10.094  19.757  0.00  0.00    +0.000 A 
ATOM     27  C   UNL     1       1.105   9.689  18.560  0.00  0.00    +0.000 A 
ATOM     28  C   UNL     1       1.845   8.504  18.502  0.00  0.00    +0.000 A 
ATOM     29  C   UNL     1       1.991   7.693  19.635  0.00  0.00    +0.000 A 
ATOM     30  C   UNL     1       1.415   8.114  20.841  0.00  0.00    +0.000 A 
ATOM     31  C   UNL     1       0.674   9.299  20.898  0.00  0.00    +0.000 A 
ENDBRANCH  24  29
ENDBRANCH  23  24
ENDBRANCH  21  23
ENDBRANCH  19  21
ENDBRANCH  18  19
ENDBRANCH   1  18
TORSDOF 9
ENDMDL
MODEL 3
REMARK VINA RESULT:      -8.2      3.168      6.069
REMARK  Name = 
REMARK  11 active torsions:
REMARK  status: ('A' for Active; 'I' for Inactive)
REMARK    1  A    between atoms: C_1  and  C_2
REMARK    2  A    between atoms: C_5  and  C_6
REMARK    3  A    between atoms: C_6  and  C_7
REMARK    4  A    between atoms: C_7  and  C_8
REMARK    5  A    between atoms: C_8  and  C_9
REMARK    6  A    between atoms: C_8  and  N_10
REMARK    7  A    between atoms: N_10  and  C_11
REMARK    8  A    between atoms: C_11  and  C_12
REMARK    9  A    between atoms: C_12  and  O_13
REMARK   10  A    between atoms: C_12  and  C_14
REMARK   11  A    between atoms: C_17  and  O_18
REMARK                            x       y       z     vdW  Elec       q    Type
REMARK                         _______ _______ _______ _____ _____    ______ ____
ROOT
ATOM      1  C   UNL     1       2.278   5.516  20.447  0.00  0.00    +0.000 C 
ENDROOT
BRANCH   1   2
ATOM      2  C   UNL     1       2.208   6.908  19.807  0.00  0.00    +0.000 A 
ATOM      3  C   UNL     1       2.765   6.957  18.494  0.00  0.00    +0.000 A 
ATOM      4  C   UNL     1       2.702   8.087  17.678  0.00  0.00    +0.000 A 
ATOM      5  C   UNL     1       2.007   9.190  18.127  0.00  0.00    +0.000 A 
ATOM      6  C   UNL     1       1.422   9.175  19.395  0.00  0.00    +0.000 A 
ATOM      7  N   UNL     1       0.591  10.255  19.740  0.00  0.00    +0.000 N 
ATOM      8  C   UNL     1      -0.120  10.325  20.903  0.00  0.00    +0.000 A 
ATOM      9  O   UNL     1      -0.981  11.162  21.117  0.00  0.00    +0.000 OA
ATOM     10  C   UNL     1       0.272   9.341  21.937  0.00  0.00    +0.000 A 
ATOM     11  C   UNL     1       1.070   8.305  21.644  0.00  0.00    +0.000 A 
ATOM     12  C   UNL     1       1.575   8.076  20.282  0.00  0.00    +0.000 A 
ATOM     13  H   UNL     1       0.407  10.951  19.029  0.00  0.00    +0.000 HD
BRANCH   5  14
ATOM     14  O   UNL     1       1.858  10.300  17.342  0.00  0.00    +0.000 OA
ATOM     15  H   UNL     1       1.185  10.114  16.666  0.00  0.00    +0.000 HD
ENDBRANCH   5  14
ENDBRANCH   1   2
BRANCH   1  16
ATOM     16  O   UNL     1       0.922   5.066  20.678  0.00  0.00    +0.000 OA
ATOM     17  H   UNL     1       1.016   4.229  21.168  0.00  0.00    +0.000 HD
ENDBRANCH   1  16
BRANCH   1  18
ATOM     18  C   UNL     1       3.043   4.301  19.851  0.00  0.00    +0.000 C 
BRANCH  18  19
ATOM     19  N   UNL     1       2.113   3.434  19.117  0.00  0.00    +0.000 NA
ATOM     20  H   UNL     1       1.755   2.752  19.792  0.00  0.00    +0.000 HD
BRANCH  19  21
ATOM     21  C   UNL     1       2.643   2.677  17.971  0.00  0.00    +0.000 C 
ATOM     22  C   UNL     1       3.589   1.542  18.369  0.00  0.00    +0.000 C 
BRANCH  21  23
ATOM     23  C   UNL     1       3.342   3.766  17.125  0.00  0.00    +0.000 C 
BRANCH  23  24
ATOM     24  C   UNL     1       4.801   3.501  16.752  0.00  0.00    +0.000 C 
BRANCH  24  29
ATOM     25  C   UNL     1       8.046   8.213  17.914  0.00  0.00    +0.000 C 
ATOM     26  C   UNL     1       7.242   6.992  17.576  0.00  0.00    +0.000 A 
ATOM     27  C   UNL     1       6.202   7.053  16.644  0.00  0.00    +0.000 A 
ATOM     28  C   UNL     1       5.425   5.922  16.373  0.00  0.00    +0.000 A 
ATOM     29  C   UNL     1       5.664   4.712  17.037  0.00  0.00    +0.000 A 
ATOM     30  C   UNL     1       6.724   4.644  17.950  0.00  0.00    +0.000 A 
ATOM     31  C   UNL     1       7.501   5.776  18.221  0.00  0.00    +0.000 A 
ENDBRANCH  24  29
ENDBRANCH  23  24
ENDBRANCH  21  23
ENDBRANCH  19  21
ENDBRANCH  18  19
ENDBRANCH   1  18
TORSDOF 9
ENDMDL
MODEL 4
REMARK VINA RESULT:      -8.2      1.251      2.809
REMARK  Name = 
REMARK  11 active torsions:
REMARK  status: ('A' for Active; 'I' for Inactive)
REMARK    1  A    between atoms: C_1  and  C_2
REMARK    2  A    between atoms: C_5  and  C_6
REMARK    3  A    between atoms: C_6  and  C_7
REMARK    4  A    between atoms: C_7  and  C_8
REMARK    5  A    between atoms: C_8  and  C_9
REMARK    6  A    between atoms: C_8  and  N_10
REMARK    7  A    between atoms: N_10  and  C_11
REMARK    8  A    between atoms: C_11  and  C_12
REMARK    9  A    between atoms: C_12  and  O_13
REMARK   10  A    between atoms: C_12  and  C_14
REMARK   11  A    between atoms: C_17  and  O_18
REMARK                            x       y       z     vdW  Elec       q    Type
REMARK                         _______ _______ _______ _____ _____    ______ ____
ROOT
ATOM      1  C   UNL     1       3.876   2.583  17.802  0.00  0.00    +0.000 C 
ENDROOT
BRANCH   1   2
ATOM      2  C   UNL     1       4.844   3.772  17.770  0.00  0.00    +0.000 A 
ATOM      3  C   UNL     1       5.218   4.234  19.067  0.00  0.00    +0.000 A 
ATOM      4  C   UNL     1       6.179   5.224  19.280  0.00  0.00    +0.000 A 
ATOM      5  C   UNL     1       6.855   5.734  18.192  0.00  0.00    +0.000 A 
ATOM      6  C   UNL     1       6.540   5.290  16.907  0.00  0.00    +0.000 A 
ATOM      7  N   UNL     1       7.365   5.719  15.851  0.00  0.00    +0.000 N 
ATOM      8  C   UNL     1       7.234   5.289  14.563  0.00  0.00    +0.000 A 
ATOM      9  O   UNL     1       8.059   5.509  13.692  0.00  0.00    +0.000 OA
ATOM     10  C   UNL     1       5.970   4.578  14.265  0.00  0.00    +0.000 A 
ATOM     11  C   UNL     1       5.156   4.164  15.246  0.00  0.00    +0.000 A 
ATOM     12  C   UNL     1       5.487   4.369  16.664  0.00  0.00    +0.000 A 
ATOM     13  H   UNL     1       8.180   6.270  16.088  0.00  0.00    +0.000 HD
BRANCH   5  14
ATOM     14  O   UNL     1       7.851   6.658  18.350  0.00  0.00    +0.000 OA
ATOM     15  H   UNL     1       7.708   7.380  17.715  0.00  0.00    +0.000 HD
ENDBRANCH   5  14
ENDBRANCH   1   2
BRANCH   1  16
ATOM     16  O   UNL     1       4.398   1.613  18.739  0.00  0.00    +0.000 OA
ATOM     17  H   UNL     1       4.733   0.885  18.185  0.00  0.00    +0.000 HD
ENDBRANCH   1  16
BRANCH   1  18
ATOM     18  C   UNL     1       2.351   2.685  18.086  0.00  0.00    +0.000 C 
BRANCH  18  19
ATOM     19  N   UNL     1       2.038   3.989  18.683  0.00  0.00    +0.000 NA
ATOM     20  H   UNL     1       2.727   4.652  18.313  0.00  0.00    +0.000 HD
BRANCH  19  21
ATOM     21  C   UNL     1       2.074   4.096  20.151  0.00  0.00    +0.000 C 
ATOM     22  C   UNL     1       1.089   3.164  20.859  0.00  0.00    +0.000 C 
BRANCH  21  23
ATOM     23  C   UNL     1       1.766   5.591  20.401  0.00  0.00    +0.000 C 
BRANCH  23  24
ATOM     24  C   UNL     1       2.577   6.595  19.582  0.00  0.00    +0.000 C 
BRANCH  24  29
ATOM     25  C   UNL     1       0.019  11.843  19.492  0.00  0.00    +0.000 C 
ATOM     26  C   UNL     1       0.631  10.473  19.503  0.00  0.00    +0.000 A 
ATOM     27  C   UNL     1       0.583   9.673  20.649  0.00  0.00    +0.000 A 
ATOM     28  C   UNL     1       1.202   8.420  20.667  0.00  0.00    +0.000 A 
ATOM     29  C   UNL     1       1.891   7.944  19.543  0.00  0.00    +0.000 A 
ATOM     30  C   UNL     1       1.916   8.734  18.386  0.00  0.00    +0.000 A 
ATOM     31  C   UNL     1       1.297   9.989  18.370  0.00  0.00    +0.000 A 
ENDBRANCH  24  29
ENDBRANCH  23  24
ENDBRANCH  21  23
ENDBRANCH  19  21
ENDBRANCH  18  19
ENDBRANCH   1  18
TORSDOF 9
ENDMDL
MODEL 5
REMARK VINA RESULT:      -8.1      0.579      1.084
REMARK  Name = 
REMARK  11 active torsions:
REMARK  status: ('A' for Active; 'I' for Inactive)
REMARK    1  A    between atoms: C_1  and  C_2
REMARK    2  A    between atoms: C_5  and  C_6
REMARK    3  A    between atoms: C_6  and  C_7
REMARK    4  A    between atoms: C_7  and  C_8
REMARK    5  A    between atoms: C_8  and  C_9
REMARK    6  A    between atoms: C_8  and  N_10
REMARK    7  A    between atoms: N_10  and  C_11
REMARK    8  A    between atoms: C_11  and  C_12
REMARK    9  A    between atoms: C_12  and  O_13
REMARK   10  A    between atoms: C_12  and  C_14
REMARK   11  A    between atoms: C_17  and  O_18
REMARK                            x       y       z     vdW  Elec       q    Type
REMARK                         _______ _______ _______ _____ _____    ______ ____
ROOT
ATOM      1  C   UNL     1       3.616   3.322  17.366  0.00  0.00    +0.000 C 
ENDROOT
BRANCH   1   2
ATOM      2  C   UNL     1       4.868   3.883  16.683  0.00  0.00    +0.000 A 
ATOM      3  C   UNL     1       4.894   3.660  15.274  0.00  0.00    +0.000 A 
ATOM      4  C   UNL     1       5.875   4.186  14.433  0.00  0.00    +0.000 A 
ATOM      5  C   UNL     1       6.830   5.022  14.972  0.00  0.00    +0.000 A 
ATOM      6  C   UNL     1       6.826   5.290  16.343  0.00  0.00    +0.000 A 
ATOM      7  N   UNL     1       7.715   6.271  16.816  0.00  0.00    +0.000 N 
ATOM      8  C   UNL     1       7.752   6.701  18.110  0.00  0.00    +0.000 A 
ATOM      9  O   UNL     1       8.384   7.678  18.477  0.00  0.00    +0.000 OA
ATOM     10  C   UNL     1       7.014   5.855  19.073  0.00  0.00    +0.000 A 
ATOM     11  C   UNL     1       6.165   4.904  18.657  0.00  0.00    +0.000 A 
ATOM     12  C   UNL     1       5.904   4.671  17.229  0.00  0.00    +0.000 A 
ATOM     13  H   UNL     1       8.262   6.777  16.131  0.00  0.00    +0.000 HD
BRANCH   5  14
ATOM     14  O   UNL     1       7.776   5.617  14.183  0.00  0.00    +0.000 OA
ATOM     15  H   UNL     1       8.236   6.294  14.707  0.00  0.00    +0.000 HD
ENDBRANCH   5  14
ENDBRANCH   1   2
BRANCH   1  16
ATOM     16  O   UNL     1       2.692   2.914  16.331  0.00  0.00    +0.000 OA
ATOM     17  H   UNL     1       2.352   2.049  16.626  0.00  0.00    +0.000 HD
ENDBRANCH   1  16
BRANCH   1  18
ATOM     18  C   UNL     1       3.614   2.183  18.424  0.00  0.00    +0.000 C 
BRANCH  18  19
ATOM     19  N   UNL     1       2.233   1.822  18.770  0.00  0.00    +0.000 NA
ATOM     20  H   UNL     1       1.662   2.029  17.945  0.00  0.00    +0.000 HD
BRANCH  19  21
ATOM     21  C   UNL     1       1.613   2.509  19.914  0.00  0.00    +0.000 C 
ATOM     22  C   UNL     1       0.273   3.168  19.582  0.00  0.00    +0.000 C 
BRANCH  21  23
ATOM     23  C   UNL     1       2.692   3.532  20.336  0.00  0.00    +0.000 C 
BRANCH  23  24
ATOM     24  C   UNL     1       2.206   4.733  21.148  0.00  0.00    +0.000 C 
BRANCH  24  29
ATOM     25  C   UNL     1       1.994   9.520  17.812  0.00  0.00    +0.000 C 
ATOM     26  C   UNL     1       2.095   8.303  18.685  0.00  0.00    +0.000 A 
ATOM     27  C   UNL     1       2.717   7.138  18.225  0.00  0.00    +0.000 A 
ATOM     28  C   UNL     1       2.760   5.994  19.026  0.00  0.00    +0.000 A 
ATOM     29  C   UNL     1       2.173   5.986  20.298  0.00  0.00    +0.000 A 
ATOM     30  C   UNL     1       1.575   7.162  20.770  0.00  0.00    +0.000 A 
ATOM     31  C   UNL     1       1.531   8.306  19.966  0.00  0.00    +0.000 A 
ENDBRANCH  24  29
ENDBRANCH  23  24
ENDBRANCH  21  23
ENDBRANCH  19  21
ENDBRANCH  18  19
ENDBRANCH   1  18
TORSDOF 9
ENDMDL
MODEL 6
REMARK VINA RESULT:      -8.1      3.155      5.860
REMARK  Name = 
REMARK  11 active torsions:
REMARK  status: ('A' for Active; 'I' for Inactive)
REMARK    1  A    between atoms: C_1  and  C_2
REMARK    2  A    between atoms: C_5  and  C_6
REMARK    3  A    between atoms: C_6  and  C_7
REMARK    4  A    between atoms: C_7  and  C_8
REMARK    5  A    between atoms: C_8  and  C_9
REMARK    6  A    between atoms: C_8  and  N_10
REMARK    7  A    between atoms: N_10  and  C_11
REMARK    8  A    between atoms: C_11  and  C_12
REMARK    9  A    between atoms: C_12  and  O_13
REMARK   10  A    between atoms: C_12  and  C_14
REMARK   11  A    between atoms: C_17  and  O_18
REMARK                            x       y       z     vdW  Elec       q    Type
REMARK                         _______ _______ _______ _____ _____    ______ ____
ROOT
ATOM      1  C   UNL     1       2.231   5.277  19.980  0.00  0.00    +0.000 C 
ENDROOT
BRANCH   1   2
ATOM      2  C   UNL     1       2.208   6.734  19.505  0.00  0.00    +0.000 A 
ATOM      3  C   UNL     1       2.802   6.922  18.221  0.00  0.00    +0.000 A 
ATOM      4  C   UNL     1       2.785   8.140  17.540  0.00  0.00    +0.000 A 
ATOM      5  C   UNL     1       2.100   9.200  18.097  0.00  0.00    +0.000 A 
ATOM      6  C   UNL     1       1.480   9.052  19.339  0.00  0.00    +0.000 A 
ATOM      7  N   UNL     1       0.662  10.104  19.786  0.00  0.00    +0.000 N 
ATOM      8  C   UNL     1      -0.079  10.056  20.931  0.00  0.00    +0.000 A 
ATOM      9  O   UNL     1      -0.929  10.883  21.218  0.00  0.00    +0.000 OA
ATOM     10  C   UNL     1       0.263   8.950  21.853  0.00  0.00    +0.000 A 
ATOM     11  C   UNL     1       1.048   7.936  21.462  0.00  0.00    +0.000 A 
ATOM     12  C   UNL     1       1.585   7.855  20.096  0.00  0.00    +0.000 A 
ATOM     13  H   UNL     1       0.512  10.882  19.156  0.00  0.00    +0.000 HD
BRANCH   5  14
ATOM     14  O   UNL     1       1.996  10.396  17.442  0.00  0.00    +0.000 OA
ATOM     15  H   UNL     1       1.278  10.911  17.847  0.00  0.00    +0.000 HD
ENDBRANCH   5  14
ENDBRANCH   1   2
BRANCH   1  16
ATOM     16  O   UNL     1       2.801   5.254  21.310  0.00  0.00    +0.000 OA
ATOM     17  H   UNL     1       3.754   5.104  21.171  0.00  0.00    +0.000 HD
ENDBRANCH   1  16
BRANCH   1  18
ATOM     18  C   UNL     1       0.996   4.335  20.021  0.00  0.00    +0.000 C 
BRANCH  18  19
ATOM     19  N   UNL     1       0.762   3.756  18.692  0.00  0.00    +0.000 NA
ATOM     20  H   UNL     1      -0.220   3.465  18.670  0.00  0.00    +0.000 HD
BRANCH  19  21
ATOM     21  C   UNL     1       1.572   2.591  18.300  0.00  0.00    +0.000 C 
ATOM     22  C   UNL     1       2.231   1.877  19.481  0.00  0.00    +0.000 C 
BRANCH  21  23
ATOM     23  C   UNL     1       2.603   3.196  17.319  0.00  0.00    +0.000 C 
BRANCH  23  24
ATOM     24  C   UNL     1       4.068   2.843  17.573  0.00  0.00    +0.000 C 
BRANCH  24  29
ATOM     25  C   UNL     1       7.513   7.556  17.485  0.00  0.00    +0.000 C 
ATOM     26  C   UNL     1       6.590   6.373  17.526  0.00  0.00    +0.000 A 
ATOM     27  C   UNL     1       6.441   5.619  18.694  0.00  0.00    +0.000 A 
ATOM     28  C   UNL     1       5.618   4.488  18.708  0.00  0.00    +0.000 A 
ATOM     29  C   UNL     1       4.938   4.082  17.552  0.00  0.00    +0.000 A 
ATOM     30  C   UNL     1       5.066   4.854  16.390  0.00  0.00    +0.000 A 
ATOM     31  C   UNL     1       5.890   5.984  16.377  0.00  0.00    +0.000 A 
ENDBRANCH  24  29
ENDBRANCH  23  24
ENDBRANCH  21  23
ENDBRANCH  19  21
ENDBRANCH  18  19
ENDBRANCH   1  18
TORSDOF 9
ENDMDL
MODEL 7
REMARK VINA RESULT:      -8.0      1.011      1.531
REMARK  Name = 
REMARK  11 active torsions:
REMARK  status: ('A' for Active; 'I' for Inactive)
REMARK    1  A    between atoms: C_1  and  C_2
REMARK    2  A    between atoms: C_5  and  C_6
REMARK    3  A    between atoms: C_6  and  C_7
REMARK    4  A    between atoms: C_7  and  C_8
REMARK    5  A    between atoms: C_8  and  C_9
REMARK    6  A    between atoms: C_8  and  N_10
REMARK    7  A    between atoms: N_10  and  C_11
REMARK    8  A    between atoms: C_11  and  C_12
REMARK    9  A    between atoms: C_12  and  O_13
REMARK   10  A    between atoms: C_12  and  C_14
REMARK   11  A    between atoms: C_17  and  O_18
REMARK                            x       y       z     vdW  Elec       q    Type
REMARK                         _______ _______ _______ _____ _____    ______ ____
ROOT
ATOM      1  C   UNL     1       3.626   3.170  17.039  0.00  0.00    +0.000 C 
ENDROOT
BRANCH   1   2
ATOM      2  C   UNL     1       4.913   3.758  16.450  0.00  0.00    +0.000 A 
ATOM      3  C   UNL     1       5.045   3.542  15.046  0.00  0.00    +0.000 A 
ATOM      4  C   UNL     1       6.074   4.091  14.279  0.00  0.00    +0.000 A 
ATOM      5  C   UNL     1       6.970   4.943  14.889  0.00  0.00    +0.000 A 
ATOM      6  C   UNL     1       6.862   5.205  16.256  0.00  0.00    +0.000 A 
ATOM      7  N   UNL     1       7.695   6.201  16.795  0.00  0.00    +0.000 N 
ATOM      8  C   UNL     1       7.629   6.627  18.090  0.00  0.00    +0.000 A 
ATOM      9  O   UNL     1       8.213   7.615  18.505  0.00  0.00    +0.000 OA
ATOM     10  C   UNL     1       6.840   5.762  18.995  0.00  0.00    +0.000 A 
ATOM     11  C   UNL     1       6.043   4.797  18.515  0.00  0.00    +0.000 A 
ATOM     12  C   UNL     1       5.891   4.565  17.071  0.00  0.00    +0.000 A 
ATOM     13  H   UNL     1       8.279   6.722  16.153  0.00  0.00    +0.000 HD
BRANCH   5  14
ATOM     14  O   UNL     1       7.958   5.560  14.172  0.00  0.00    +0.000 OA
ATOM     15  H   UNL     1       7.691   6.479  14.002  0.00  0.00    +0.000 HD
ENDBRANCH   5  14
ENDBRANCH   1   2
BRANCH   1  16
ATOM     16  O   UNL     1       3.999   2.090  17.927  0.00  0.00    +0.000 OA
ATOM     17  H   UNL     1       4.465   1.449  17.360  0.00  0.00    +0.000 HD
ENDBRANCH   1  16
BRANCH   1  18
ATOM     18  C   UNL     1       2.534   3.988  17.785  0.00  0.00    +0.000 C 
BRANCH  18  19
ATOM     19  N   UNL     1       2.043   3.230  18.943  0.00  0.00    +0.000 NA
ATOM     20  H   UNL     1       1.020   3.254  18.894  0.00  0.00    +0.000 HD
BRANCH  19  21
ATOM     21  C   UNL     1       2.427   3.704  20.283  0.00  0.00    +0.000 C 
ATOM     22  C   UNL     1       1.878   2.841  21.420  0.00  0.00    +0.000 C 
BRANCH  21  23
ATOM     23  C   UNL     1       1.880   5.150  20.314  0.00  0.00    +0.000 C 
BRANCH  23  24
ATOM     24  C   UNL     1       2.859   6.253  19.913  0.00  0.00    +0.000 C 
BRANCH  24  29
ATOM     25  C   UNL     1      -0.045  11.154  18.635  0.00  0.00    +0.000 C 
ATOM     26  C   UNL     1       0.744   9.922  18.968  0.00  0.00    +0.000 A 
ATOM     27  C   UNL     1       1.428   9.216  17.973  0.00  0.00    +0.000 A 
ATOM     28  C   UNL     1       2.118   8.041  18.285  0.00  0.00    +0.000 A 
ATOM     29  C   UNL     1       2.128   7.540  19.593  0.00  0.00    +0.000 A 
ATOM     30  C   UNL     1       1.466   8.262  20.594  0.00  0.00    +0.000 A 
ATOM     31  C   UNL     1       0.775   9.438  20.282  0.00  0.00    +0.000 A 
ENDBRANCH  24  29
ENDBRANCH  23  24
ENDBRANCH  21  23
ENDBRANCH  19  21
ENDBRANCH  18  19
ENDBRANCH   1  18
TORSDOF 9
ENDMDL
MODEL 8
REMARK VINA RESULT:      -7.9      0.796      1.083
REMARK  Name = 
REMARK  11 active torsions:
REMARK  status: ('A' for Active; 'I' for Inactive)
REMARK    1  A    between atoms: C_1  and  C_2
REMARK    2  A    between atoms: C_5  and  C_6
REMARK    3  A    between atoms: C_6  and  C_7
REMARK    4  A    between atoms: C_7  and  C_8
REMARK    5  A    between atoms: C_8  and  C_9
REMARK    6  A    between atoms: C_8  and  N_10
REMARK    7  A    between atoms: N_10  and  C_11
REMARK    8  A    between atoms: C_11  and  C_12
REMARK    9  A    between atoms: C_12  and  O_13
REMARK   10  A    between atoms: C_12  and  C_14
REMARK   11  A    between atoms: C_17  and  O_18
REMARK                            x       y       z     vdW  Elec       q    Type
REMARK                         _______ _______ _______ _____ _____    ______ ____
ROOT
ATOM      1  C   UNL     1       3.499   3.435  17.434  0.00  0.00    +0.000 C 
ENDROOT
BRANCH   1   2
ATOM      2  C   UNL     1       4.765   3.955  16.744  0.00  0.00    +0.000 A 
ATOM      3  C   UNL     1       4.779   3.727  15.335  0.00  0.00    +0.000 A 
ATOM      4  C   UNL     1       5.773   4.221  14.489  0.00  0.00    +0.000 A 
ATOM      5  C   UNL     1       6.754   5.030  15.022  0.00  0.00    +0.000 A 
ATOM      6  C   UNL     1       6.762   5.302  16.392  0.00  0.00    +0.000 A 
ATOM      7  N   UNL     1       7.682   6.258  16.858  0.00  0.00    +0.000 N 
ATOM      8  C   UNL     1       7.737   6.692  18.150  0.00  0.00    +0.000 A 
ATOM      9  O   UNL     1       8.399   7.651  18.512  0.00  0.00    +0.000 OA
ATOM     10  C   UNL     1       6.977   5.871  19.119  0.00  0.00    +0.000 A 
ATOM     11  C   UNL     1       6.099   4.944  18.709  0.00  0.00    +0.000 A 
ATOM     12  C   UNL     1       5.826   4.715  17.283  0.00  0.00    +0.000 A 
ATOM     13  H   UNL     1       8.241   6.746  16.169  0.00  0.00    +0.000 HD
BRANCH   5  14
ATOM     14  O   UNL     1       7.714   5.594  14.228  0.00  0.00    +0.000 OA
ATOM     15  H   UNL     1       7.759   5.096  13.394  0.00  0.00    +0.000 HD
ENDBRANCH   5  14
ENDBRANCH   1   2
BRANCH   1  16
ATOM     16  O   UNL     1       2.574   3.015  16.403  0.00  0.00    +0.000 OA
ATOM     17  H   UNL     1       1.734   3.454  16.627  0.00  0.00    +0.000 HD
ENDBRANCH   1  16
BRANCH   1  18
ATOM     18  C   UNL     1       3.471   2.324  18.521  0.00  0.00    +0.000 C 
BRANCH  18  19
ATOM     19  N   UNL     1       2.383   2.581  19.472  0.00  0.00    +0.000 NA
ATOM     20  H   UNL     1       1.595   2.941  18.925  0.00  0.00    +0.000 HD
BRANCH  19  21
ATOM     21  C   UNL     1       2.636   3.543  20.557  0.00  0.00    +0.000 C 
ATOM     22  C   UNL     1       2.091   3.096  21.914  0.00  0.00    +0.000 C 
BRANCH  21  23
ATOM     23  C   UNL     1       1.964   4.837  20.042  0.00  0.00    +0.000 C 
BRANCH  23  24
ATOM     24  C   UNL     1       2.904   5.966  19.620  0.00  0.00    +0.000 C 
BRANCH  24  29
ATOM     25  C   UNL     1       0.214  11.148  19.653  0.00  0.00    +0.000 C 
ATOM     26  C   UNL     1       0.862   9.794  19.631  0.00  0.00    +0.000 A 
ATOM     27  C   UNL     1       0.812   8.956  20.749  0.00  0.00    +0.000 A 
ATOM     28  C   UNL     1       1.462   7.718  20.737  0.00  0.00    +0.000 A 
ATOM     29  C   UNL     1       2.185   7.298  19.612  0.00  0.00    +0.000 A 
ATOM     30  C   UNL     1       2.211   8.127  18.483  0.00  0.00    +0.000 A 
ATOM     31  C   UNL     1       1.561   9.365  18.496  0.00  0.00    +0.000 A 
ENDBRANCH  24  29
ENDBRANCH  23  24
ENDBRANCH  21  23
ENDBRANCH  19  21
ENDBRANCH  18  19
ENDBRANCH   1  18
TORSDOF 9
ENDMDL
MODEL 9
REMARK VINA RESULT:      -7.9      1.174      2.805
REMARK  Name = 
REMARK  11 active torsions:
REMARK  status: ('A' for Active; 'I' for Inactive)
REMARK    1  A    between atoms: C_1  and  C_2
REMARK    2  A    between atoms: C_5  and  C_6
REMARK    3  A    between atoms: C_6  and  C_7
REMARK    4  A    between atoms: C_7  and  C_8
REMARK    5  A    between atoms: C_8  and  C_9
REMARK    6  A    between atoms: C_8  and  N_10
REMARK    7  A    between atoms: N_10  and  C_11
REMARK    8  A    between atoms: C_11  and  C_12
REMARK    9  A    between atoms: C_12  and  O_13
REMARK   10  A    between atoms: C_12  and  C_14
REMARK   11  A    between atoms: C_17  and  O_18
REMARK                            x       y       z     vdW  Elec       q    Type
REMARK                         _______ _______ _______ _____ _____    ______ ____
ROOT
ATOM      1  C   UNL     1       4.891   2.743  18.267  0.00  0.00    +0.000 C 
ENDROOT
BRANCH   1   2
ATOM      2  C   UNL     1       5.542   4.051  17.803  0.00  0.00    +0.000 A 
ATOM      3  C   UNL     1       5.907   4.916  18.878  0.00  0.00    +0.000 A 
ATOM      4  C   UNL     1       6.620   6.102  18.699  0.00  0.00    +0.000 A 
ATOM      5  C   UNL     1       7.059   6.425  17.433  0.00  0.00    +0.000 A 
ATOM      6  C   UNL     1       6.748   5.593  16.355  0.00  0.00    +0.000 A 
ATOM      7  N   UNL     1       7.353   5.878  15.118  0.00  0.00    +0.000 N 
ATOM      8  C   UNL     1       7.217   5.097  14.008  0.00  0.00    +0.000 A 
ATOM      9  O   UNL     1       7.888   5.237  12.999  0.00  0.00    +0.000 OA
ATOM     10  C   UNL     1       6.138   4.087  14.082  0.00  0.00    +0.000 A 
ATOM     11  C   UNL     1       5.533   3.797  15.243  0.00  0.00    +0.000 A 
ATOM     12  C   UNL     1       5.927   4.443  16.503  0.00  0.00    +0.000 A 
ATOM     13  H   UNL     1       8.031   6.629  15.090  0.00  0.00    +0.000 HD
BRANCH   5  14
ATOM     14  O   UNL     1       7.817   7.542  17.211  0.00  0.00    +0.000 OA
ATOM     15  H   UNL     1       8.712   7.383  17.556  0.00  0.00    +0.000 HD
ENDBRANCH   5  14
ENDBRANCH   1   2
BRANCH   1  16
ATOM     16  O   UNL     1       5.182   2.579  19.674  0.00  0.00    +0.000 OA
ATOM     17  H   UNL     1       5.133   3.478  20.047  0.00  0.00    +0.000 HD
ENDBRANCH   1  16
BRANCH   1  18
ATOM     18  C   UNL     1       3.389   2.385  18.089  0.00  0.00    +0.000 C 
BRANCH  18  19
ATOM     19  N   UNL     1       2.552   3.389  18.758  0.00  0.00    +0.000 NA
ATOM     20  H   UNL     1       3.185   3.976  19.310  0.00  0.00    +0.000 HD
BRANCH  19  21
ATOM     21  C   UNL     1       1.499   2.906  19.667  0.00  0.00    +0.000 C 
ATOM     22  C   UNL     1       0.324   2.242  18.949  0.00  0.00    +0.000 C 
BRANCH  21  23
ATOM     23  C   UNL     1       1.085   4.184  20.433  0.00  0.00    +0.000 C 
BRANCH  23  24
ATOM     24  C   UNL     1       2.216   5.136  20.823  0.00  0.00    +0.000 C 
BRANCH  24  29
ATOM     25  C   UNL     1       1.560  10.243  18.069  0.00  0.00    +0.000 C 
ATOM     26  C   UNL     1       1.775   8.945  18.790  0.00  0.00    +0.000 A 
ATOM     27  C   UNL     1       2.410   7.869  18.161  0.00  0.00    +0.000 A 
ATOM     28  C   UNL     1       2.560   6.648  18.824  0.00  0.00    +0.000 A 
ATOM     29  C   UNL     1       2.068   6.471  20.124  0.00  0.00    +0.000 A 
ATOM     30  C   UNL     1       1.457   7.557  20.764  0.00  0.00    +0.000 A 
ATOM     31  C   UNL     1       1.306   8.779  20.100  0.00  0.00    +0.000 A 
ENDBRANCH  24  29
ENDBRANCH  23  24
ENDBRANCH  21  23
ENDBRANCH  19  21
ENDBRANCH  18  19
ENDBRANCH   1  18
TORSDOF 9
ENDMDL
