MODEL 1
REMARK VINA RESULT:      -7.5      0.000      0.000
REMARK  Name = 
REMARK  7 active torsions:
REMARK  status: ('A' for Active; 'I' for Inactive)
REMARK    1  A    between atoms: C_1  and  O_2
REMARK    2  A    between atoms: O_2  and  C_3
REMARK    3  A    between atoms: C_3  and  C_5
REMARK    4  A    between atoms: C_6  and  C_7
REMARK    5  A    between atoms: C_10  and  O_11
REMARK    6  A    between atoms: O_11  and  C_12
REMARK    7  A    between atoms: C_12  and  C_14
REMARK                            x       y       z     vdW  Elec       q    Type
REMARK                         _______ _______ _______ _____ _____    ______ ____
ROOT
ATOM      1  C   UNL     1       5.612   5.201  15.630  0.00  0.00    +0.000 A 
ATOM      2  C   UNL     1       5.075   6.453  15.977  0.00  0.00    +0.000 A 
ATOM      3  C   UNL     1       4.601   6.694  17.271  0.00  0.00    +0.000 A 
ATOM      4  C   UNL     1       4.641   5.680  18.227  0.00  0.00    +0.000 A 
ATOM      5  C   UNL     1       5.182   4.439  17.903  0.00  0.00    +0.000 A 
ATOM      6  C   UNL     1       5.648   4.197  16.606  0.00  0.00    +0.000 A 
ENDROOT
BRANCH   1   8
ATOM      7  C   UNL     1       5.804   3.744  13.631  0.00  0.00    +0.000 C 
ATOM      8  C   UNL     1       6.072   4.893  14.268  0.00  0.00    +0.000 C 
BRANCH   7   9
ATOM      9  C   UNL     1       6.324   3.497  12.270  0.00  0.00    +0.000 C 
ATOM     10  O   UNL     1       7.319   4.011  11.787  0.00  0.00    +0.000 OA
BRANCH   9  12
ATOM     11  C   UNL     1       4.222   3.110  11.329  0.00  0.00    +0.000 C 
ATOM     12  O   UNL     1       5.508   2.592  11.674  0.00  0.00    +0.000 OA
ENDBRANCH   9  12
ENDBRANCH   7   9
ENDBRANCH   1   8
BRANCH   4  13
ATOM     13  O   UNL     1       4.149   6.003  19.513  0.00  0.00    +0.000 OA
BRANCH  13  14
ATOM     14  C   UNL     1       2.786   6.149  19.726  0.00  0.00    +0.000 C 
ATOM     15  O   UNL     1       2.156   7.186  19.863  0.00  0.00    +0.000 OA
BRANCH  14  16
ATOM     16  C   UNL     1       2.151   4.819  19.886  0.00  0.00    +0.000 A 
ATOM     17  C   UNL     1       1.544   4.139  18.831  0.00  0.00    +0.000 A 
ATOM     18  C   UNL     1       0.993   2.897  19.102  0.00  0.00    +0.000 A 
ATOM     19  N   UNL     1       1.012   2.314  20.320  0.00  0.00    +0.000 NA
ATOM     20  C   UNL     1       1.595   3.001  21.325  0.00  0.00    +0.000 A 
ATOM     21  C   UNL     1       2.165   4.249  21.161  0.00  0.00    +0.000 A 
ENDBRANCH  14  16
ENDBRANCH  13  14
ENDBRANCH   4  13
TORSDOF 6
ENDMDL
MODEL 2
REMARK VINA RESULT:      -7.4      0.227      1.071
REMARK  Name = 
REMARK  7 active torsions:
REMARK  status: ('A' for Active; 'I' for Inactive)
REMARK    1  A    between atoms: C_1  and  O_2
REMARK    2  A    between atoms: O_2  and  C_3
REMARK    3  A    between atoms: C_3  and  C_5
REMARK    4  A    between atoms: C_6  and  C_7
REMARK    5  A    between atoms: C_10  and  O_11
REMARK    6  A    between atoms: O_11  and  C_12
REMARK    7  A    between atoms: C_12  and  C_14
REMARK                            x       y       z     vdW  Elec       q    Type
REMARK                         _______ _______ _______ _____ _____    ______ ____
ROOT
ATOM      1  C   UNL     1       5.658   4.895  15.704  0.00  0.00    +0.000 A 
ATOM      2  C   UNL     1       5.660   4.043  16.821  0.00  0.00    +0.000 A 
ATOM      3  C   UNL     1       5.146   4.473  18.050  0.00  0.00    +0.000 A 
ATOM      4  C   UNL     1       4.641   5.766  18.179  0.00  0.00    +0.000 A 
ATOM      5  C   UNL     1       4.619   6.618  17.078  0.00  0.00    +0.000 A 
ATOM      6  C   UNL     1       5.141   6.189  15.852  0.00  0.00    +0.000 A 
ENDROOT
BRANCH   1   8
ATOM      7  C   UNL     1       5.556   3.839  13.460  0.00  0.00    +0.000 C 
ATOM      8  C   UNL     1       6.235   4.499  14.411  0.00  0.00    +0.000 C 
BRANCH   7   9
ATOM      9  C   UNL     1       6.214   3.453  12.195  0.00  0.00    +0.000 C 
ATOM     10  O   UNL     1       7.284   3.878  11.793  0.00  0.00    +0.000 OA
BRANCH   9  12
ATOM     11  C   UNL     1       4.130   3.028  11.230  0.00  0.00    +0.000 C 
ATOM     12  O   UNL     1       5.424   2.536  11.582  0.00  0.00    +0.000 OA
ENDBRANCH   9  12
ENDBRANCH   7   9
ENDBRANCH   1   8
BRANCH   4  13
ATOM     13  O   UNL     1       4.134   6.123  19.450  0.00  0.00    +0.000 OA
BRANCH  13  14
ATOM     14  C   UNL     1       2.767   6.248  19.650  0.00  0.00    +0.000 C 
ATOM     15  O   UNL     1       2.107   7.274  19.698  0.00  0.00    +0.000 OA
BRANCH  14  16
ATOM     16  C   UNL     1       2.170   4.918  19.920  0.00  0.00    +0.000 A 
ATOM     17  C   UNL     1       1.483   4.186  18.953  0.00  0.00    +0.000 A 
ATOM     18  C   UNL     1       0.978   2.950  19.324  0.00  0.00    +0.000 A 
ATOM     19  N   UNL     1       1.114   2.420  20.559  0.00  0.00    +0.000 NA
ATOM     20  C   UNL     1       1.772   3.157  21.478  0.00  0.00    +0.000 A 
ATOM     21  C   UNL     1       2.306   4.404  21.212  0.00  0.00    +0.000 A 
ENDBRANCH  14  16
ENDBRANCH  13  14
ENDBRANCH   4  13
TORSDOF 6
ENDMDL
MODEL 3
REMARK VINA RESULT:      -7.4      0.182      1.480
REMARK  Name = 
REMARK  7 active torsions:
REMARK  status: ('A' for Active; 'I' for Inactive)
REMARK    1  A    between atoms: C_1  and  O_2
REMARK    2  A    between atoms: O_2  and  C_3
REMARK    3  A    between atoms: C_3  and  C_5
REMARK    4  A    between atoms: C_6  and  C_7
REMARK    5  A    between atoms: C_10  and  O_11
REMARK    6  A    between atoms: O_11  and  C_12
REMARK    7  A    between atoms: C_12  and  C_14
REMARK                            x       y       z     vdW  Elec       q    Type
REMARK                         _______ _______ _______ _____ _____    ______ ____
ROOT
ATOM      1  C   UNL     1       5.662   4.927  15.693  0.00  0.00    +0.000 A 
ATOM      2  C   UNL     1       5.703   4.062  16.800  0.00  0.00    +0.000 A 
ATOM      3  C   UNL     1       5.200   4.466  18.042  0.00  0.00    +0.000 A 
ATOM      4  C   UNL     1       4.667   5.745  18.194  0.00  0.00    +0.000 A 
ATOM      5  C   UNL     1       4.606   6.608  17.104  0.00  0.00    +0.000 A 
ATOM      6  C   UNL     1       5.118   6.206  15.865  0.00  0.00    +0.000 A 
ENDROOT
BRANCH   1   8
ATOM      7  C   UNL     1       5.588   3.802  13.482  0.00  0.00    +0.000 C 
ATOM      8  C   UNL     1       6.227   4.559  14.386  0.00  0.00    +0.000 C 
BRANCH   7   9
ATOM      9  C   UNL     1       6.232   3.454  12.200  0.00  0.00    +0.000 C 
ATOM     10  O   UNL     1       7.294   3.898  11.795  0.00  0.00    +0.000 OA
BRANCH   9  12
ATOM     11  C   UNL     1       4.149   3.044  11.228  0.00  0.00    +0.000 C 
ATOM     12  O   UNL     1       5.442   2.546  11.573  0.00  0.00    +0.000 OA
ENDBRANCH   9  12
ENDBRANCH   7   9
ENDBRANCH   1   8
BRANCH   4  13
ATOM     13  O   UNL     1       4.172   6.075  19.477  0.00  0.00    +0.000 OA
BRANCH  13  14
ATOM     14  C   UNL     1       2.808   6.214  19.689  0.00  0.00    +0.000 C 
ATOM     15  O   UNL     1       2.158   7.246  19.732  0.00  0.00    +0.000 OA
BRANCH  14  16
ATOM     16  C   UNL     1       2.203   4.893  19.981  0.00  0.00    +0.000 A 
ATOM     17  C   UNL     1       2.259   4.296  21.240  0.00  0.00    +0.000 A 
ATOM     18  C   UNL     1       1.647   3.062  21.392  0.00  0.00    +0.000 A 
ATOM     19  N   UNL     1       1.005   2.412  20.397  0.00  0.00    +0.000 NA
ATOM     20  C   UNL     1       0.979   3.007  19.186  0.00  0.00    +0.000 A 
ATOM     21  C   UNL     1       1.565   4.232  18.929  0.00  0.00    +0.000 A 
ENDBRANCH  14  16
ENDBRANCH  13  14
ENDBRANCH   4  13
TORSDOF 6
ENDMDL
MODEL 4
REMARK VINA RESULT:      -7.3      0.258      1.060
REMARK  Name = 
REMARK  7 active torsions:
REMARK  status: ('A' for Active; 'I' for Inactive)
REMARK    1  A    between atoms: C_1  and  O_2
REMARK    2  A    between atoms: O_2  and  C_3
REMARK    3  A    between atoms: C_3  and  C_5
REMARK    4  A    between atoms: C_6  and  C_7
REMARK    5  A    between atoms: C_10  and  O_11
REMARK    6  A    between atoms: O_11  and  C_12
REMARK    7  A    between atoms: C_12  and  C_14
REMARK                            x       y       z     vdW  Elec       q    Type
REMARK                         _______ _______ _______ _____ _____    ______ ____
ROOT
ATOM      1  C   UNL     1       5.707   4.974  15.650  0.00  0.00    +0.000 A 
ATOM      2  C   UNL     1       5.356   6.308  15.913  0.00  0.00    +0.000 A 
ATOM      3  C   UNL     1       4.807   6.674  17.147  0.00  0.00    +0.000 A 
ATOM      4  C   UNL     1       4.586   5.704  18.125  0.00  0.00    +0.000 A 
ATOM      5  C   UNL     1       4.941   4.381  17.885  0.00  0.00    +0.000 A 
ATOM      6  C   UNL     1       5.482   4.016  16.647  0.00  0.00    +0.000 A 
ENDROOT
BRANCH   1   8
ATOM      7  C   UNL     1       5.544   3.807  13.466  0.00  0.00    +0.000 C 
ATOM      8  C   UNL     1       6.237   4.542  14.348  0.00  0.00    +0.000 C 
BRANCH   7   9
ATOM      9  C   UNL     1       6.155   3.391  12.187  0.00  0.00    +0.000 C 
ATOM     10  O   UNL     1       7.242   3.752  11.769  0.00  0.00    +0.000 OA
BRANCH   9  12
ATOM     11  C   UNL     1       4.014   3.086  11.306  0.00  0.00    +0.000 C 
ATOM     12  O   UNL     1       5.300   2.529  11.582  0.00  0.00    +0.000 OA
ENDBRANCH   9  12
ENDBRANCH   7   9
ENDBRANCH   1   8
BRANCH   4  13
ATOM     13  O   UNL     1       4.035   6.154  19.348  0.00  0.00    +0.000 OA
BRANCH  13  14
ATOM     14  C   UNL     1       2.659   6.210  19.518  0.00  0.00    +0.000 C 
ATOM     15  O   UNL     1       1.936   7.191  19.452  0.00  0.00    +0.000 OA
BRANCH  14  16
ATOM     16  C   UNL     1       2.143   4.879  19.920  0.00  0.00    +0.000 A 
ATOM     17  C   UNL     1       2.293   4.366  21.207  0.00  0.00    +0.000 A 
ATOM     18  C   UNL     1       1.759   3.114  21.465  0.00  0.00    +0.000 A 
ATOM     19  N   UNL     1       1.106   2.370  20.545  0.00  0.00    +0.000 NA
ATOM     20  C   UNL     1       0.988   2.886  19.304  0.00  0.00    +0.000 A 
ATOM     21  C   UNL     1       1.493   4.121  18.943  0.00  0.00    +0.000 A 
ENDBRANCH  14  16
ENDBRANCH  13  14
ENDBRANCH   4  13
TORSDOF 6
ENDMDL
MODEL 5
REMARK VINA RESULT:      -7.2      3.647      8.442
REMARK  Name = 
REMARK  7 active torsions:
REMARK  status: ('A' for Active; 'I' for Inactive)
REMARK    1  A    between atoms: C_1  and  O_2
REMARK    2  A    between atoms: O_2  and  C_3
REMARK    3  A    between atoms: C_3  and  C_5
REMARK    4  A    between atoms: C_6  and  C_7
REMARK    5  A    between atoms: C_10  and  O_11
REMARK    6  A    between atoms: O_11  and  C_12
REMARK    7  A    between atoms: C_12  and  C_14
REMARK                            x       y       z     vdW  Elec       q    Type
REMARK                         _______ _______ _______ _____ _____    ______ ____
ROOT
ATOM      1  C   UNL     1       1.778   7.422  20.196  0.00  0.00    +0.000 A 
ATOM      2  C   UNL     1       2.266   7.727  18.913  0.00  0.00    +0.000 A 
ATOM      3  C   UNL     1       2.626   6.708  18.025  0.00  0.00    +0.000 A 
ATOM      4  C   UNL     1       2.519   5.374  18.415  0.00  0.00    +0.000 A 
ATOM      5  C   UNL     1       2.025   5.055  19.677  0.00  0.00    +0.000 A 
ATOM      6  C   UNL     1       1.673   6.076  20.567  0.00  0.00    +0.000 A 
ENDROOT
BRANCH   1   8
ATOM      7  C   UNL     1       0.234   8.580  21.756  0.00  0.00    +0.000 C 
ATOM      8  C   UNL     1       1.438   8.465  21.176  0.00  0.00    +0.000 C 
BRANCH   7   9
ATOM      9  C   UNL     1      -0.038   9.671  22.715  0.00  0.00    +0.000 C 
ATOM     10  O   UNL     1       0.336   9.706  23.875  0.00  0.00    +0.000 OA
BRANCH   9  12
ATOM     11  C   UNL     1      -1.181  11.699  22.901  0.00  0.00    +0.000 C 
ATOM     12  O   UNL     1      -0.757  10.621  22.065  0.00  0.00    +0.000 OA
ENDBRANCH   9  12
ENDBRANCH   7   9
ENDBRANCH   1   8
BRANCH   4  13
ATOM     13  O   UNL     1       2.896   4.403  17.459  0.00  0.00    +0.000 OA
BRANCH  13  14
ATOM     14  C   UNL     1       4.030   3.627  17.656  0.00  0.00    +0.000 C 
ATOM     15  O   UNL     1       4.120   2.574  18.267  0.00  0.00    +0.000 OA
BRANCH  14  16
ATOM     16  C   UNL     1       5.218   4.313  17.095  0.00  0.00    +0.000 A 
ATOM     17  C   UNL     1       6.225   4.855  17.892  0.00  0.00    +0.000 A 
ATOM     18  C   UNL     1       7.293   5.463  17.252  0.00  0.00    +0.000 A 
ATOM     19  N   UNL     1       7.409   5.560  15.909  0.00  0.00    +0.000 NA
ATOM     20  C   UNL     1       6.412   5.040  15.163  0.00  0.00    +0.000 A 
ATOM     21  C   UNL     1       5.302   4.420  15.705  0.00  0.00    +0.000 A 
ENDBRANCH  14  16
ENDBRANCH  13  14
ENDBRANCH   4  13
TORSDOF 6
ENDMDL
MODEL 6
REMARK VINA RESULT:      -7.1      3.569      8.388
REMARK  Name = 
REMARK  7 active torsions:
REMARK  status: ('A' for Active; 'I' for Inactive)
REMARK    1  A    between atoms: C_1  and  O_2
REMARK    2  A    between atoms: O_2  and  C_3
REMARK    3  A    between atoms: C_3  and  C_5
REMARK    4  A    between atoms: C_6  and  C_7
REMARK    5  A    between atoms: C_10  and  O_11
REMARK    6  A    between atoms: O_11  and  C_12
REMARK    7  A    between atoms: C_12  and  C_14
REMARK                            x       y       z     vdW  Elec       q    Type
REMARK                         _______ _______ _______ _____ _____    ______ ____
ROOT
ATOM      1  C   UNL     1       1.797   7.275  20.425  0.00  0.00    +0.000 A 
ATOM      2  C   UNL     1       1.732   5.883  20.606  0.00  0.00    +0.000 A 
ATOM      3  C   UNL     1       2.088   5.010  19.573  0.00  0.00    +0.000 A 
ATOM      4  C   UNL     1       2.496   5.519  18.341  0.00  0.00    +0.000 A 
ATOM      5  C   UNL     1       2.579   6.895  18.150  0.00  0.00    +0.000 A 
ATOM      6  C   UNL     1       2.214   7.767  19.182  0.00  0.00    +0.000 A 
ENDROOT
BRANCH   1   8
ATOM      7  C   UNL     1       0.231   8.913  21.437  0.00  0.00    +0.000 C 
ATOM      8  C   UNL     1       1.382   8.224  21.468  0.00  0.00    +0.000 C 
BRANCH   7   9
ATOM      9  C   UNL     1      -0.105   9.869  22.512  0.00  0.00    +0.000 C 
ATOM     10  O   UNL     1       0.269   9.794  23.670  0.00  0.00    +0.000 OA
BRANCH   9  12
ATOM     11  C   UNL     1      -0.173  11.741  21.119  0.00  0.00    +0.000 C 
ATOM     12  O   UNL     1      -0.881  10.842  21.972  0.00  0.00    +0.000 OA
ENDBRANCH   9  12
ENDBRANCH   7   9
ENDBRANCH   1   8
BRANCH   4  13
ATOM     13  O   UNL     1       2.845   4.573  17.350  0.00  0.00    +0.000 OA
BRANCH  13  14
ATOM     14  C   UNL     1       3.972   3.777  17.506  0.00  0.00    +0.000 C 
ATOM     15  O   UNL     1       4.063   2.718  18.105  0.00  0.00    +0.000 OA
BRANCH  14  16
ATOM     16  C   UNL     1       5.154   4.450  16.916  0.00  0.00    +0.000 A 
ATOM     17  C   UNL     1       6.049   5.206  17.671  0.00  0.00    +0.000 A 
ATOM     18  C   UNL     1       7.123   5.778  17.008  0.00  0.00    +0.000 A 
ATOM     19  N   UNL     1       7.347   5.645  15.682  0.00  0.00    +0.000 NA
ATOM     20  C   UNL     1       6.456   4.920  14.975  0.00  0.00    +0.000 A 
ATOM     21  C   UNL     1       5.349   4.316  15.539  0.00  0.00    +0.000 A 
ENDBRANCH  14  16
ENDBRANCH  13  14
ENDBRANCH   4  13
TORSDOF 6
ENDMDL
MODEL 7
REMARK VINA RESULT:      -7.0      4.192      6.126
REMARK  Name = 
REMARK  7 active torsions:
REMARK  status: ('A' for Active; 'I' for Inactive)
REMARK    1  A    between atoms: C_1  and  O_2
REMARK    2  A    between atoms: O_2  and  C_3
REMARK    3  A    between atoms: C_3  and  C_5
REMARK    4  A    between atoms: C_6  and  C_7
REMARK    5  A    between atoms: C_10  and  O_11
REMARK    6  A    between atoms: O_11  and  C_12
REMARK    7  A    between atoms: C_12  and  C_14
REMARK                            x       y       z     vdW  Elec       q    Type
REMARK                         _______ _______ _______ _____ _____    ______ ____
ROOT
ATOM      1  C   UNL     1       7.694   7.738  17.971  0.00  0.00    +0.000 A 
ATOM      2  C   UNL     1       8.216   6.802  18.881  0.00  0.00    +0.000 A 
ATOM      3  C   UNL     1       7.603   5.557  19.058  0.00  0.00    +0.000 A 
ATOM      4  C   UNL     1       6.450   5.241  18.341  0.00  0.00    +0.000 A 
ATOM      5  C   UNL     1       5.928   6.151  17.426  0.00  0.00    +0.000 A 
ATOM      6  C   UNL     1       6.538   7.399  17.256  0.00  0.00    +0.000 A 
ENDROOT
BRANCH   1   8
ATOM      7  C   UNL     1       9.050   9.680  18.711  0.00  0.00    +0.000 C 
ATOM      8  C   UNL     1       8.279   9.075  17.795  0.00  0.00    +0.000 C 
BRANCH   7   9
ATOM      9  C   UNL     1       9.582  11.037  18.472  0.00  0.00    +0.000 C 
ATOM     10  O   UNL     1      10.388  11.341  17.608  0.00  0.00    +0.000 OA
BRANCH   9  12
ATOM     11  C   UNL     1       8.898  13.224  18.918  0.00  0.00    +0.000 C 
ATOM     12  O   UNL     1       9.001  11.872  19.368  0.00  0.00    +0.000 OA
ENDBRANCH   9  12
ENDBRANCH   7   9
ENDBRANCH   1   8
BRANCH   4  13
ATOM     13  O   UNL     1       5.894   3.961  18.570  0.00  0.00    +0.000 OA
BRANCH  13  14
ATOM     14  C   UNL     1       4.589   3.685  18.188  0.00  0.00    +0.000 C 
ATOM     15  O   UNL     1       4.167   3.471  17.063  0.00  0.00    +0.000 OA
BRANCH  14  16
ATOM     16  C   UNL     1       3.685   3.788  19.359  0.00  0.00    +0.000 A 
ATOM     17  C   UNL     1       3.004   4.959  19.689  0.00  0.00    +0.000 A 
ATOM     18  C   UNL     1       2.179   4.929  20.802  0.00  0.00    +0.000 A 
ATOM     19  N   UNL     1       2.001   3.838  21.578  0.00  0.00    +0.000 NA
ATOM     20  C   UNL     1       2.683   2.723  21.243  0.00  0.00    +0.000 A 
ATOM     21  C   UNL     1       3.536   2.652  20.158  0.00  0.00    +0.000 A 
ENDBRANCH  14  16
ENDBRANCH  13  14
ENDBRANCH   4  13
TORSDOF 6
ENDMDL
MODEL 8
REMARK VINA RESULT:      -7.0      3.657      8.419
REMARK  Name = 
REMARK  7 active torsions:
REMARK  status: ('A' for Active; 'I' for Inactive)
REMARK    1  A    between atoms: C_1  and  O_2
REMARK    2  A    between atoms: O_2  and  C_3
REMARK    3  A    between atoms: C_3  and  C_5
REMARK    4  A    between atoms: C_6  and  C_7
REMARK    5  A    between atoms: C_10  and  O_11
REMARK    6  A    between atoms: O_11  and  C_12
REMARK    7  A    between atoms: C_12  and  C_14
REMARK                            x       y       z     vdW  Elec       q    Type
REMARK                         _______ _______ _______ _____ _____    ______ ____
ROOT
ATOM      1  C   UNL     1       1.678   7.152  20.420  0.00  0.00    +0.000 A 
ATOM      2  C   UNL     1       2.151   7.661  19.199  0.00  0.00    +0.000 A 
ATOM      3  C   UNL     1       2.572   6.800  18.179  0.00  0.00    +0.000 A 
ATOM      4  C   UNL     1       2.541   5.420  18.377  0.00  0.00    +0.000 A 
ATOM      5  C   UNL     1       2.062   4.900  19.575  0.00  0.00    +0.000 A 
ATOM      6  C   UNL     1       1.650   5.763  20.597  0.00  0.00    +0.000 A 
ENDROOT
BRANCH   1   8
ATOM      7  C   UNL     1       0.702   9.226  21.371  0.00  0.00    +0.000 C 
ATOM      8  C   UNL     1       1.276   8.024  21.533  0.00  0.00    +0.000 C 
BRANCH   7   9
ATOM      9  C   UNL     1       0.349  10.056  22.541  0.00  0.00    +0.000 C 
ATOM     10  O   UNL     1       0.415   9.704  23.707  0.00  0.00    +0.000 OA
BRANCH   9  12
ATOM     11  C   UNL     1      -1.125  11.846  22.812  0.00  0.00    +0.000 C 
ATOM     12  O   UNL     1      -0.041  11.272  22.082  0.00  0.00    +0.000 OA
ENDBRANCH   9  12
ENDBRANCH   7   9
ENDBRANCH   1   8
BRANCH   4  13
ATOM     13  O   UNL     1       2.976   4.617  17.297  0.00  0.00    +0.000 OA
BRANCH  13  14
ATOM     14  C   UNL     1       4.077   3.786  17.440  0.00  0.00    +0.000 C 
ATOM     15  O   UNL     1       4.153   2.746  18.075  0.00  0.00    +0.000 OA
BRANCH  14  16
ATOM     16  C   UNL     1       5.259   4.391  16.781  0.00  0.00    +0.000 A 
ATOM     17  C   UNL     1       5.543   4.215  15.427  0.00  0.00    +0.000 A 
ATOM     18  C   UNL     1       6.672   4.839  14.922  0.00  0.00    +0.000 A 
ATOM     19  N   UNL     1       7.506   5.601  15.664  0.00  0.00    +0.000 NA
ATOM     20  C   UNL     1       7.214   5.742  16.974  0.00  0.00    +0.000 A 
ATOM     21  C   UNL     1       6.117   5.155  17.575  0.00  0.00    +0.000 A 
ENDBRANCH  14  16
ENDBRANCH  13  14
ENDBRANCH   4  13
TORSDOF 6
ENDMDL
MODEL 9
REMARK VINA RESULT:      -6.9      4.345      6.264
REMARK  Name = 
REMARK  7 active torsions:
REMARK  status: ('A' for Active; 'I' for Inactive)
REMARK    1  A    between atoms: C_1  and  O_2
REMARK    2  A    between atoms: O_2  and  C_3
REMARK    3  A    between atoms: C_3  and  C_5
REMARK    4  A    between atoms: C_6  and  C_7
REMARK    5  A    between atoms: C_10  and  O_11
REMARK    6  A    between atoms: O_11  and  C_12
REMARK    7  A    between atoms: C_12  and  C_14
REMARK                            x       y       z     vdW  Elec       q    Type
REMARK                         _______ _______ _______ _____ _____    ______ ____
ROOT
ATOM      1  C   UNL     1       7.759   7.919  17.961  0.00  0.00    +0.000 A 
ATOM      2  C   UNL     1       6.622   7.612  17.194  0.00  0.00    +0.000 A 
ATOM      3  C   UNL     1       6.004   6.361  17.300  0.00  0.00    +0.000 A 
ATOM      4  C   UNL     1       6.526   5.398  18.163  0.00  0.00    +0.000 A 
ATOM      5  C   UNL     1       7.643   5.692  18.939  0.00  0.00    +0.000 A 
ATOM      6  C   UNL     1       8.265   6.940  18.825  0.00  0.00    +0.000 A 
ENDROOT
BRANCH   1   8
ATOM      7  C   UNL     1       8.997   9.864  18.877  0.00  0.00    +0.000 C 
ATOM      8  C   UNL     1       8.467   9.202  17.838  0.00  0.00    +0.000 C 
BRANCH   7   9
ATOM      9  C   UNL     1       9.673  11.163  18.678  0.00  0.00    +0.000 C 
ATOM     10  O   UNL     1      10.816  11.426  19.011  0.00  0.00    +0.000 OA
BRANCH   9  12
ATOM     11  C   UNL     1       9.267  13.333  17.918  0.00  0.00    +0.000 C 
ATOM     12  O   UNL     1       8.801  11.989  18.046  0.00  0.00    +0.000 OA
ENDBRANCH   9  12
ENDBRANCH   7   9
ENDBRANCH   1   8
BRANCH   4  13
ATOM     13  O   UNL     1       5.841   4.162  18.220  0.00  0.00    +0.000 OA
BRANCH  13  14
ATOM     14  C   UNL     1       5.099   3.721  17.134  0.00  0.00    +0.000 C 
ATOM     15  O   UNL     1       5.469   3.585  15.978  0.00  0.00    +0.000 OA
BRANCH  14  16
ATOM     16  C   UNL     1       3.686   3.518  17.533  0.00  0.00    +0.000 A 
ATOM     17  C   UNL     1       2.747   4.548  17.544  0.00  0.00    +0.000 A 
ATOM     18  C   UNL     1       1.453   4.233  17.927  0.00  0.00    +0.000 A 
ATOM     19  N   UNL     1       1.056   2.993  18.289  0.00  0.00    +0.000 NA
ATOM     20  C   UNL     1       1.990   2.019  18.283  0.00  0.00    +0.000 A 
ATOM     21  C   UNL     1       3.307   2.231  17.925  0.00  0.00    +0.000 A 
ENDBRANCH  14  16
ENDBRANCH  13  14
ENDBRANCH   4  13
TORSDOF 6
ENDMDL
