MODEL 1
REMARK VINA RESULT:      -7.6      0.000      0.000
REMARK  Name = 
REMARK  4 active torsions:
REMARK  status: ('A' for Active; 'I' for Inactive)
REMARK    1  A    between atoms: C_1  and  C_2
REMARK    2  A    between atoms: C_2  and  C_3
REMARK    3  A    between atoms: C_2  and  N_4
REMARK    4  A    between atoms: C_14  and  C_15
REMARK                            x       y       z     vdW  Elec       q    Type
REMARK                         _______ _______ _______ _____ _____    ______ ____
ROOT
ATOM      1  N   UNL     1      -0.923  10.474  18.684  0.00  0.00    +0.000 N 
ATOM      2  N   UNL     1       0.088  10.781  17.769  0.00  0.00    +0.000 N 
ATOM      3  C   UNL     1       1.239  10.110  18.157  0.00  0.00    +0.000 A 
ATOM      4  O   UNL     1       2.279   9.992  17.534  0.00  0.00    +0.000 OA
ATOM      5  C   UNL     1       0.952   9.529  19.477  0.00  0.00    +0.000 A 
ATOM      6  C   UNL     1      -0.332   9.814  19.739  0.00  0.00    +0.000 A 
ATOM      7  N   UNL     1      -0.888   9.370  20.899  0.00  0.00    +0.000 N 
ATOM      8  C   UNL     1      -0.184   8.722  21.888  0.00  0.00    +0.000 C 
ATOM      9  O   UNL     1      -0.761   8.187  22.830  0.00  0.00    +0.000 OA
ATOM     10  C   UNL     1       1.334   8.795  21.789  0.00  0.00    +0.000 C 
ATOM     11  C   UNL     1       1.850   8.731  20.340  0.00  0.00    +0.000 C 
ATOM     12  H   UNL     1      -0.105  10.965  16.793  0.00  0.00    +0.000 HD
ATOM     13  H   UNL     1      -1.891   9.412  21.018  0.00  0.00    +0.000 HD
ENDROOT
BRANCH  11  14
ATOM     14  C   UNL     1       1.983   7.290  19.857  0.00  0.00    +0.000 A 
ATOM     15  C   UNL     1       2.414   6.981  18.560  0.00  0.00    +0.000 A 
ATOM     16  C   UNL     1       2.495   5.655  18.127  0.00  0.00    +0.000 A 
ATOM     17  C   UNL     1       2.165   4.599  18.955  0.00  0.00    +0.000 A 
ATOM     18  N   UNL     1       2.253   3.345  18.479  0.00  0.00    +0.000 NA
ATOM     19  C   UNL     1       1.928   2.333  19.311  0.00  0.00    +0.000 A 
ATOM     20  C   UNL     1       1.517   2.512  20.620  0.00  0.00    +0.000 A 
ATOM     21  C   UNL     1       1.428   3.810  21.104  0.00  0.00    +0.000 A 
ATOM     22  C   UNL     1       1.751   4.891  20.273  0.00  0.00    +0.000 A 
ATOM     23  C   UNL     1       1.666   6.227  20.714  0.00  0.00    +0.000 A 
ENDBRANCH  11  14
BRANCH   1  25
ATOM     24  C   UNL     1      -2.075  12.514  19.452  0.00  0.00    +0.000 C 
ATOM     25  C   UNL     1      -2.181  11.212  18.663  0.00  0.00    +0.000 C 
ATOM     26  C   UNL     1      -2.600  11.466  17.216  0.00  0.00    +0.000 C 
ENDBRANCH   1  25
TORSDOF 2
ENDMDL
MODEL 2
REMARK VINA RESULT:      -7.6      0.723      1.588
REMARK  Name = 
REMARK  4 active torsions:
REMARK  status: ('A' for Active; 'I' for Inactive)
REMARK    1  A    between atoms: C_1  and  C_2
REMARK    2  A    between atoms: C_2  and  C_3
REMARK    3  A    between atoms: C_2  and  N_4
REMARK    4  A    between atoms: C_14  and  C_15
REMARK                            x       y       z     vdW  Elec       q    Type
REMARK                         _______ _______ _______ _____ _____    ______ ____
ROOT
ATOM      1  N   UNL     1      -0.871  10.352  18.721  0.00  0.00    +0.000 N 
ATOM      2  N   UNL     1       0.119  10.506  17.745  0.00  0.00    +0.000 N 
ATOM      3  C   UNL     1       1.242   9.804  18.155  0.00  0.00    +0.000 A 
ATOM      4  O   UNL     1       2.247   9.562  17.510  0.00  0.00    +0.000 OA
ATOM      5  C   UNL     1       0.976   9.371  19.535  0.00  0.00    +0.000 A 
ATOM      6  C   UNL     1      -0.276   9.759  19.813  0.00  0.00    +0.000 A 
ATOM      7  N   UNL     1      -0.810   9.464  21.029  0.00  0.00    +0.000 N 
ATOM      8  C   UNL     1      -0.105   8.869  22.051  0.00  0.00    +0.000 C 
ATOM      9  O   UNL     1      -0.674   8.464  23.061  0.00  0.00    +0.000 OA
ATOM     10  C   UNL     1       1.409   8.836  21.892  0.00  0.00    +0.000 C 
ATOM     11  C   UNL     1       1.860   8.602  20.439  0.00  0.00    +0.000 C 
ATOM     12  H   UNL     1      -0.103  10.609  16.762  0.00  0.00    +0.000 HD
ATOM     13  H   UNL     1      -1.803   9.580  21.180  0.00  0.00    +0.000 HD
ENDROOT
BRANCH  11  14
ATOM     14  C   UNL     1       1.887   7.117  20.093  0.00  0.00    +0.000 A 
ATOM     15  C   UNL     1       1.250   6.160  20.894  0.00  0.00    +0.000 A 
ATOM     16  C   UNL     1       1.316   4.800  20.578  0.00  0.00    +0.000 A 
ATOM     17  C   UNL     1       1.999   4.345  19.466  0.00  0.00    +0.000 A 
ATOM     18  N   UNL     1       2.037   3.025  19.219  0.00  0.00    +0.000 NA
ATOM     19  C   UNL     1       2.708   2.609  18.125  0.00  0.00    +0.000 A 
ATOM     20  C   UNL     1       3.352   3.461  17.245  0.00  0.00    +0.000 A 
ATOM     21  C   UNL     1       3.309   4.823  17.507  0.00  0.00    +0.000 A 
ATOM     22  C   UNL     1       2.627   5.297  18.635  0.00  0.00    +0.000 A 
ATOM     23  C   UNL     1       2.565   6.670  18.950  0.00  0.00    +0.000 A 
ENDBRANCH  11  14
BRANCH   1  25
ATOM     24  C   UNL     1      -1.875  12.514  19.352  0.00  0.00    +0.000 C 
ATOM     25  C   UNL     1      -2.081  11.163  18.673  0.00  0.00    +0.000 C 
ATOM     26  C   UNL     1      -2.527  11.330  17.221  0.00  0.00    +0.000 C 
ENDBRANCH   1  25
TORSDOF 2
ENDMDL
MODEL 3
REMARK VINA RESULT:      -7.5      3.851      7.598
REMARK  Name = 
REMARK  4 active torsions:
REMARK  status: ('A' for Active; 'I' for Inactive)
REMARK    1  A    between atoms: C_1  and  C_2
REMARK    2  A    between atoms: C_2  and  C_3
REMARK    3  A    between atoms: C_2  and  N_4
REMARK    4  A    between atoms: C_14  and  C_15
REMARK                            x       y       z     vdW  Elec       q    Type
REMARK                         _______ _______ _______ _____ _____    ______ ____
ROOT
ATOM      1  N   UNL     1       5.596   4.185  15.299  0.00  0.00    +0.000 N 
ATOM      2  N   UNL     1       4.466   3.371  15.428  0.00  0.00    +0.000 N 
ATOM      3  C   UNL     1       3.880   3.640  16.656  0.00  0.00    +0.000 A 
ATOM      4  O   UNL     1       2.798   3.257  17.065  0.00  0.00    +0.000 OA
ATOM      5  C   UNL     1       4.816   4.515  17.378  0.00  0.00    +0.000 A 
ATOM      6  C   UNL     1       5.821   4.767  16.527  0.00  0.00    +0.000 A 
ATOM      7  N   UNL     1       6.835   5.585  16.920  0.00  0.00    +0.000 N 
ATOM      8  C   UNL     1       6.953   6.104  18.190  0.00  0.00    +0.000 C 
ATOM      9  O   UNL     1       7.781   6.974  18.444  0.00  0.00    +0.000 OA
ATOM     10  C   UNL     1       6.073   5.471  19.259  0.00  0.00    +0.000 C 
ATOM     11  C   UNL     1       4.677   5.077  18.739  0.00  0.00    +0.000 C 
ATOM     12  H   UNL     1       3.906   3.095  14.632  0.00  0.00    +0.000 HD
ATOM     13  H   UNL     1       7.490   5.932  16.233  0.00  0.00    +0.000 HD
ENDROOT
BRANCH  11  14
ATOM     14  C   UNL     1       3.713   6.258  18.779  0.00  0.00    +0.000 A 
ATOM     15  C   UNL     1       3.614   7.170  17.720  0.00  0.00    +0.000 A 
ATOM     16  C   UNL     1       2.748   8.265  17.793  0.00  0.00    +0.000 A 
ATOM     17  C   UNL     1       1.952   8.489  18.899  0.00  0.00    +0.000 A 
ATOM     18  N   UNL     1       1.147   9.565  18.917  0.00  0.00    +0.000 NA
ATOM     19  C   UNL     1       0.378   9.757  20.008  0.00  0.00    +0.000 A 
ATOM     20  C   UNL     1       0.367   8.911  21.103  0.00  0.00    +0.000 A 
ATOM     21  C   UNL     1       1.202   7.802  21.079  0.00  0.00    +0.000 A 
ATOM     22  C   UNL     1       2.021   7.568  19.967  0.00  0.00    +0.000 A 
ATOM     23  C   UNL     1       2.894   6.462  19.899  0.00  0.00    +0.000 A 
ENDBRANCH  11  14
BRANCH   1  25
ATOM     24  C   UNL     1       5.830   3.504  12.941  0.00  0.00    +0.000 C 
ATOM     25  C   UNL     1       6.541   3.962  14.212  0.00  0.00    +0.000 C 
ATOM     26  C   UNL     1       7.353   5.233  13.971  0.00  0.00    +0.000 C 
ENDBRANCH   1  25
TORSDOF 2
ENDMDL
MODEL 4
REMARK VINA RESULT:      -7.5      2.403      3.558
REMARK  Name = 
REMARK  4 active torsions:
REMARK  status: ('A' for Active; 'I' for Inactive)
REMARK    1  A    between atoms: C_1  and  C_2
REMARK    2  A    between atoms: C_2  and  C_3
REMARK    3  A    between atoms: C_2  and  N_4
REMARK    4  A    between atoms: C_14  and  C_15
REMARK                            x       y       z     vdW  Elec       q    Type
REMARK                         _______ _______ _______ _____ _____    ______ ____
ROOT
ATOM      1  N   UNL     1      -2.318  11.957  19.720  0.00  0.00    +0.000 N 
ATOM      2  N   UNL     1      -2.782  11.294  18.579  0.00  0.00    +0.000 N 
ATOM      3  C   UNL     1      -1.691  10.730  17.935  0.00  0.00    +0.000 A 
ATOM      4  O   UNL     1      -1.699   9.944  17.004  0.00  0.00    +0.000 OA
ATOM      5  C   UNL     1      -0.496  11.247  18.619  0.00  0.00    +0.000 A 
ATOM      6  C   UNL     1      -0.943  11.990  19.641  0.00  0.00    +0.000 A 
ATOM      7  N   UNL     1      -0.047  12.580  20.477  0.00  0.00    +0.000 N 
ATOM      8  C   UNL     1       1.316  12.548  20.286  0.00  0.00    +0.000 C 
ATOM      9  O   UNL     1       2.088  12.939  21.157  0.00  0.00    +0.000 OA
ATOM     10  C   UNL     1       1.791  12.093  18.913  0.00  0.00    +0.000 C 
ATOM     11  C   UNL     1       0.925  10.969  18.314  0.00  0.00    +0.000 C 
ATOM     12  H   UNL     1      -3.693  10.856  18.543  0.00  0.00    +0.000 HD
ATOM     13  H   UNL     1      -0.366  12.979  21.350  0.00  0.00    +0.000 HD
ENDROOT
BRANCH  11  14
ATOM     14  C   UNL     1       1.365   9.597  18.814  0.00  0.00    +0.000 A 
ATOM     15  C   UNL     1       1.019   9.128  20.088  0.00  0.00    +0.000 A 
ATOM     16  C   UNL     1       1.462   7.882  20.540  0.00  0.00    +0.000 A 
ATOM     17  C   UNL     1       2.247   7.062  19.753  0.00  0.00    +0.000 A 
ATOM     18  N   UNL     1       2.652   5.879  20.245  0.00  0.00    +0.000 NA
ATOM     19  C   UNL     1       3.415   5.096  19.454  0.00  0.00    +0.000 A 
ATOM     20  C   UNL     1       3.798   5.439  18.170  0.00  0.00    +0.000 A 
ATOM     21  C   UNL     1       3.377   6.662  17.668  0.00  0.00    +0.000 A 
ATOM     22  C   UNL     1       2.587   7.508  18.458  0.00  0.00    +0.000 A 
ATOM     23  C   UNL     1       2.144   8.765  17.998  0.00  0.00    +0.000 A 
ENDBRANCH  11  14
BRANCH   1  25
ATOM     24  C   UNL     1      -4.647  12.725  19.976  0.00  0.00    +0.000 C 
ATOM     25  C   UNL     1      -3.208  12.835  20.471  0.00  0.00    +0.000 C 
ATOM     26  C   UNL     1      -3.103  12.515  21.961  0.00  0.00    +0.000 C 
ENDBRANCH   1  25
TORSDOF 2
ENDMDL
MODEL 5
REMARK VINA RESULT:      -7.5      3.035      6.861
REMARK  Name = 
REMARK  4 active torsions:
REMARK  status: ('A' for Active; 'I' for Inactive)
REMARK    1  A    between atoms: C_1  and  C_2
REMARK    2  A    between atoms: C_2  and  C_3
REMARK    3  A    between atoms: C_2  and  N_4
REMARK    4  A    between atoms: C_14  and  C_15
REMARK                            x       y       z     vdW  Elec       q    Type
REMARK                         _______ _______ _______ _____ _____    ______ ____
ROOT
ATOM      1  N   UNL     1       6.042   5.856  18.266  0.00  0.00    +0.000 N 
ATOM      2  N   UNL     1       6.000   6.494  17.022  0.00  0.00    +0.000 N 
ATOM      3  C   UNL     1       4.680   6.818  16.749  0.00  0.00    +0.000 A 
ATOM      4  O   UNL     1       4.255   7.519  15.847  0.00  0.00    +0.000 OA
ATOM      5  C   UNL     1       3.871   6.167  17.791  0.00  0.00    +0.000 A 
ATOM      6  C   UNL     1       4.741   5.591  18.632  0.00  0.00    +0.000 A 
ATOM      7  N   UNL     1       4.271   4.929  19.724  0.00  0.00    +0.000 N 
ATOM      8  C   UNL     1       2.934   4.722  19.978  0.00  0.00    +0.000 C 
ATOM      9  O   UNL     1       2.556   4.279  21.059  0.00  0.00    +0.000 OA
ATOM     10  C   UNL     1       1.982   4.982  18.819  0.00  0.00    +0.000 C 
ATOM     11  C   UNL     1       2.400   6.182  17.949  0.00  0.00    +0.000 C 
ATOM     12  H   UNL     1       6.760   7.072  16.686  0.00  0.00    +0.000 HD
ATOM     13  H   UNL     1       4.912   4.659  20.458  0.00  0.00    +0.000 HD
ENDROOT
BRANCH  11  14
ATOM     14  C   UNL     1       1.896   7.498  18.533  0.00  0.00    +0.000 A 
ATOM     15  C   UNL     1       1.775   8.656  17.754  0.00  0.00    +0.000 A 
ATOM     16  C   UNL     1       1.343   9.860  18.318  0.00  0.00    +0.000 A 
ATOM     17  C   UNL     1       1.012   9.957  19.655  0.00  0.00    +0.000 A 
ATOM     18  N   UNL     1       0.615  11.144  20.144  0.00  0.00    +0.000 NA
ATOM     19  C   UNL     1       0.294  11.210  21.453  0.00  0.00    +0.000 A 
ATOM     20  C   UNL     1       0.347  10.130  22.315  0.00  0.00    +0.000 A 
ATOM     21  C   UNL     1       0.760   8.907  21.804  0.00  0.00    +0.000 A 
ATOM     22  C   UNL     1       1.107   8.795  20.451  0.00  0.00    +0.000 A 
ATOM     23  C   UNL     1       1.543   7.578  19.888  0.00  0.00    +0.000 A 
ENDBRANCH  11  14
BRANCH   1  25
ATOM     24  C   UNL     1       7.905   4.390  17.588  0.00  0.00    +0.000 C 
ATOM     25  C   UNL     1       7.265   5.199  18.713  0.00  0.00    +0.000 C 
ATOM     26  C   UNL     1       8.231   6.243  19.271  0.00  0.00    +0.000 C 
ENDBRANCH   1  25
TORSDOF 2
ENDMDL
MODEL 6
REMARK VINA RESULT:      -7.5      2.966      7.069
REMARK  Name = 
REMARK  4 active torsions:
REMARK  status: ('A' for Active; 'I' for Inactive)
REMARK    1  A    between atoms: C_1  and  C_2
REMARK    2  A    between atoms: C_2  and  C_3
REMARK    3  A    between atoms: C_2  and  N_4
REMARK    4  A    between atoms: C_14  and  C_15
REMARK                            x       y       z     vdW  Elec       q    Type
REMARK                         _______ _______ _______ _____ _____    ______ ____
ROOT
ATOM      1  N   UNL     1       5.814   5.773  18.328  0.00  0.00    +0.000 N 
ATOM      2  N   UNL     1       5.681   6.608  17.214  0.00  0.00    +0.000 N 
ATOM      3  C   UNL     1       4.357   7.014  17.135  0.00  0.00    +0.000 A 
ATOM      4  O   UNL     1       3.881   7.866  16.407  0.00  0.00    +0.000 OA
ATOM      5  C   UNL     1       3.624   6.226  18.138  0.00  0.00    +0.000 A 
ATOM      6  C   UNL     1       4.543   5.492  18.780  0.00  0.00    +0.000 A 
ATOM      7  N   UNL     1       4.152   4.674  19.795  0.00  0.00    +0.000 N 
ATOM      8  C   UNL     1       2.837   4.470  20.150  0.00  0.00    +0.000 C 
ATOM      9  O   UNL     1       2.545   3.867  21.179  0.00  0.00    +0.000 OA
ATOM     10  C   UNL     1       1.790   4.947  19.153  0.00  0.00    +0.000 C 
ATOM     11  C   UNL     1       2.178   6.261  18.449  0.00  0.00    +0.000 C 
ATOM     12  H   UNL     1       6.431   7.209  16.898  0.00  0.00    +0.000 HD
ATOM     13  H   UNL     1       4.847   4.267  20.404  0.00  0.00    +0.000 HD
ENDROOT
BRANCH  11  14
ATOM     14  C   UNL     1       1.798   7.477  19.286  0.00  0.00    +0.000 A 
ATOM     15  C   UNL     1       1.653   7.402  20.678  0.00  0.00    +0.000 A 
ATOM     16  C   UNL     1       1.270   8.522  21.422  0.00  0.00    +0.000 A 
ATOM     17  C   UNL     1       1.028   9.743  20.823  0.00  0.00    +0.000 A 
ATOM     18  N   UNL     1       0.651  10.781  21.589  0.00  0.00    +0.000 NA
ATOM     19  C   UNL     1       0.425  11.963  20.979  0.00  0.00    +0.000 A 
ATOM     20  C   UNL     1       0.562  12.167  19.617  0.00  0.00    +0.000 A 
ATOM     21  C   UNL     1       0.950  11.090  18.832  0.00  0.00    +0.000 A 
ATOM     22  C   UNL     1       1.191   9.843  19.425  0.00  0.00    +0.000 A 
ATOM     23  C   UNL     1       1.576   8.717  18.669  0.00  0.00    +0.000 A 
ENDBRANCH  11  14
BRANCH   1  25
ATOM     24  C   UNL     1       7.621   4.523  17.209  0.00  0.00    +0.000 C 
ATOM     25  C   UNL     1       7.041   5.013  18.533  0.00  0.00    +0.000 C 
ATOM     26  C   UNL     1       8.048   5.866  19.303  0.00  0.00    +0.000 C 
ENDBRANCH   1  25
TORSDOF 2
ENDMDL
MODEL 7
REMARK VINA RESULT:      -7.2      2.877      4.633
REMARK  Name = 
REMARK  4 active torsions:
REMARK  status: ('A' for Active; 'I' for Inactive)
REMARK    1  A    between atoms: C_1  and  C_2
REMARK    2  A    between atoms: C_2  and  C_3
REMARK    3  A    between atoms: C_2  and  N_4
REMARK    4  A    between atoms: C_14  and  C_15
REMARK                            x       y       z     vdW  Elec       q    Type
REMARK                         _______ _______ _______ _____ _____    ______ ____
ROOT
ATOM      1  N   UNL     1      -4.583  11.534  18.479  0.00  0.00    +0.000 N 
ATOM      2  N   UNL     1      -4.256  11.151  17.175  0.00  0.00    +0.000 N 
ATOM      3  C   UNL     1      -2.875  11.184  17.049  0.00  0.00    +0.000 A 
ATOM      4  O   UNL     1      -2.200  10.766  16.124  0.00  0.00    +0.000 OA
ATOM      5  C   UNL     1      -2.363  11.806  18.279  0.00  0.00    +0.000 A 
ATOM      6  C   UNL     1      -3.431  12.016  19.062  0.00  0.00    +0.000 A 
ATOM      7  N   UNL     1      -3.255  12.564  20.295  0.00  0.00    +0.000 N 
ATOM      8  C   UNL     1      -2.043  13.018  20.765  0.00  0.00    +0.000 C 
ATOM      9  O   UNL     1      -1.900  13.338  21.942  0.00  0.00    +0.000 OA
ATOM     10  C   UNL     1      -0.940  13.186  19.729  0.00  0.00    +0.000 C 
ATOM     11  C   UNL     1      -0.959  12.094  18.643  0.00  0.00    +0.000 C 
ATOM     12  H   UNL     1      -4.812  10.485  16.652  0.00  0.00    +0.000 HD
ATOM     13  H   UNL     1      -4.016  12.551  20.960  0.00  0.00    +0.000 HD
ENDROOT
BRANCH  11  14
ATOM     14  C   UNL     1      -0.212  10.843  19.095  0.00  0.00    +0.000 A 
ATOM     15  C   UNL     1      -0.345  10.331  20.392  0.00  0.00    +0.000 A 
ATOM     16  C   UNL     1       0.375   9.203  20.796  0.00  0.00    +0.000 A 
ATOM     17  C   UNL     1       1.235   8.545  19.938  0.00  0.00    +0.000 A 
ATOM     18  N   UNL     1       1.909   7.472  20.386  0.00  0.00    +0.000 NA
ATOM     19  C   UNL     1       2.739   6.847  19.526  0.00  0.00    +0.000 A 
ATOM     20  C   UNL     1       2.931   7.242  18.215  0.00  0.00    +0.000 A 
ATOM     21  C   UNL     1       2.233   8.351  17.759  0.00  0.00    +0.000 A 
ATOM     22  C   UNL     1       1.364   9.033  18.620  0.00  0.00    +0.000 A 
ATOM     23  C   UNL     1       0.641  10.172  18.208  0.00  0.00    +0.000 A 
ENDBRANCH  11  14
BRANCH   1  25
ATOM     24  C   UNL     1      -6.598  12.822  17.882  0.00  0.00    +0.000 C 
ATOM     25  C   UNL     1      -5.968  11.812  18.837  0.00  0.00    +0.000 C 
ATOM     26  C   UNL     1      -6.759  10.505  18.869  0.00  0.00    +0.000 C 
ENDBRANCH   1  25
TORSDOF 2
ENDMDL
MODEL 8
REMARK VINA RESULT:      -7.2      3.541      7.497
REMARK  Name = 
REMARK  4 active torsions:
REMARK  status: ('A' for Active; 'I' for Inactive)
REMARK    1  A    between atoms: C_1  and  C_2
REMARK    2  A    between atoms: C_2  and  C_3
REMARK    3  A    between atoms: C_2  and  N_4
REMARK    4  A    between atoms: C_14  and  C_15
REMARK                            x       y       z     vdW  Elec       q    Type
REMARK                         _______ _______ _______ _____ _____    ______ ____
ROOT
ATOM      1  N   UNL     1       5.220   4.141  15.841  0.00  0.00    +0.000 N 
ATOM      2  N   UNL     1       3.973   3.568  15.569  0.00  0.00    +0.000 N 
ATOM      3  C   UNL     1       3.210   3.626  16.726  0.00  0.00    +0.000 A 
ATOM      4  O   UNL     1       2.023   3.380  16.850  0.00  0.00    +0.000 OA
ATOM      5  C   UNL     1       4.114   4.078  17.794  0.00  0.00    +0.000 A 
ATOM      6  C   UNL     1       5.291   4.330  17.204  0.00  0.00    +0.000 A 
ATOM      7  N   UNL     1       6.326   4.797  17.955  0.00  0.00    +0.000 N 
ATOM      8  C   UNL     1       6.277   4.938  19.324  0.00  0.00    +0.000 C 
ATOM      9  O   UNL     1       7.165   5.526  19.932  0.00  0.00    +0.000 OA
ATOM     10  C   UNL     1       5.119   4.245  20.029  0.00  0.00    +0.000 C 
ATOM     11  C   UNL     1       3.806   4.289  19.225  0.00  0.00    +0.000 C 
ATOM     12  H   UNL     1       3.541   3.625  14.656  0.00  0.00    +0.000 HD
ATOM     13  H   UNL     1       7.147   5.168  17.497  0.00  0.00    +0.000 HD
ENDROOT
BRANCH  11  14
ATOM     14  C   UNL     1       3.048   5.591  19.466  0.00  0.00    +0.000 A 
ATOM     15  C   UNL     1       2.285   5.801  20.622  0.00  0.00    +0.000 A 
ATOM     16  C   UNL     1       1.571   6.988  20.807  0.00  0.00    +0.000 A 
ATOM     17  C   UNL     1       1.592   8.001  19.867  0.00  0.00    +0.000 A 
ATOM     18  N   UNL     1       0.876   9.115  20.094  0.00  0.00    +0.000 NA
ATOM     19  C   UNL     1       0.918  10.090  19.162  0.00  0.00    +0.000 A 
ATOM     20  C   UNL     1       1.656  10.010  17.995  0.00  0.00    +0.000 A 
ATOM     21  C   UNL     1       2.392   8.856  17.766  0.00  0.00    +0.000 A 
ATOM     22  C   UNL     1       2.373   7.817  18.706  0.00  0.00    +0.000 A 
ATOM     23  C   UNL     1       3.095   6.620  18.515  0.00  0.00    +0.000 A 
ENDBRANCH  11  14
BRANCH   1  25
ATOM     24  C   UNL     1       5.793   3.624  13.500  0.00  0.00    +0.000 C 
ATOM     25  C   UNL     1       6.310   4.016  14.881  0.00  0.00    +0.000 C 
ATOM     26  C   UNL     1       7.100   5.322  14.833  0.00  0.00    +0.000 C 
ENDBRANCH   1  25
TORSDOF 2
ENDMDL
MODEL 9
REMARK VINA RESULT:      -7.2      2.795      4.406
REMARK  Name = 
REMARK  4 active torsions:
REMARK  status: ('A' for Active; 'I' for Inactive)
REMARK    1  A    between atoms: C_1  and  C_2
REMARK    2  A    between atoms: C_2  and  C_3
REMARK    3  A    between atoms: C_2  and  N_4
REMARK    4  A    between atoms: C_14  and  C_15
REMARK                            x       y       z     vdW  Elec       q    Type
REMARK                         _______ _______ _______ _____ _____    ______ ____
ROOT
ATOM      1  N   UNL     1      -3.751  12.409  20.025  0.00  0.00    +0.000 N 
ATOM      2  N   UNL     1      -3.873  12.013  18.690  0.00  0.00    +0.000 N 
ATOM      3  C   UNL     1      -2.600  11.778  18.191  0.00  0.00    +0.000 A 
ATOM      4  O   UNL     1      -2.299  11.267  17.128  0.00  0.00    +0.000 OA
ATOM      5  C   UNL     1      -1.661  12.246  19.222  0.00  0.00    +0.000 A 
ATOM      6  C   UNL     1      -2.412  12.636  20.262  0.00  0.00    +0.000 A 
ATOM      7  N   UNL     1      -1.803  13.096  21.388  0.00  0.00    +0.000 N 
ATOM      8  C   UNL     1      -0.444  13.287  21.500  0.00  0.00    +0.000 C 
ATOM      9  O   UNL     1       0.074  13.533  22.585  0.00  0.00    +0.000 OA
ATOM     10  C   UNL     1       0.347  13.269  20.198  0.00  0.00    +0.000 C 
ATOM     11  C   UNL     1      -0.182  12.239  19.182  0.00  0.00    +0.000 C 
ATOM     12  H   UNL     1      -4.670  11.488  18.354  0.00  0.00    +0.000 HD
ATOM     13  H   UNL     1      -2.341  13.211  22.235  0.00  0.00    +0.000 HD
ENDROOT
BRANCH  11  14
ATOM     14  C   UNL     1       0.395  10.851  19.441  0.00  0.00    +0.000 A 
ATOM     15  C   UNL     1       0.186  10.177  20.651  0.00  0.00    +0.000 A 
ATOM     16  C   UNL     1       0.753   8.920  20.880  0.00  0.00    +0.000 A 
ATOM     17  C   UNL     1       1.532   8.290  19.928  0.00  0.00    +0.000 A 
ATOM     18  N   UNL     1       2.060   7.087  20.209  0.00  0.00    +0.000 NA
ATOM     19  C   UNL     1       2.813   6.493  19.260  0.00  0.00    +0.000 A 
ATOM     20  C   UNL     1       3.066   7.048  18.018  0.00  0.00    +0.000 A 
ATOM     21  C   UNL     1       2.518   8.291  17.734  0.00  0.00    +0.000 A 
ATOM     22  C   UNL     1       1.734   8.945  18.694  0.00  0.00    +0.000 A 
ATOM     23  C   UNL     1       1.165  10.214  18.458  0.00  0.00    +0.000 A 
ENDBRANCH  11  14
BRANCH   1  25
ATOM     24  C   UNL     1      -5.132  14.415  20.412  0.00  0.00    +0.000 C 
ATOM     25  C   UNL     1      -4.903  12.942  20.741  0.00  0.00    +0.000 C 
ATOM     26  C   UNL     1      -6.137  12.099  20.422  0.00  0.00    +0.000 C 
ENDBRANCH   1  25
TORSDOF 2
ENDMDL
