MODEL 1
REMARK VINA RESULT:      -7.3      0.000      0.000
REMARK  Name = 
REMARK  4 active torsions:
REMARK  status: ('A' for Active; 'I' for Inactive)
REMARK    1  A    between atoms: C_1  and  N_2
REMARK    2  A    between atoms: N_2  and  C_3
REMARK    3  A    between atoms: N_5  and  C_6
REMARK    4  A    between atoms: C_13  and  C_14
REMARK                            x       y       z     vdW  Elec       q    Type
REMARK                         _______ _______ _______ _____ _____    ______ ____
ROOT
ATOM      1  C   UNL     1       5.570   4.822  18.294  0.00  0.00    +0.000 A 
ATOM      2  N   UNL     1       6.435   5.621  18.962  0.00  0.00    +0.000 NA
ATOM      3  C   UNL     1       7.465   6.120  18.282  0.00  0.00    +0.000 A 
ATOM      4  N   UNL     1       8.382   6.868  18.990  0.00  0.00    +0.000 N 
ATOM      5  N   UNL     1       7.692   5.905  16.990  0.00  0.00    +0.000 NA
ATOM      6  C   UNL     1       6.803   5.150  16.329  0.00  0.00    +0.000 A 
ATOM      7  C   UNL     1       6.977   4.966  14.959  0.00  0.00    +0.000 A 
ATOM      8  C   UNL     1       6.079   4.231  14.173  0.00  0.00    +0.000 A 
ATOM      9  C   UNL     1       5.033   3.643  14.872  0.00  0.00    +0.000 A 
ATOM     10  N   UNL     1       4.824   3.771  16.201  0.00  0.00    +0.000 NA
ATOM     11  C   UNL     1       5.693   4.539  16.924  0.00  0.00    +0.000 A 
ATOM     12  H   UNL     1       8.341   6.623  19.968  0.00  0.00    +0.000 HD
ATOM     13  H   UNL     1       9.288   6.818  18.542  0.00  0.00    +0.000 HD
ENDROOT
BRANCH   1  16
ATOM     14  C   UNL     1       3.010   3.333  20.025  0.00  0.00    +0.000 C 
ATOM     15  C   UNL     1       3.475   4.801  19.838  0.00  0.00    +0.000 C 
ATOM     16  N   UNL     1       4.550   4.257  19.076  0.00  0.00    +0.000 N 
ATOM     17  C   UNL     1       4.477   2.976  19.707  0.00  0.00    +0.000 C 
BRANCH  14  19
ATOM     18  C   UNL     1       1.252   2.652  21.511  0.00  0.00    +0.000 C 
ATOM     19  N   UNL     1       2.636   3.098  21.430  0.00  0.00    +0.000 NA
ATOM     20  H   UNL     1       3.244   2.452  21.935  0.00  0.00    +0.000 HD
ENDBRANCH  14  19
ENDBRANCH   1  16
BRANCH   8  21
ATOM     21  C   UNL     1       6.234   4.060  12.681  0.00  0.00    +0.000 C 
ATOM     22  C   UNL     1       6.528   2.682  12.123  0.00  0.00    +0.000 C 
ATOM     23  C   UNL     1       5.197   3.321  11.865  0.00  0.00    +0.000 C 
ENDBRANCH   8  21
TORSDOF 3
ENDMDL
MODEL 2
REMARK VINA RESULT:      -6.8      1.464      6.145
REMARK  Name = 
REMARK  4 active torsions:
REMARK  status: ('A' for Active; 'I' for Inactive)
REMARK    1  A    between atoms: C_1  and  N_2
REMARK    2  A    between atoms: N_2  and  C_3
REMARK    3  A    between atoms: N_5  and  C_6
REMARK    4  A    between atoms: C_13  and  C_14
REMARK                            x       y       z     vdW  Elec       q    Type
REMARK                         _______ _______ _______ _____ _____    ______ ____
ROOT
ATOM      1  C   UNL     1       6.094   4.613  17.055  0.00  0.00    +0.000 A 
ATOM      2  N   UNL     1       7.265   4.940  17.651  0.00  0.00    +0.000 NA
ATOM      3  C   UNL     1       7.234   5.241  18.948  0.00  0.00    +0.000 A 
ATOM      4  N   UNL     1       8.418   5.649  19.526  0.00  0.00    +0.000 N 
ATOM      5  N   UNL     1       6.139   5.226  19.700  0.00  0.00    +0.000 NA
ATOM      6  C   UNL     1       4.994   4.857  19.108  0.00  0.00    +0.000 A 
ATOM      7  C   UNL     1       3.844   4.763  19.889  0.00  0.00    +0.000 A 
ATOM      8  C   UNL     1       2.610   4.344  19.373  0.00  0.00    +0.000 A 
ATOM      9  C   UNL     1       2.601   4.089  18.008  0.00  0.00    +0.000 A 
ATOM     10  N   UNL     1       3.680   4.181  17.198  0.00  0.00    +0.000 NA
ATOM     11  C   UNL     1       4.877   4.542  17.749  0.00  0.00    +0.000 A 
ATOM     12  H   UNL     1       9.040   6.008  18.818  0.00  0.00    +0.000 HD
ATOM     13  H   UNL     1       8.227   6.250  20.317  0.00  0.00    +0.000 HD
ENDROOT
BRANCH   1  16
ATOM     14  C   UNL     1       6.177   4.248  13.645  0.00  0.00    +0.000 C 
ATOM     15  C   UNL     1       5.681   3.356  14.813  0.00  0.00    +0.000 C 
ATOM     16  N   UNL     1       6.170   4.384  15.671  0.00  0.00    +0.000 N 
ATOM     17  C   UNL     1       7.100   4.882  14.706  0.00  0.00    +0.000 C 
BRANCH  14  19
ATOM     18  C   UNL     1       5.946   2.827  11.723  0.00  0.00    +0.000 C 
ATOM     19  N   UNL     1       6.893   3.427  12.653  0.00  0.00    +0.000 NA
ATOM     20  H   UNL     1       7.627   3.916  12.140  0.00  0.00    +0.000 HD
ENDBRANCH  14  19
ENDBRANCH   1  16
BRANCH   8  21
ATOM     21  C   UNL     1       1.367   4.197  20.218  0.00  0.00    +0.000 C 
ATOM     22  C   UNL     1       0.588   2.899  20.163  0.00  0.00    +0.000 C 
ATOM     23  C   UNL     1       1.334   3.266  21.409  0.00  0.00    +0.000 C 
ENDBRANCH   8  21
TORSDOF 3
ENDMDL
MODEL 3
REMARK VINA RESULT:      -6.7      2.041      6.159
REMARK  Name = 
REMARK  4 active torsions:
REMARK  status: ('A' for Active; 'I' for Inactive)
REMARK    1  A    between atoms: C_1  and  N_2
REMARK    2  A    between atoms: N_2  and  C_3
REMARK    3  A    between atoms: N_5  and  C_6
REMARK    4  A    between atoms: C_13  and  C_14
REMARK                            x       y       z     vdW  Elec       q    Type
REMARK                         _______ _______ _______ _____ _____    ______ ____
ROOT
ATOM      1  C   UNL     1       6.488   5.982  16.871  0.00  0.00    +0.000 A 
ATOM      2  N   UNL     1       6.923   5.546  15.665  0.00  0.00    +0.000 NA
ATOM      3  C   UNL     1       6.231   4.574  15.073  0.00  0.00    +0.000 A 
ATOM      4  N   UNL     1       6.728   4.084  13.884  0.00  0.00    +0.000 N 
ATOM      5  N   UNL     1       5.134   4.017  15.575  0.00  0.00    +0.000 NA
ATOM      6  C   UNL     1       4.688   4.488  16.748  0.00  0.00    +0.000 A 
ATOM      7  C   UNL     1       3.500   3.971  17.262  0.00  0.00    +0.000 A 
ATOM      8  C   UNL     1       2.929   4.429  18.457  0.00  0.00    +0.000 A 
ATOM      9  C   UNL     1       3.669   5.395  19.128  0.00  0.00    +0.000 A 
ATOM     10  N   UNL     1       4.834   5.920  18.687  0.00  0.00    +0.000 NA
ATOM     11  C   UNL     1       5.331   5.484  17.491  0.00  0.00    +0.000 A 
ATOM     12  H   UNL     1       7.717   4.270  13.823  0.00  0.00    +0.000 HD
ATOM     13  H   UNL     1       6.431   3.126  13.755  0.00  0.00    +0.000 HD
ENDROOT
BRANCH   1  16
ATOM     14  C   UNL     1       8.574   8.368  18.183  0.00  0.00    +0.000 C 
ATOM     15  C   UNL     1       8.197   6.921  18.595  0.00  0.00    +0.000 C 
ATOM     16  N   UNL     1       7.300   6.948  17.487  0.00  0.00    +0.000 N 
ATOM     17  C   UNL     1       7.203   8.374  17.475  0.00  0.00    +0.000 C 
BRANCH  14  19
ATOM     18  C   UNL     1       9.443  10.409  19.100  0.00  0.00    +0.000 C 
ATOM     19  N   UNL     1       8.629   9.233  19.373  0.00  0.00    +0.000 NA
ATOM     20  H   UNL     1       7.720   9.514  19.743  0.00  0.00    +0.000 HD
ENDBRANCH  14  19
ENDBRANCH   1  16
BRANCH   8  21
ATOM     21  C   UNL     1       1.622   3.907  19.003  0.00  0.00    +0.000 C 
ATOM     22  C   UNL     1       1.635   2.694  19.912  0.00  0.00    +0.000 C 
ATOM     23  C   UNL     1       1.277   4.038  20.470  0.00  0.00    +0.000 C 
ENDBRANCH   8  21
TORSDOF 3
ENDMDL
MODEL 4
REMARK VINA RESULT:      -6.6      3.630      5.206
REMARK  Name = 
REMARK  4 active torsions:
REMARK  status: ('A' for Active; 'I' for Inactive)
REMARK    1  A    between atoms: C_1  and  N_2
REMARK    2  A    between atoms: N_2  and  C_3
REMARK    3  A    between atoms: N_5  and  C_6
REMARK    4  A    between atoms: C_13  and  C_14
REMARK                            x       y       z     vdW  Elec       q    Type
REMARK                         _______ _______ _______ _____ _____    ______ ____
ROOT
ATOM      1  C   UNL     1       2.601   6.737  19.103  0.00  0.00    +0.000 A 
ATOM      2  N   UNL     1       2.112   6.043  20.157  0.00  0.00    +0.000 NA
ATOM      3  C   UNL     1       2.507   4.780  20.303  0.00  0.00    +0.000 A 
ATOM      4  N   UNL     1       1.941   4.059  21.334  0.00  0.00    +0.000 N 
ATOM      5  N   UNL     1       3.362   4.159  19.496  0.00  0.00    +0.000 NA
ATOM      6  C   UNL     1       3.874   4.871  18.482  0.00  0.00    +0.000 A 
ATOM      7  C   UNL     1       4.827   4.268  17.663  0.00  0.00    +0.000 A 
ATOM      8  C   UNL     1       5.453   4.942  16.605  0.00  0.00    +0.000 A 
ATOM      9  C   UNL     1       5.007   6.240  16.392  0.00  0.00    +0.000 A 
ATOM     10  N   UNL     1       4.075   6.870  17.141  0.00  0.00    +0.000 NA
ATOM     11  C   UNL     1       3.525   6.196  18.196  0.00  0.00    +0.000 A 
ATOM     12  H   UNL     1       1.057   4.469  21.593  0.00  0.00    +0.000 HD
ATOM     13  H   UNL     1       1.942   3.073  21.106  0.00  0.00    +0.000 HD
ENDROOT
BRANCH   1  16
ATOM     14  C   UNL     1       1.558   9.980  18.703  0.00  0.00    +0.000 C 
ATOM     15  C   UNL     1       1.323   8.898  19.789  0.00  0.00    +0.000 C 
ATOM     16  N   UNL     1       2.089   8.036  18.951  0.00  0.00    +0.000 N 
ATOM     17  C   UNL     1       1.813   8.782  17.764  0.00  0.00    +0.000 C 
BRANCH  14  19
ATOM     18  C   UNL     1       0.448  12.108  18.740  0.00  0.00    +0.000 C 
ATOM     19  N   UNL     1       0.302  10.695  18.423  0.00  0.00    +0.000 NA
ATOM     20  H   UNL     1      -0.054  10.583  17.472  0.00  0.00    +0.000 HD
ENDBRANCH  14  19
ENDBRANCH   1  16
BRANCH   8  21
ATOM     21  C   UNL     1       6.516   4.313  15.738  0.00  0.00    +0.000 C 
ATOM     22  C   UNL     1       6.143   3.824  14.354  0.00  0.00    +0.000 C 
ATOM     23  C   UNL     1       7.038   5.016  14.504  0.00  0.00    +0.000 C 
ENDBRANCH   8  21
TORSDOF 3
ENDMDL
MODEL 5
REMARK VINA RESULT:      -6.5      3.370      7.293
REMARK  Name = 
REMARK  4 active torsions:
REMARK  status: ('A' for Active; 'I' for Inactive)
REMARK    1  A    between atoms: C_1  and  N_2
REMARK    2  A    between atoms: N_2  and  C_3
REMARK    3  A    between atoms: N_5  and  C_6
REMARK    4  A    between atoms: C_13  and  C_14
REMARK                            x       y       z     vdW  Elec       q    Type
REMARK                         _______ _______ _______ _____ _____    ______ ____
ROOT
ATOM      1  C   UNL     1       3.110   5.023  18.987  0.00  0.00    +0.000 A 
ATOM      2  N   UNL     1       2.940   4.021  19.882  0.00  0.00    +0.000 NA
ATOM      3  C   UNL     1       2.289   4.304  21.009  0.00  0.00    +0.000 A 
ATOM      4  N   UNL     1       2.191   3.298  21.948  0.00  0.00    +0.000 N 
ATOM      5  N   UNL     1       1.779   5.495  21.307  0.00  0.00    +0.000 NA
ATOM      6  C   UNL     1       1.915   6.466  20.393  0.00  0.00    +0.000 A 
ATOM      7  C   UNL     1       1.329   7.704  20.648  0.00  0.00    +0.000 A 
ATOM      8  C   UNL     1       1.377   8.767  19.737  0.00  0.00    +0.000 A 
ATOM      9  C   UNL     1       2.108   8.518  18.583  0.00  0.00    +0.000 A 
ATOM     10  N   UNL     1       2.713   7.345  18.290  0.00  0.00    +0.000 NA
ATOM     11  C   UNL     1       2.599   6.315  19.181  0.00  0.00    +0.000 A 
ATOM     12  H   UNL     1       2.929   2.625  21.806  0.00  0.00    +0.000 HD
ATOM     13  H   UNL     1       2.103   3.697  22.873  0.00  0.00    +0.000 HD
ENDROOT
BRANCH   1  16
ATOM     14  C   UNL     1       4.891   4.393  16.124  0.00  0.00    +0.000 C 
ATOM     15  C   UNL     1       3.921   3.555  16.997  0.00  0.00    +0.000 C 
ATOM     16  N   UNL     1       3.873   4.691  17.856  0.00  0.00    +0.000 N 
ATOM     17  C   UNL     1       5.136   5.197  17.418  0.00  0.00    +0.000 C 
BRANCH  14  19
ATOM     18  C   UNL     1       6.404   3.867  14.336  0.00  0.00    +0.000 C 
ATOM     19  N   UNL     1       6.040   3.568  15.714  0.00  0.00    +0.000 NA
ATOM     20  H   UNL     1       6.860   3.641  16.318  0.00  0.00    +0.000 HD
ENDBRANCH  14  19
ENDBRANCH   1  16
BRANCH   8  21
ATOM     21  C   UNL     1       0.709  10.099  19.983  0.00  0.00    +0.000 C 
ATOM     22  C   UNL     1      -0.760  10.260  19.648  0.00  0.00    +0.000 C 
ATOM     23  C   UNL     1      -0.319  10.269  21.080  0.00  0.00    +0.000 C 
ENDBRANCH   8  21
TORSDOF 3
ENDMDL
MODEL 6
REMARK VINA RESULT:      -6.4      0.969      1.091
REMARK  Name = 
REMARK  4 active torsions:
REMARK  status: ('A' for Active; 'I' for Inactive)
REMARK    1  A    between atoms: C_1  and  N_2
REMARK    2  A    between atoms: N_2  and  C_3
REMARK    3  A    between atoms: N_5  and  C_6
REMARK    4  A    between atoms: C_13  and  C_14
REMARK                            x       y       z     vdW  Elec       q    Type
REMARK                         _______ _______ _______ _____ _____    ______ ____
ROOT
ATOM      1  C   UNL     1       5.432   5.665  17.864  0.00  0.00    +0.000 A 
ATOM      2  N   UNL     1       6.188   6.713  18.268  0.00  0.00    +0.000 NA
ATOM      3  C   UNL     1       7.216   7.066  17.499  0.00  0.00    +0.000 A 
ATOM      4  N   UNL     1       8.026   8.083  17.959  0.00  0.00    +0.000 N 
ATOM      5  N   UNL     1       7.540   6.473  16.354  0.00  0.00    +0.000 NA
ATOM      6  C   UNL     1       6.757   5.466  15.942  0.00  0.00    +0.000 A 
ATOM      7  C   UNL     1       7.031   4.873  14.711  0.00  0.00    +0.000 A 
ATOM      8  C   UNL     1       6.245   3.845  14.173  0.00  0.00    +0.000 A 
ATOM      9  C   UNL     1       5.207   3.413  14.989  0.00  0.00    +0.000 A 
ATOM     10  N   UNL     1       4.905   3.937  16.198  0.00  0.00    +0.000 NA
ATOM     11  C   UNL     1       5.663   4.974  16.664  0.00  0.00    +0.000 A 
ATOM     12  H   UNL     1       7.942   8.159  18.962  0.00  0.00    +0.000 HD
ATOM     13  H   UNL     1       8.958   7.979  17.582  0.00  0.00    +0.000 HD
ENDROOT
BRANCH   1  16
ATOM     14  C   UNL     1       2.871   4.593  19.878  0.00  0.00    +0.000 C 
ATOM     15  C   UNL     1       3.354   5.986  19.397  0.00  0.00    +0.000 C 
ATOM     16  N   UNL     1       4.413   5.284  18.752  0.00  0.00    +0.000 N 
ATOM     17  C   UNL     1       4.329   4.157  19.627  0.00  0.00    +0.000 C 
BRANCH  14  19
ATOM     18  C   UNL     1       1.875   3.403  21.710  0.00  0.00    +0.000 C 
ATOM     19  N   UNL     1       2.508   4.650  21.304  0.00  0.00    +0.000 NA
ATOM     20  H   UNL     1       3.278   4.875  21.936  0.00  0.00    +0.000 HD
ENDBRANCH  14  19
ENDBRANCH   1  16
BRANCH   8  21
ATOM     21  C   UNL     1       6.506   3.224  12.822  0.00  0.00    +0.000 C 
ATOM     22  C   UNL     1       5.506   3.444  11.705  0.00  0.00    +0.000 C 
ATOM     23  C   UNL     1       6.862   4.076  11.624  0.00  0.00    +0.000 C 
ENDBRANCH   8  21
TORSDOF 3
ENDMDL
MODEL 7
REMARK VINA RESULT:      -6.4      2.918      6.674
REMARK  Name = 
REMARK  4 active torsions:
REMARK  status: ('A' for Active; 'I' for Inactive)
REMARK    1  A    between atoms: C_1  and  N_2
REMARK    2  A    between atoms: N_2  and  C_3
REMARK    3  A    between atoms: N_5  and  C_6
REMARK    4  A    between atoms: C_13  and  C_14
REMARK                            x       y       z     vdW  Elec       q    Type
REMARK                         _______ _______ _______ _____ _____    ______ ____
ROOT
ATOM      1  C   UNL     1       4.760   4.738  17.601  0.00  0.00    +0.000 A 
ATOM      2  N   UNL     1       4.696   3.577  18.295  0.00  0.00    +0.000 NA
ATOM      3  C   UNL     1       3.903   3.540  19.364  0.00  0.00    +0.000 A 
ATOM      4  N   UNL     1       3.906   2.379  20.109  0.00  0.00    +0.000 N 
ATOM      5  N   UNL     1       3.157   4.556  19.786  0.00  0.00    +0.000 NA
ATOM      6  C   UNL     1       3.195   5.685  19.064  0.00  0.00    +0.000 A 
ATOM      7  C   UNL     1       2.369   6.742  19.442  0.00  0.00    +0.000 A 
ATOM      8  C   UNL     1       2.303   7.945  18.727  0.00  0.00    +0.000 A 
ATOM      9  C   UNL     1       3.171   8.033  17.647  0.00  0.00    +0.000 A 
ATOM     10  N   UNL     1       4.007   7.050  17.245  0.00  0.00    +0.000 NA
ATOM     11  C   UNL     1       4.004   5.872  17.937  0.00  0.00    +0.000 A 
ATOM     12  H   UNL     1       4.766   1.874  19.952  0.00  0.00    +0.000 HD
ATOM     13  H   UNL     1       3.661   2.583  21.069  0.00  0.00    +0.000 HD
ENDROOT
BRANCH   1  16
ATOM     14  C   UNL     1       6.933   4.552  14.953  0.00  0.00    +0.000 C 
ATOM     15  C   UNL     1       7.075   4.981  16.437  0.00  0.00    +0.000 C 
ATOM     16  N   UNL     1       5.672   4.748  16.533  0.00  0.00    +0.000 N 
ATOM     17  C   UNL     1       5.447   4.929  15.133  0.00  0.00    +0.000 C 
BRANCH  14  19
ATOM     18  C   UNL     1       7.723   4.967  12.725  0.00  0.00    +0.000 C 
ATOM     19  N   UNL     1       7.677   5.481  14.086  0.00  0.00    +0.000 NA
ATOM     20  H   UNL     1       7.332   6.442  14.088  0.00  0.00    +0.000 HD
ENDBRANCH  14  19
ENDBRANCH   1  16
BRANCH   8  21
ATOM     21  C   UNL     1       1.381   9.081  19.102  0.00  0.00    +0.000 C 
ATOM     22  C   UNL     1       1.590  10.439  18.464  0.00  0.00    +0.000 C 
ATOM     23  C   UNL     1       0.377   9.633  18.115  0.00  0.00    +0.000 C 
ENDBRANCH   8  21
TORSDOF 3
ENDMDL
MODEL 8
REMARK VINA RESULT:      -6.4      3.740      5.592
REMARK  Name = 
REMARK  4 active torsions:
REMARK  status: ('A' for Active; 'I' for Inactive)
REMARK    1  A    between atoms: C_1  and  N_2
REMARK    2  A    between atoms: N_2  and  C_3
REMARK    3  A    between atoms: N_5  and  C_6
REMARK    4  A    between atoms: C_13  and  C_14
REMARK                            x       y       z     vdW  Elec       q    Type
REMARK                         _______ _______ _______ _____ _____    ______ ____
ROOT
ATOM      1  C   UNL     1       1.900   6.532  19.974  0.00  0.00    +0.000 A 
ATOM      2  N   UNL     1       1.382   5.522  20.712  0.00  0.00    +0.000 NA
ATOM      3  C   UNL     1       1.700   4.277  20.363  0.00  0.00    +0.000 A 
ATOM      4  N   UNL     1       1.104   3.254  21.072  0.00  0.00    +0.000 N 
ATOM      5  N   UNL     1       2.504   3.957  19.354  0.00  0.00    +0.000 NA
ATOM      6  C   UNL     1       3.046   4.968  18.660  0.00  0.00    +0.000 A 
ATOM      7  C   UNL     1       3.948   4.664  17.642  0.00  0.00    +0.000 A 
ATOM      8  C   UNL     1       4.601   5.650  16.889  0.00  0.00    +0.000 A 
ATOM      9  C   UNL     1       4.235   6.956  17.190  0.00  0.00    +0.000 A 
ATOM     10  N   UNL     1       3.353   7.309  18.152  0.00  0.00    +0.000 NA
ATOM     11  C   UNL     1       2.777   6.321  18.899  0.00  0.00    +0.000 A 
ATOM     12  H   UNL     1       0.250   3.584  21.496  0.00  0.00    +0.000 HD
ATOM     13  H   UNL     1       1.041   2.426  20.495  0.00  0.00    +0.000 HD
ENDROOT
BRANCH   1  16
ATOM     14  C   UNL     1       0.652   9.586  20.913  0.00  0.00    +0.000 C 
ATOM     15  C   UNL     1       1.315   9.043  19.620  0.00  0.00    +0.000 C 
ATOM     16  N   UNL     1       1.468   7.819  20.334  0.00  0.00    +0.000 N 
ATOM     17  C   UNL     1       1.420   8.448  21.617  0.00  0.00    +0.000 C 
BRANCH  14  19
ATOM     18  C   UNL     1       0.071  11.853  21.449  0.00  0.00    +0.000 C 
ATOM     19  N   UNL     1       1.173  10.929  21.220  0.00  0.00    +0.000 NA
ATOM     20  H   UNL     1       1.831  10.967  22.000  0.00  0.00    +0.000 HD
ENDBRANCH  14  19
ENDBRANCH   1  16
BRANCH   8  21
ATOM     21  C   UNL     1       5.612   5.335  15.814  0.00  0.00    +0.000 C 
ATOM     22  C   UNL     1       6.952   4.750  16.211  0.00  0.00    +0.000 C 
ATOM     23  C   UNL     1       5.965   3.906  15.464  0.00  0.00    +0.000 C 
ENDBRANCH   8  21
TORSDOF 3
ENDMDL
MODEL 9
REMARK VINA RESULT:      -6.4      1.620      6.103
REMARK  Name = 
REMARK  4 active torsions:
REMARK  status: ('A' for Active; 'I' for Inactive)
REMARK    1  A    between atoms: C_1  and  N_2
REMARK    2  A    between atoms: N_2  and  C_3
REMARK    3  A    between atoms: N_5  and  C_6
REMARK    4  A    between atoms: C_13  and  C_14
REMARK                            x       y       z     vdW  Elec       q    Type
REMARK                         _______ _______ _______ _____ _____    ______ ____
ROOT
ATOM      1  C   UNL     1       6.149   5.211  16.034  0.00  0.00    +0.000 A 
ATOM      2  N   UNL     1       7.060   6.204  16.170  0.00  0.00    +0.000 NA
ATOM      3  C   UNL     1       7.054   6.895  17.308  0.00  0.00    +0.000 A 
ATOM      4  N   UNL     1       7.932   7.955  17.404  0.00  0.00    +0.000 N 
ATOM      5  N   UNL     1       6.230   6.666  18.326  0.00  0.00    +0.000 NA
ATOM      6  C   UNL     1       5.364   5.651  18.196  0.00  0.00    +0.000 A 
ATOM      7  C   UNL     1       4.537   5.344  19.275  0.00  0.00    +0.000 A 
ATOM      8  C   UNL     1       3.630   4.275  19.254  0.00  0.00    +0.000 A 
ATOM      9  C   UNL     1       3.570   3.581  18.052  0.00  0.00    +0.000 A 
ATOM     10  N   UNL     1       4.333   3.845  16.968  0.00  0.00    +0.000 NA
ATOM     11  C   UNL     1       5.242   4.863  17.047  0.00  0.00    +0.000 A 
ATOM     12  H   UNL     1       8.184   8.275  16.482  0.00  0.00    +0.000 HD
ATOM     13  H   UNL     1       7.570   8.646  18.048  0.00  0.00    +0.000 HD
ENDROOT
BRANCH   1  16
ATOM     14  C   UNL     1       6.037   3.821  12.900  0.00  0.00    +0.000 C 
ATOM     15  C   UNL     1       5.597   3.343  14.308  0.00  0.00    +0.000 C 
ATOM     16  N   UNL     1       6.145   4.569  14.785  0.00  0.00    +0.000 N 
ATOM     17  C   UNL     1       7.026   4.722  13.669  0.00  0.00    +0.000 C 
BRANCH  14  19
ATOM     18  C   UNL     1       5.705   1.998  11.373  0.00  0.00    +0.000 C 
ATOM     19  N   UNL     1       6.687   2.717  12.173  0.00  0.00    +0.000 NA
ATOM     20  H   UNL     1       7.480   2.993  11.592  0.00  0.00    +0.000 HD
ENDBRANCH  14  19
ENDBRANCH   1  16
BRANCH   8  21
ATOM     21  C   UNL     1       2.760   3.906  20.431  0.00  0.00    +0.000 C 
ATOM     22  C   UNL     1       1.312   4.353  20.445  0.00  0.00    +0.000 C 
ATOM     23  C   UNL     1       1.639   2.899  20.291  0.00  0.00    +0.000 C 
ENDBRANCH   8  21
TORSDOF 3
ENDMDL
