MODEL 1
REMARK VINA RESULT:      -7.3      0.000      0.000
REMARK  Name = 
REMARK  12 active torsions:
REMARK  status: ('A' for Active; 'I' for Inactive)
REMARK    1  A    between atoms: C_1  and  C_2
REMARK    2  A    between atoms: C_3  and  O_4
REMARK    3  A    between atoms: C_5  and  C_6
REMARK    4  A    between atoms: C_6  and  C_7
REMARK    5  A    between atoms: C_6  and  C_15
REMARK    6  A    between atoms: C_7  and  C_8
REMARK    7  A    between atoms: C_8  and  C_9
REMARK    8  A    between atoms: C_9  and  C_10
REMARK    9  A    between atoms: C_10  and  C_11
REMARK   10  A    between atoms: C_11  and  C_12
REMARK   11  A    between atoms: C_12  and  O_14
REMARK   12  A    between atoms: C_22  and  C_23
REMARK                            x       y       z     vdW  Elec       q    Type
REMARK                         _______ _______ _______ _____ _____    ______ ____
ROOT
ATOM      1  C   UNL     1       2.637   5.519  18.810  0.00  0.00    +0.000 C 
ENDROOT
BRANCH   1   5
ATOM      2  C   UNL     1       0.385   8.796  22.090  0.00  0.00    +0.000 C 
ATOM      3  C   UNL     1       1.108   8.519  20.803  0.00  0.00    +0.000 A 
ATOM      4  C   UNL     1       1.604   7.252  20.437  0.00  0.00    +0.000 A 
ATOM      5  C   UNL     1       2.169   6.956  19.161  0.00  0.00    +0.000 A 
ATOM      6  C   UNL     1       2.290   8.037  18.238  0.00  0.00    +0.000 A 
ATOM      7  C   UNL     1       2.772   7.907  16.816  0.00  0.00    +0.000 C 
ATOM      8  C   UNL     1       1.960   9.333  18.679  0.00  0.00    +0.000 A 
ATOM      9  C   UNL     1       1.353   9.560  19.924  0.00  0.00    +0.000 A 
ATOM     10  C   UNL     1       1.050  11.015  20.147  0.00  0.00    +0.000 C 
ATOM     11  C   UNL     1       1.545  11.656  18.864  0.00  0.00    +0.000 C 
ATOM     12  O   UNL     1       1.436  12.849  18.603  0.00  0.00    +0.000 OA
ATOM     13  C   UNL     1       2.211  10.636  17.959  0.00  0.00    +0.000 C 
BRANCH   4  14
ATOM     14  O   UNL     1       1.585   6.275  21.393  0.00  0.00    +0.000 OA
ATOM     15  H   UNL     1       1.329   5.448  20.955  0.00  0.00    +0.000 HD
ENDBRANCH   4  14
ENDBRANCH   1   5
BRANCH   1  16
ATOM     16  C   UNL     1       4.128   5.372  18.427  0.00  0.00    +0.000 A 
ATOM     17  C   UNL     1       5.127   5.680  19.368  0.00  0.00    +0.000 A 
ATOM     18  C   UNL     1       6.470   5.364  19.117  0.00  0.00    +0.000 A 
ATOM     19  C   UNL     1       6.828   4.769  17.916  0.00  0.00    +0.000 A 
ATOM     20  F   UNL     1       8.108   4.440  17.688  0.00  0.00    +0.000 F 
ATOM     21  C   UNL     1       5.872   4.471  16.964  0.00  0.00    +0.000 A 
ATOM     22  C   UNL     1       4.532   4.753  17.230  0.00  0.00    +0.000 A 
ENDBRANCH   1  16
BRANCH   1  23
ATOM     23  C   UNL     1       1.709   4.772  17.796  0.00  0.00    +0.000 C 
BRANCH  23  24
ATOM     24  C   UNL     1       1.072   3.515  18.419  0.00  0.00    +0.000 C 
BRANCH  24  25
ATOM     25  C   UNL     1       0.907   3.574  19.939  0.00  0.00    +0.000 C 
BRANCH  25  26
ATOM     26  C   UNL     1       1.634   2.376  20.563  0.00  0.00    +0.000 C 
BRANCH  26  27
ATOM     27  C   UNL     1       3.125   2.611  20.777  0.00  0.00    +0.000 C 
BRANCH  27  28
ATOM     28  C   UNL     1       3.939   1.961  19.672  0.00  0.00    +0.000 C 
ATOM     29  O   UNL     1       3.490   1.338  18.728  0.00  0.00    +0.000 OA
BRANCH  28  30
ATOM     30  O   UNL     1       5.268   2.153  19.838  0.00  0.00    +0.000 OA
ATOM     31  H   UNL     1       5.624   1.762  20.658  0.00  0.00    +0.000 HD
ENDBRANCH  28  30
ENDBRANCH  27  28
ENDBRANCH  26  27
ENDBRANCH  25  26
ENDBRANCH  24  25
ENDBRANCH  23  24
ENDBRANCH   1  23
TORSDOF 10
ENDMDL
MODEL 2
REMARK VINA RESULT:      -7.1      2.289      4.472
REMARK  Name = 
REMARK  12 active torsions:
REMARK  status: ('A' for Active; 'I' for Inactive)
REMARK    1  A    between atoms: C_1  and  C_2
REMARK    2  A    between atoms: C_3  and  O_4
REMARK    3  A    between atoms: C_5  and  C_6
REMARK    4  A    between atoms: C_6  and  C_7
REMARK    5  A    between atoms: C_6  and  C_15
REMARK    6  A    between atoms: C_7  and  C_8
REMARK    7  A    between atoms: C_8  and  C_9
REMARK    8  A    between atoms: C_9  and  C_10
REMARK    9  A    between atoms: C_10  and  C_11
REMARK   10  A    between atoms: C_11  and  C_12
REMARK   11  A    between atoms: C_12  and  O_14
REMARK   12  A    between atoms: C_22  and  C_23
REMARK                            x       y       z     vdW  Elec       q    Type
REMARK                         _______ _______ _______ _____ _____    ______ ____
ROOT
ATOM      1  C   UNL     1       2.696   7.067  18.028  0.00  0.00    +0.000 C 
ENDROOT
BRANCH   1   5
ATOM      2  C   UNL     1       1.076  11.917  18.669  0.00  0.00    +0.000 C 
ATOM      3  C   UNL     1       1.192  10.500  19.151  0.00  0.00    +0.000 A 
ATOM      4  C   UNL     1       1.766   9.458  18.397  0.00  0.00    +0.000 A 
ATOM      5  C   UNL     1       2.002   8.145  18.901  0.00  0.00    +0.000 A 
ATOM      6  C   UNL     1       1.563   7.872  20.232  0.00  0.00    +0.000 A 
ATOM      7  C   UNL     1       1.803   6.581  20.971  0.00  0.00    +0.000 C 
ATOM      8  C   UNL     1       0.829   8.865  20.910  0.00  0.00    +0.000 A 
ATOM      9  C   UNL     1       0.677  10.159  20.391  0.00  0.00    +0.000 A 
ATOM     10  C   UNL     1      -0.099  11.051  21.317  0.00  0.00    +0.000 C 
ATOM     11  C   UNL     1      -0.399  10.132  22.487  0.00  0.00    +0.000 C 
ATOM     12  O   UNL     1      -0.978  10.484  23.509  0.00  0.00    +0.000 OA
ATOM     13  C   UNL     1       0.089   8.721  22.218  0.00  0.00    +0.000 C 
BRANCH   4  14
ATOM     14  O   UNL     1       2.058   9.724  17.088  0.00  0.00    +0.000 OA
ATOM     15  H   UNL     1       2.846  10.289  17.077  0.00  0.00    +0.000 HD
ENDBRANCH   4  14
ENDBRANCH   1   5
BRANCH   1  16
ATOM     16  C   UNL     1       2.469   5.601  18.463  0.00  0.00    +0.000 A 
ATOM     17  C   UNL     1       1.417   4.857  17.900  0.00  0.00    +0.000 A 
ATOM     18  C   UNL     1       1.314   3.476  18.123  0.00  0.00    +0.000 A 
ATOM     19  C   UNL     1       2.242   2.836  18.931  0.00  0.00    +0.000 A 
ATOM     20  F   UNL     1       2.161   1.511  19.122  0.00  0.00    +0.000 F 
ATOM     21  C   UNL     1       3.277   3.542  19.515  0.00  0.00    +0.000 A 
ATOM     22  C   UNL     1       3.397   4.909  19.263  0.00  0.00    +0.000 A 
ENDBRANCH   1  16
BRANCH   1  23
ATOM     23  C   UNL     1       4.206   7.352  17.737  0.00  0.00    +0.000 C 
BRANCH  23  24
ATOM     24  C   UNL     1       4.660   6.740  16.398  0.00  0.00    +0.000 C 
BRANCH  24  25
ATOM     25  C   UNL     1       6.128   6.309  16.363  0.00  0.00    +0.000 C 
BRANCH  25  26
ATOM     26  C   UNL     1       6.892   7.064  17.458  0.00  0.00    +0.000 C 
BRANCH  26  27
ATOM     27  C   UNL     1       7.666   6.149  18.401  0.00  0.00    +0.000 C 
BRANCH  27  28
ATOM     28  C   UNL     1       7.565   4.702  17.955  0.00  0.00    +0.000 C 
ATOM     29  O   UNL     1       8.242   4.172  17.092  0.00  0.00    +0.000 OA
BRANCH  28  30
ATOM     30  O   UNL     1       6.616   4.022  18.640  0.00  0.00    +0.000 OA
ATOM     31  H   UNL     1       6.856   3.836  19.567  0.00  0.00    +0.000 HD
ENDBRANCH  28  30
ENDBRANCH  27  28
ENDBRANCH  26  27
ENDBRANCH  25  26
ENDBRANCH  24  25
ENDBRANCH  23  24
ENDBRANCH   1  23
TORSDOF 10
ENDMDL
MODEL 3
REMARK VINA RESULT:      -7.0      4.150      7.121
REMARK  Name = 
REMARK  12 active torsions:
REMARK  status: ('A' for Active; 'I' for Inactive)
REMARK    1  A    between atoms: C_1  and  C_2
REMARK    2  A    between atoms: C_3  and  O_4
REMARK    3  A    between atoms: C_5  and  C_6
REMARK    4  A    between atoms: C_6  and  C_7
REMARK    5  A    between atoms: C_6  and  C_15
REMARK    6  A    between atoms: C_7  and  C_8
REMARK    7  A    between atoms: C_8  and  C_9
REMARK    8  A    between atoms: C_9  and  C_10
REMARK    9  A    between atoms: C_10  and  C_11
REMARK   10  A    between atoms: C_11  and  C_12
REMARK   11  A    between atoms: C_12  and  O_14
REMARK   12  A    between atoms: C_22  and  C_23
REMARK                            x       y       z     vdW  Elec       q    Type
REMARK                         _______ _______ _______ _____ _____    ______ ____
ROOT
ATOM      1  C   UNL     1       5.941   6.494  16.924  0.00  0.00    +0.000 C 
ENDROOT
BRANCH   1   5
ATOM      2  C   UNL     1       1.529   7.870  19.204  0.00  0.00    +0.000 C 
ATOM      3  C   UNL     1       2.639   6.883  18.986  0.00  0.00    +0.000 A 
ATOM      4  C   UNL     1       3.678   7.062  18.052  0.00  0.00    +0.000 A 
ATOM      5  C   UNL     1       4.805   6.196  17.938  0.00  0.00    +0.000 A 
ATOM      6  C   UNL     1       4.831   5.049  18.787  0.00  0.00    +0.000 A 
ATOM      7  C   UNL     1       5.974   4.071  18.880  0.00  0.00    +0.000 C 
ATOM      8  C   UNL     1       3.703   4.784  19.586  0.00  0.00    +0.000 A 
ATOM      9  C   UNL     1       2.646   5.699  19.705  0.00  0.00    +0.000 A 
ATOM     10  C   UNL     1       1.585   5.216  20.652  0.00  0.00    +0.000 C 
ATOM     11  C   UNL     1       2.135   3.879  21.111  0.00  0.00    +0.000 C 
ATOM     12  O   UNL     1       1.597   3.163  21.948  0.00  0.00    +0.000 OA
ATOM     13  C   UNL     1       3.421   3.534  20.385  0.00  0.00    +0.000 C 
BRANCH   4  14
ATOM     14  O   UNL     1       3.554   8.102  17.173  0.00  0.00    +0.000 OA
ATOM     15  H   UNL     1       3.469   7.721  16.285  0.00  0.00    +0.000 HD
ENDBRANCH   4  14
ENDBRANCH   1   5
BRANCH   1  16
ATOM     16  C   UNL     1       6.095   5.479  15.769  0.00  0.00    +0.000 A 
ATOM     17  C   UNL     1       4.979   4.747  15.324  0.00  0.00    +0.000 A 
ATOM     18  C   UNL     1       5.046   3.977  14.155  0.00  0.00    +0.000 A 
ATOM     19  C   UNL     1       6.232   3.907  13.439  0.00  0.00    +0.000 A 
ATOM     20  F   UNL     1       6.288   3.193  12.305  0.00  0.00    +0.000 F 
ATOM     21  C   UNL     1       7.352   4.599  13.860  0.00  0.00    +0.000 A 
ATOM     22  C   UNL     1       7.274   5.393  15.004  0.00  0.00    +0.000 A 
ENDBRANCH   1  16
BRANCH   1  23
ATOM     23  C   UNL     1       7.321   6.823  17.585  0.00  0.00    +0.000 C 
BRANCH  23  24
ATOM     24  C   UNL     1       7.700   8.306  17.416  0.00  0.00    +0.000 C 
BRANCH  24  25
ATOM     25  C   UNL     1       8.530   8.884  18.566  0.00  0.00    +0.000 C 
BRANCH  25  26
ATOM     26  C   UNL     1       8.860  10.348  18.250  0.00  0.00    +0.000 C 
BRANCH  26  27
ATOM     27  C   UNL     1      10.014  10.905  19.077  0.00  0.00    +0.000 C 
BRANCH  27  28
ATOM     28  C   UNL     1      10.731  12.014  18.328  0.00  0.00    +0.000 C 
ATOM     29  O   UNL     1      10.700  13.198  18.607  0.00  0.00    +0.000 OA
BRANCH  28  30
ATOM     30  O   UNL     1      11.443  11.542  17.279  0.00  0.00    +0.000 OA
ATOM     31  H   UNL     1      10.894  11.171  16.563  0.00  0.00    +0.000 HD
ENDBRANCH  28  30
ENDBRANCH  27  28
ENDBRANCH  26  27
ENDBRANCH  25  26
ENDBRANCH  24  25
ENDBRANCH  23  24
ENDBRANCH   1  23
TORSDOF 10
ENDMDL
MODEL 4
REMARK VINA RESULT:      -6.9      1.476      2.466
REMARK  Name = 
REMARK  12 active torsions:
REMARK  status: ('A' for Active; 'I' for Inactive)
REMARK    1  A    between atoms: C_1  and  C_2
REMARK    2  A    between atoms: C_3  and  O_4
REMARK    3  A    between atoms: C_5  and  C_6
REMARK    4  A    between atoms: C_6  and  C_7
REMARK    5  A    between atoms: C_6  and  C_15
REMARK    6  A    between atoms: C_7  and  C_8
REMARK    7  A    between atoms: C_8  and  C_9
REMARK    8  A    between atoms: C_9  and  C_10
REMARK    9  A    between atoms: C_10  and  C_11
REMARK   10  A    between atoms: C_11  and  C_12
REMARK   11  A    between atoms: C_12  and  O_14
REMARK   12  A    between atoms: C_22  and  C_23
REMARK                            x       y       z     vdW  Elec       q    Type
REMARK                         _______ _______ _______ _____ _____    ______ ____
ROOT
ATOM      1  C   UNL     1       2.702   5.495  18.566  0.00  0.00    +0.000 C 
ENDROOT
BRANCH   1   5
ATOM      2  C   UNL     1       2.228  10.572  17.822  0.00  0.00    +0.000 C 
ATOM      3  C   UNL     1       2.006   9.344  18.656  0.00  0.00    +0.000 A 
ATOM      4  C   UNL     1       2.340   8.040  18.239  0.00  0.00    +0.000 A 
ATOM      5  C   UNL     1       2.257   6.890  19.078  0.00  0.00    +0.000 A 
ATOM      6  C   UNL     1       1.741   7.082  20.394  0.00  0.00    +0.000 A 
ATOM      7  C   UNL     1       1.663   6.014  21.455  0.00  0.00    +0.000 C 
ATOM      8  C   UNL     1       1.241   8.353  20.737  0.00  0.00    +0.000 A 
ATOM      9  C   UNL     1       1.401   9.465  19.895  0.00  0.00    +0.000 A 
ATOM     10  C   UNL     1       0.832  10.717  20.500  0.00  0.00    +0.000 C 
ATOM     11  C   UNL     1       0.306  10.229  21.837  0.00  0.00    +0.000 C 
ATOM     12  O   UNL     1      -0.196  10.956  22.686  0.00  0.00    +0.000 OA
ATOM     13  C   UNL     1       0.463   8.727  21.976  0.00  0.00    +0.000 C 
BRANCH   4  14
ATOM     14  O   UNL     1       2.711   7.879  16.933  0.00  0.00    +0.000 OA
ATOM     15  H   UNL     1       3.520   7.344  16.927  0.00  0.00    +0.000 HD
ENDBRANCH   4  14
ENDBRANCH   1   5
BRANCH   1  16
ATOM     16  C   UNL     1       4.176   5.382  18.114  0.00  0.00    +0.000 A 
ATOM     17  C   UNL     1       5.212   5.633  19.032  0.00  0.00    +0.000 A 
ATOM     18  C   UNL     1       6.545   5.343  18.707  0.00  0.00    +0.000 A 
ATOM     19  C   UNL     1       6.855   4.830  17.456  0.00  0.00    +0.000 A 
ATOM     20  F   UNL     1       8.126   4.526  17.154  0.00  0.00    +0.000 F 
ATOM     21  C   UNL     1       5.863   4.590  16.525  0.00  0.00    +0.000 A 
ATOM     22  C   UNL     1       4.533   4.847  16.863  0.00  0.00    +0.000 A 
ENDBRANCH   1  16
BRANCH   1  23
ATOM     23  C   UNL     1       1.731   4.856  17.518  0.00  0.00    +0.000 C 
BRANCH  23  24
ATOM     24  C   UNL     1       1.085   3.562  18.046  0.00  0.00    +0.000 C 
BRANCH  24  25
ATOM     25  C   UNL     1       2.053   2.388  18.206  0.00  0.00    +0.000 C 
BRANCH  25  26
ATOM     26  C   UNL     1       2.072   1.959  19.678  0.00  0.00    +0.000 C 
BRANCH  26  27
ATOM     27  C   UNL     1       3.060   2.748  20.531  0.00  0.00    +0.000 C 
BRANCH  27  28
ATOM     28  C   UNL     1       4.439   2.117  20.483  0.00  0.00    +0.000 C 
ATOM     29  O   UNL     1       4.998   1.553  21.406  0.00  0.00    +0.000 OA
BRANCH  28  30
ATOM     30  O   UNL     1       5.013   2.238  19.264  0.00  0.00    +0.000 OA
ATOM     31  H   UNL     1       5.108   3.161  18.962  0.00  0.00    +0.000 HD
ENDBRANCH  28  30
ENDBRANCH  27  28
ENDBRANCH  26  27
ENDBRANCH  25  26
ENDBRANCH  24  25
ENDBRANCH  23  24
ENDBRANCH   1  23
TORSDOF 10
ENDMDL
MODEL 5
REMARK VINA RESULT:      -6.9      1.751      2.766
REMARK  Name = 
REMARK  12 active torsions:
REMARK  status: ('A' for Active; 'I' for Inactive)
REMARK    1  A    between atoms: C_1  and  C_2
REMARK    2  A    between atoms: C_3  and  O_4
REMARK    3  A    between atoms: C_5  and  C_6
REMARK    4  A    between atoms: C_6  and  C_7
REMARK    5  A    between atoms: C_6  and  C_15
REMARK    6  A    between atoms: C_7  and  C_8
REMARK    7  A    between atoms: C_8  and  C_9
REMARK    8  A    between atoms: C_9  and  C_10
REMARK    9  A    between atoms: C_10  and  C_11
REMARK   10  A    between atoms: C_11  and  C_12
REMARK   11  A    between atoms: C_12  and  O_14
REMARK   12  A    between atoms: C_22  and  C_23
REMARK                            x       y       z     vdW  Elec       q    Type
REMARK                         _______ _______ _______ _____ _____    ______ ____
ROOT
ATOM      1  C   UNL     1       2.644   5.773  18.536  0.00  0.00    +0.000 C 
ENDROOT
BRANCH   1   5
ATOM      2  C   UNL     1       2.122  10.866  17.941  0.00  0.00    +0.000 C 
ATOM      3  C   UNL     1       1.909   9.611  18.737  0.00  0.00    +0.000 A 
ATOM      4  C   UNL     1       2.257   8.324  18.283  0.00  0.00    +0.000 A 
ATOM      5  C   UNL     1       2.183   7.148  19.087  0.00  0.00    +0.000 A 
ATOM      6  C   UNL     1       1.659   7.296  20.406  0.00  0.00    +0.000 A 
ATOM      7  C   UNL     1       1.587   6.196  21.434  0.00  0.00    +0.000 C 
ATOM      8  C   UNL     1       1.146   8.552  20.784  0.00  0.00    +0.000 A 
ATOM      9  C   UNL     1       1.298   9.689  19.977  0.00  0.00    +0.000 A 
ATOM     10  C   UNL     1       0.715  10.917  20.616  0.00  0.00    +0.000 C 
ATOM     11  C   UNL     1       0.188  10.385  21.935  0.00  0.00    +0.000 C 
ATOM     12  O   UNL     1      -0.326  11.081  22.804  0.00  0.00    +0.000 OA
ATOM     13  C   UNL     1       0.358   8.880  22.030  0.00  0.00    +0.000 C 
BRANCH   4  14
ATOM     14  O   UNL     1       2.636   8.205  16.974  0.00  0.00    +0.000 OA
ATOM     15  H   UNL     1       2.836   7.269  16.816  0.00  0.00    +0.000 HD
ENDBRANCH   4  14
ENDBRANCH   1   5
BRANCH   1  16
ATOM     16  C   UNL     1       4.140   5.664  18.166  0.00  0.00    +0.000 A 
ATOM     17  C   UNL     1       5.104   5.505  19.178  0.00  0.00    +0.000 A 
ATOM     18  C   UNL     1       6.435   5.202  18.861  0.00  0.00    +0.000 A 
ATOM     19  C   UNL     1       6.820   5.086  17.533  0.00  0.00    +0.000 A 
ATOM     20  F   UNL     1       8.087   4.768  17.230  0.00  0.00    +0.000 F 
ATOM     21  C   UNL     1       5.902   5.255  16.514  0.00  0.00    +0.000 A 
ATOM     22  C   UNL     1       4.570   5.522  16.833  0.00  0.00    +0.000 A 
ENDBRANCH   1  16
BRANCH   1  23
ATOM     23  C   UNL     1       1.730   5.197  17.404  0.00  0.00    +0.000 C 
BRANCH  23  24
ATOM     24  C   UNL     1       1.233   3.777  17.733  0.00  0.00    +0.000 C 
BRANCH  24  25
ATOM     25  C   UNL     1       2.339   2.724  17.832  0.00  0.00    +0.000 C 
BRANCH  25  26
ATOM     26  C   UNL     1       2.190   1.973  19.160  0.00  0.00    +0.000 C 
BRANCH  26  27
ATOM     27  C   UNL     1       1.297   2.688  20.168  0.00  0.00    +0.000 C 
BRANCH  27  28
ATOM     28  C   UNL     1       1.835   2.526  21.578  0.00  0.00    +0.000 C 
ATOM     29  O   UNL     1       3.009   2.426  21.886  0.00  0.00    +0.000 OA
BRANCH  28  30
ATOM     30  O   UNL     1       0.847   2.509  22.503  0.00  0.00    +0.000 OA
ATOM     31  H   UNL     1       0.876   3.260  23.125  0.00  0.00    +0.000 HD
ENDBRANCH  28  30
ENDBRANCH  27  28
ENDBRANCH  26  27
ENDBRANCH  25  26
ENDBRANCH  24  25
ENDBRANCH  23  24
ENDBRANCH   1  23
TORSDOF 10
ENDMDL
MODEL 6
REMARK VINA RESULT:      -6.8      2.805      4.711
REMARK  Name = 
REMARK  12 active torsions:
REMARK  status: ('A' for Active; 'I' for Inactive)
REMARK    1  A    between atoms: C_1  and  C_2
REMARK    2  A    between atoms: C_3  and  O_4
REMARK    3  A    between atoms: C_5  and  C_6
REMARK    4  A    between atoms: C_6  and  C_7
REMARK    5  A    between atoms: C_6  and  C_15
REMARK    6  A    between atoms: C_7  and  C_8
REMARK    7  A    between atoms: C_8  and  C_9
REMARK    8  A    between atoms: C_9  and  C_10
REMARK    9  A    between atoms: C_10  and  C_11
REMARK   10  A    between atoms: C_11  and  C_12
REMARK   11  A    between atoms: C_12  and  O_14
REMARK   12  A    between atoms: C_22  and  C_23
REMARK                            x       y       z     vdW  Elec       q    Type
REMARK                         _______ _______ _______ _____ _____    ______ ____
ROOT
ATOM      1  C   UNL     1       2.742   7.116  18.053  0.00  0.00    +0.000 C 
ENDROOT
BRANCH   1   5
ATOM      2  C   UNL     1       0.998  11.928  18.657  0.00  0.00    +0.000 C 
ATOM      3  C   UNL     1       1.146  10.516  19.146  0.00  0.00    +0.000 A 
ATOM      4  C   UNL     1       1.751   9.485  18.402  0.00  0.00    +0.000 A 
ATOM      5  C   UNL     1       2.015   8.181  18.915  0.00  0.00    +0.000 A 
ATOM      6  C   UNL     1       1.572   7.904  20.243  0.00  0.00    +0.000 A 
ATOM      7  C   UNL     1       1.838   6.623  20.992  0.00  0.00    +0.000 C 
ATOM      8  C   UNL     1       0.809   8.881  20.910  0.00  0.00    +0.000 A 
ATOM      9  C   UNL     1       0.629  10.169  20.384  0.00  0.00    +0.000 A 
ATOM     10  C   UNL     1      -0.176  11.046  21.300  0.00  0.00    +0.000 C 
ATOM     11  C   UNL     1      -0.462  10.126  22.472  0.00  0.00    +0.000 C 
ATOM     12  O   UNL     1      -1.057  10.468  23.487  0.00  0.00    +0.000 OA
ATOM     13  C   UNL     1       0.063   8.727  22.214  0.00  0.00    +0.000 C 
BRANCH   4  14
ATOM     14  O   UNL     1       2.047   9.751  17.094  0.00  0.00    +0.000 OA
ATOM     15  H   UNL     1       1.937   8.924  16.599  0.00  0.00    +0.000 HD
ENDBRANCH   4  14
ENDBRANCH   1   5
BRANCH   1  16
ATOM     16  C   UNL     1       2.516   5.644  18.469  0.00  0.00    +0.000 A 
ATOM     17  C   UNL     1       1.457   4.910  17.905  0.00  0.00    +0.000 A 
ATOM     18  C   UNL     1       1.354   3.527  18.109  0.00  0.00    +0.000 A 
ATOM     19  C   UNL     1       2.287   2.874  18.902  0.00  0.00    +0.000 A 
ATOM     20  F   UNL     1       2.205   1.546  19.074  0.00  0.00    +0.000 F 
ATOM     21  C   UNL     1       3.328   3.570  19.486  0.00  0.00    +0.000 A 
ATOM     22  C   UNL     1       3.449   4.940  19.252  0.00  0.00    +0.000 A 
ENDBRANCH   1  16
BRANCH   1  23
ATOM     23  C   UNL     1       4.258   7.415  17.807  0.00  0.00    +0.000 C 
BRANCH  23  24
ATOM     24  C   UNL     1       4.746   6.845  16.461  0.00  0.00    +0.000 C 
BRANCH  24  25
ATOM     25  C   UNL     1       5.759   5.705  16.586  0.00  0.00    +0.000 C 
BRANCH  25  26
ATOM     26  C   UNL     1       5.179   4.453  15.915  0.00  0.00    +0.000 C 
BRANCH  26  27
ATOM     27  C   UNL     1       6.222   3.618  15.179  0.00  0.00    +0.000 C 
BRANCH  27  28
ATOM     28  C   UNL     1       6.608   4.271  13.864  0.00  0.00    +0.000 C 
ATOM     29  O   UNL     1       7.338   5.236  13.734  0.00  0.00    +0.000 OA
BRANCH  28  30
ATOM     30  O   UNL     1       6.045   3.650  12.802  0.00  0.00    +0.000 OA
ATOM     31  H   UNL     1       6.460   2.796  12.579  0.00  0.00    +0.000 HD
ENDBRANCH  28  30
ENDBRANCH  27  28
ENDBRANCH  26  27
ENDBRANCH  25  26
ENDBRANCH  24  25
ENDBRANCH  23  24
ENDBRANCH   1  23
TORSDOF 10
ENDMDL
MODEL 7
REMARK VINA RESULT:      -6.8      0.865      1.267
REMARK  Name = 
REMARK  12 active torsions:
REMARK  status: ('A' for Active; 'I' for Inactive)
REMARK    1  A    between atoms: C_1  and  C_2
REMARK    2  A    between atoms: C_3  and  O_4
REMARK    3  A    between atoms: C_5  and  C_6
REMARK    4  A    between atoms: C_6  and  C_7
REMARK    5  A    between atoms: C_6  and  C_15
REMARK    6  A    between atoms: C_7  and  C_8
REMARK    7  A    between atoms: C_8  and  C_9
REMARK    8  A    between atoms: C_9  and  C_10
REMARK    9  A    between atoms: C_10  and  C_11
REMARK   10  A    between atoms: C_11  and  C_12
REMARK   11  A    between atoms: C_12  and  O_14
REMARK   12  A    between atoms: C_22  and  C_23
REMARK                            x       y       z     vdW  Elec       q    Type
REMARK                         _______ _______ _______ _____ _____    ______ ____
ROOT
ATOM      1  C   UNL     1       2.620   5.595  18.710  0.00  0.00    +0.000 C 
ENDROOT
BRANCH   1   5
ATOM      2  C   UNL     1       0.312   8.608  22.196  0.00  0.00    +0.000 C 
ATOM      3  C   UNL     1       1.036   8.429  20.893  0.00  0.00    +0.000 A 
ATOM      4  C   UNL     1       1.557   7.199  20.446  0.00  0.00    +0.000 A 
ATOM      5  C   UNL     1       2.123   6.996  19.153  0.00  0.00    +0.000 A 
ATOM      6  C   UNL     1       2.219   8.136  18.300  0.00  0.00    +0.000 A 
ATOM      7  C   UNL     1       2.700   8.107  16.872  0.00  0.00    +0.000 C 
ATOM      8  C   UNL     1       1.864   9.394  18.824  0.00  0.00    +0.000 A 
ATOM      9  C   UNL     1       1.256   9.529  20.081  0.00  0.00    +0.000 A 
ATOM     10  C   UNL     1       0.924  10.960  20.397  0.00  0.00    +0.000 C 
ATOM     11  C   UNL     1       1.402  11.692  19.156  0.00  0.00    +0.000 C 
ATOM     12  O   UNL     1       1.267  12.896  18.972  0.00  0.00    +0.000 OA
ATOM     13  C   UNL     1       2.085  10.745  18.188  0.00  0.00    +0.000 C 
BRANCH   4  14
ATOM     14  O   UNL     1       1.560   6.162  21.337  0.00  0.00    +0.000 OA
ATOM     15  H   UNL     1       2.479   5.866  21.432  0.00  0.00    +0.000 HD
ENDBRANCH   4  14
ENDBRANCH   1   5
BRANCH   1  16
ATOM     16  C   UNL     1       4.132   5.482  18.406  0.00  0.00    +0.000 A 
ATOM     17  C   UNL     1       5.058   5.432  19.464  0.00  0.00    +0.000 A 
ATOM     18  C   UNL     1       6.405   5.128  19.224  0.00  0.00    +0.000 A 
ATOM     19  C   UNL     1       6.843   4.901  17.927  0.00  0.00    +0.000 A 
ATOM     20  F   UNL     1       8.125   4.582  17.700  0.00  0.00    +0.000 F 
ATOM     21  C   UNL     1       5.962   4.961  16.864  0.00  0.00    +0.000 A 
ATOM     22  C   UNL     1       4.614   5.230  17.108  0.00  0.00    +0.000 A 
ENDBRANCH   1  16
BRANCH   1  23
ATOM     23  C   UNL     1       1.759   4.935  17.583  0.00  0.00    +0.000 C 
BRANCH  23  24
ATOM     24  C   UNL     1       1.304   3.514  17.963  0.00  0.00    +0.000 C 
BRANCH  24  25
ATOM     25  C   UNL     1       2.332   2.419  17.667  0.00  0.00    +0.000 C 
BRANCH  25  26
ATOM     26  C   UNL     1       2.780   1.789  18.992  0.00  0.00    +0.000 C 
BRANCH  26  27
ATOM     27  C   UNL     1       1.929   2.212  20.186  0.00  0.00    +0.000 C 
BRANCH  27  28
ATOM     28  C   UNL     1       2.804   2.552  21.379  0.00  0.00    +0.000 C 
ATOM     29  O   UNL     1       3.918   2.111  21.596  0.00  0.00    +0.000 OA
BRANCH  28  30
ATOM     30  O   UNL     1       2.208   3.434  22.214  0.00  0.00    +0.000 OA
ATOM     31  H   UNL     1       1.243   3.312  22.293  0.00  0.00    +0.000 HD
ENDBRANCH  28  30
ENDBRANCH  27  28
ENDBRANCH  26  27
ENDBRANCH  25  26
ENDBRANCH  24  25
ENDBRANCH  23  24
ENDBRANCH   1  23
TORSDOF 10
ENDMDL
MODEL 8
REMARK VINA RESULT:      -6.8      2.814      4.755
REMARK  Name = 
REMARK  12 active torsions:
REMARK  status: ('A' for Active; 'I' for Inactive)
REMARK    1  A    between atoms: C_1  and  C_2
REMARK    2  A    between atoms: C_3  and  O_4
REMARK    3  A    between atoms: C_5  and  C_6
REMARK    4  A    between atoms: C_6  and  C_7
REMARK    5  A    between atoms: C_6  and  C_15
REMARK    6  A    between atoms: C_7  and  C_8
REMARK    7  A    between atoms: C_8  and  C_9
REMARK    8  A    between atoms: C_9  and  C_10
REMARK    9  A    between atoms: C_10  and  C_11
REMARK   10  A    between atoms: C_11  and  C_12
REMARK   11  A    between atoms: C_12  and  O_14
REMARK   12  A    between atoms: C_22  and  C_23
REMARK                            x       y       z     vdW  Elec       q    Type
REMARK                         _______ _______ _______ _____ _____    ______ ____
ROOT
ATOM      1  C   UNL     1       3.305   6.334  18.069  0.00  0.00    +0.000 C 
ENDROOT
BRANCH   1   5
ATOM      2  C   UNL     1       1.264  11.061  18.300  0.00  0.00    +0.000 C 
ATOM      3  C   UNL     1       1.465   9.691  18.879  0.00  0.00    +0.000 A 
ATOM      4  C   UNL     1       2.165   8.657  18.228  0.00  0.00    +0.000 A 
ATOM      5  C   UNL     1       2.475   7.401  18.830  0.00  0.00    +0.000 A 
ATOM      6  C   UNL     1       1.979   7.174  20.149  0.00  0.00    +0.000 A 
ATOM      7  C   UNL     1       2.277   5.955  20.984  0.00  0.00    +0.000 C 
ATOM      8  C   UNL     1       1.128   8.141  20.718  0.00  0.00    +0.000 A 
ATOM      9  C   UNL     1       0.904   9.384  20.108  0.00  0.00    +0.000 A 
ATOM     10  C   UNL     1       0.004  10.262  20.929  0.00  0.00    +0.000 C 
ATOM     11  C   UNL     1      -0.291   9.394  22.138  0.00  0.00    +0.000 C 
ATOM     12  O   UNL     1      -0.957   9.757  23.101  0.00  0.00    +0.000 OA
ATOM     13  C   UNL     1       0.324   8.016  21.990  0.00  0.00    +0.000 C 
BRANCH   4  14
ATOM     14  O   UNL     1       2.514   8.866  16.922  0.00  0.00    +0.000 OA
ATOM     15  H   UNL     1       3.470   9.025  16.901  0.00  0.00    +0.000 HD
ENDBRANCH   4  14
ENDBRANCH   1   5
BRANCH   1  16
ATOM     16  C   UNL     1       2.817   4.874  18.212  0.00  0.00    +0.000 A 
ATOM     17  C   UNL     1       3.665   3.903  18.773  0.00  0.00    +0.000 A 
ATOM     18  C   UNL     1       3.180   2.628  19.098  0.00  0.00    +0.000 A 
ATOM     19  C   UNL     1       1.856   2.305  18.837  0.00  0.00    +0.000 A 
ATOM     20  F   UNL     1       1.384   1.096  19.173  0.00  0.00    +0.000 F 
ATOM     21  C   UNL     1       1.002   3.231  18.268  0.00  0.00    +0.000 A 
ATOM     22  C   UNL     1       1.478   4.510  17.978  0.00  0.00    +0.000 A 
ENDBRANCH   1  16
BRANCH   1  23
ATOM     23  C   UNL     1       4.850   6.446  18.290  0.00  0.00    +0.000 C 
BRANCH  23  24
ATOM     24  C   UNL     1       5.612   6.592  16.960  0.00  0.00    +0.000 C 
BRANCH  24  25
ATOM     25  C   UNL     1       7.100   6.242  17.040  0.00  0.00    +0.000 C 
BRANCH  25  26
ATOM     26  C   UNL     1       7.285   4.771  16.644  0.00  0.00    +0.000 C 
BRANCH  26  27
ATOM     27  C   UNL     1       6.209   4.257  15.692  0.00  0.00    +0.000 C 
BRANCH  27  28
ATOM     28  C   UNL     1       6.647   4.415  14.247  0.00  0.00    +0.000 C 
ATOM     29  O   UNL     1       6.142   3.865  13.285  0.00  0.00    +0.000 OA
BRANCH  28  30
ATOM     30  O   UNL     1       7.691   5.266  14.120  0.00  0.00    +0.000 OA
ATOM     31  H   UNL     1       8.200   5.391  14.942  0.00  0.00    +0.000 HD
ENDBRANCH  28  30
ENDBRANCH  27  28
ENDBRANCH  26  27
ENDBRANCH  25  26
ENDBRANCH  24  25
ENDBRANCH  23  24
ENDBRANCH   1  23
TORSDOF 10
ENDMDL
MODEL 9
REMARK VINA RESULT:      -6.7      3.394      6.076
REMARK  Name = 
REMARK  12 active torsions:
REMARK  status: ('A' for Active; 'I' for Inactive)
REMARK    1  A    between atoms: C_1  and  C_2
REMARK    2  A    between atoms: C_3  and  O_4
REMARK    3  A    between atoms: C_5  and  C_6
REMARK    4  A    between atoms: C_6  and  C_7
REMARK    5  A    between atoms: C_6  and  C_15
REMARK    6  A    between atoms: C_7  and  C_8
REMARK    7  A    between atoms: C_8  and  C_9
REMARK    8  A    between atoms: C_9  and  C_10
REMARK    9  A    between atoms: C_10  and  C_11
REMARK   10  A    between atoms: C_11  and  C_12
REMARK   11  A    between atoms: C_12  and  O_14
REMARK   12  A    between atoms: C_22  and  C_23
REMARK                            x       y       z     vdW  Elec       q    Type
REMARK                         _______ _______ _______ _____ _____    ______ ____
ROOT
ATOM      1  C   UNL     1       5.736   5.558  17.189  0.00  0.00    +0.000 C 
ENDROOT
BRANCH   1   5
ATOM      2  C   UNL     1       1.731   7.496  19.790  0.00  0.00    +0.000 C 
ATOM      3  C   UNL     1       2.610   6.341  19.409  0.00  0.00    +0.000 A 
ATOM      4  C   UNL     1       3.652   6.424  18.464  0.00  0.00    +0.000 A 
ATOM      5  C   UNL     1       4.575   5.369  18.200  0.00  0.00    +0.000 A 
ATOM      6  C   UNL     1       4.372   4.140  18.897  0.00  0.00    +0.000 A 
ATOM      7  C   UNL     1       5.289   2.946  18.824  0.00  0.00    +0.000 C 
ATOM      8  C   UNL     1       3.222   4.009  19.699  0.00  0.00    +0.000 A 
ATOM      9  C   UNL     1       2.380   5.097  19.972  0.00  0.00    +0.000 A 
ATOM     10  C   UNL     1       1.253   4.721  20.892  0.00  0.00    +0.000 C 
ATOM     11  C   UNL     1       1.519   3.252  21.158  0.00  0.00    +0.000 C 
ATOM     12  O   UNL     1       0.854   2.558  21.919  0.00  0.00    +0.000 OA
ATOM     13  C   UNL     1       2.697   2.749  20.346  0.00  0.00    +0.000 C 
BRANCH   4  14
ATOM     14  O   UNL     1       3.736   7.573  17.728  0.00  0.00    +0.000 OA
ATOM     15  H   UNL     1       3.593   7.332  16.800  0.00  0.00    +0.000 HD
ENDBRANCH   4  14
ENDBRANCH   1   5
BRANCH   1  16
ATOM     16  C   UNL     1       6.851   6.538  17.620  0.00  0.00    +0.000 A 
ATOM     17  C   UNL     1       6.924   7.817  17.037  0.00  0.00    +0.000 A 
ATOM     18  C   UNL     1       7.792   8.790  17.551  0.00  0.00    +0.000 A 
ATOM     19  C   UNL     1       8.614   8.486  18.627  0.00  0.00    +0.000 A 
ATOM     20  F   UNL     1       9.424   9.426  19.136  0.00  0.00    +0.000 F 
ATOM     21  C   UNL     1       8.579   7.233  19.209  0.00  0.00    +0.000 A 
ATOM     22  C   UNL     1       7.689   6.277  18.719  0.00  0.00    +0.000 A 
ENDBRANCH   1  16
BRANCH   1  23
ATOM     23  C   UNL     1       5.270   5.830  15.720  0.00  0.00    +0.000 C 
BRANCH  23  24
ATOM     24  C   UNL     1       5.041   4.523  14.938  0.00  0.00    +0.000 C 
BRANCH  24  25
ATOM     25  C   UNL     1       6.322   3.848  14.442  0.00  0.00    +0.000 C 
BRANCH  25  26
ATOM     26  C   UNL     1       6.765   4.526  13.139  0.00  0.00    +0.000 C 
BRANCH  26  27
ATOM     27  C   UNL     1       6.898   3.561  11.965  0.00  0.00    +0.000 C 
BRANCH  27  28
ATOM     28  C   UNL     1       5.596   2.816  11.728  0.00  0.00    +0.000 C 
ATOM     29  O   UNL     1       4.499   3.324  11.589  0.00  0.00    +0.000 OA
BRANCH  28  30
ATOM     30  O   UNL     1       5.778   1.476  11.677  0.00  0.00    +0.000 OA
ATOM     31  H   UNL     1       6.014   1.143  10.791  0.00  0.00    +0.000 HD
ENDBRANCH  28  30
ENDBRANCH  27  28
ENDBRANCH  26  27
ENDBRANCH  25  26
ENDBRANCH  24  25
ENDBRANCH  23  24
ENDBRANCH   1  23
TORSDOF 10
ENDMDL
