MODEL 1
REMARK VINA RESULT:      -7.3      0.000      0.000
REMARK  Name = 
REMARK  16 active torsions:
REMARK  status: ('A' for Active; 'I' for Inactive)
REMARK    1  A    between atoms: C_1  and  C_2
REMARK    2  A    between atoms: C_2  and  C_3
REMARK    3  A    between atoms: C_3  and  C_4
REMARK    4  A    between atoms: C_3  and  C_5
REMARK    5  A    between atoms: C_5  and  N_6
REMARK    6  A    between atoms: C_5  and  C_33
REMARK    7  A    between atoms: C_7  and  C_9
REMARK    8  A    between atoms: C_9  and  N_10
REMARK    9  A    between atoms: C_9  and  C_30
REMARK   10  A    between atoms: C_11  and  C_13
REMARK   11  A    between atoms: C_13  and  C_15
REMARK   12  A    between atoms: C_16  and  C_17
REMARK   13  A    between atoms: C_30  and  C_31
REMARK   14  A    between atoms: C_30  and  C_32
REMARK   15  A    between atoms: C_33  and  O_35
REMARK   16  A    between atoms: O_35  and  C_36
REMARK                            x       y       z     vdW  Elec       q    Type
REMARK                         _______ _______ _______ _____ _____    ______ ____
ROOT
ATOM      1  N   UNL     1       2.492   7.698  18.619  0.00  0.00    +0.000 N 
ATOM      2  C   UNL     1       1.748   8.722  19.165  0.00  0.00    +0.000 C 
ATOM      3  O   UNL     1       1.258   8.708  20.284  0.00  0.00    +0.000 OA
ATOM      4  H   UNL     1       3.072   7.942  17.820  0.00  0.00    +0.000 HD
ENDROOT
BRANCH   2   5
ATOM      5  C   UNL     1       1.613   9.939  18.256  0.00  0.00    +0.000 C 
ATOM      6  O   UNL     1       2.435  10.019  17.344  0.00  0.00    +0.000 OA
BRANCH   5   7
ATOM      7  C   UNL     1       0.508  10.876  18.440  0.00  0.00    +0.000 A 
ATOM      8  C   UNL     1       0.620  12.218  18.816  0.00  0.00    +0.000 A 
ATOM      9  N   UNL     1      -0.653  12.746  18.732  0.00  0.00    +0.000 N 
ATOM     10  C   UNL     1      -1.573  11.791  18.366  0.00  0.00    +0.000 A 
ATOM     11  C   UNL     1      -2.953  11.906  18.156  0.00  0.00    +0.000 A 
ATOM     12  C   UNL     1      -3.657  10.749  17.812  0.00  0.00    +0.000 A 
ATOM     13  C   UNL     1      -3.003   9.527  17.685  0.00  0.00    +0.000 A 
ATOM     14  C   UNL     1      -1.622   9.439  17.877  0.00  0.00    +0.000 A 
ATOM     15  C   UNL     1      -0.884  10.595  18.222  0.00  0.00    +0.000 A 
ATOM     16  H   UNL     1      -0.890  13.709  18.934  0.00  0.00    +0.000 HD
BRANCH   8  17
ATOM     17  C   UNL     1       1.782  13.020  19.241  0.00  0.00    +0.000 A 
ATOM     18  C   UNL     1       2.648  13.614  18.310  0.00  0.00    +0.000 A 
ATOM     19  C   UNL     1       3.788  14.308  18.734  0.00  0.00    +0.000 A 
ATOM     20  C   UNL     1       4.081  14.414  20.091  0.00  0.00    +0.000 A 
ATOM     21  C   UNL     1       3.213  13.866  21.028  0.00  0.00    +0.000 A 
ATOM     22  C   UNL     1       2.063  13.197  20.604  0.00  0.00    +0.000 A 
ENDBRANCH   8  17
ENDBRANCH   5   7
ENDBRANCH   2   5
BRANCH   1  23
ATOM     23  C   UNL     1       2.750   6.451  19.336  0.00  0.00    +0.000 C 
BRANCH  23  25
ATOM     24  N   UNL     1       4.675   6.404  17.803  0.00  0.00    +0.000 N 
ATOM     25  C   UNL     1       4.122   5.853  18.936  0.00  0.00    +0.000 C 
ATOM     26  O   UNL     1       4.718   5.019  19.614  0.00  0.00    +0.000 OA
ATOM     27  H   UNL     1       4.312   7.302  17.485  0.00  0.00    +0.000 HD
BRANCH  24  28
ATOM     28  C   UNL     1       5.970   5.981  17.262  0.00  0.00    +0.000 C 
BRANCH  28  29
ATOM     29  C   UNL     1       5.991   6.034  15.709  0.00  0.00    +0.000 C 
ATOM     30  C   UNL     1       4.830   6.877  15.160  0.00  0.00    +0.000 C 
BRANCH  29  32
ATOM     31  C   UNL     1       5.634   3.514  16.087  0.00  0.00    +0.000 C 
ATOM     32  C   UNL     1       6.002   4.614  15.098  0.00  0.00    +0.000 C 
ENDBRANCH  29  32
ENDBRANCH  28  29
BRANCH  28  33
ATOM     33  C   UNL     1       7.134   6.801  17.856  0.00  0.00    +0.000 C 
ATOM     34  O   UNL     1       7.899   6.387  18.718  0.00  0.00    +0.000 OA
BRANCH  33  35
ATOM     35  O   UNL     1       7.210   8.039  17.286  0.00  0.00    +0.000 OA
ATOM     36  C   UNL     1       8.136   8.927  17.913  0.00  0.00    +0.000 C 
ENDBRANCH  33  35
ENDBRANCH  28  33
ENDBRANCH  24  28
ENDBRANCH  23  25
BRANCH  23  37
ATOM     37  C   UNL     1       1.583   5.446  19.183  0.00  0.00    +0.000 C 
ATOM     38  C   UNL     1       1.785   4.552  17.953  0.00  0.00    +0.000 C 
ATOM     39  C   UNL     1       1.351   4.561  20.413  0.00  0.00    +0.000 C 
ENDBRANCH  23  37
ENDBRANCH   1  23
TORSDOF 11
ENDMDL
MODEL 2
REMARK VINA RESULT:      -7.3      2.790      5.433
REMARK  Name = 
REMARK  16 active torsions:
REMARK  status: ('A' for Active; 'I' for Inactive)
REMARK    1  A    between atoms: C_1  and  C_2
REMARK    2  A    between atoms: C_2  and  C_3
REMARK    3  A    between atoms: C_3  and  C_4
REMARK    4  A    between atoms: C_3  and  C_5
REMARK    5  A    between atoms: C_5  and  N_6
REMARK    6  A    between atoms: C_5  and  C_33
REMARK    7  A    between atoms: C_7  and  C_9
REMARK    8  A    between atoms: C_9  and  N_10
REMARK    9  A    between atoms: C_9  and  C_30
REMARK   10  A    between atoms: C_11  and  C_13
REMARK   11  A    between atoms: C_13  and  C_15
REMARK   12  A    between atoms: C_16  and  C_17
REMARK   13  A    between atoms: C_30  and  C_31
REMARK   14  A    between atoms: C_30  and  C_32
REMARK   15  A    between atoms: C_33  and  O_35
REMARK   16  A    between atoms: O_35  and  C_36
REMARK                            x       y       z     vdW  Elec       q    Type
REMARK                         _______ _______ _______ _____ _____    ______ ____
ROOT
ATOM      1  N   UNL     1       0.487  10.520  19.781  0.00  0.00    +0.000 N 
ATOM      2  C   UNL     1       0.657  11.820  20.207  0.00  0.00    +0.000 C 
ATOM      3  O   UNL     1       1.587  12.211  20.896  0.00  0.00    +0.000 OA
ATOM      4  H   UNL     1      -0.145  10.386  18.996  0.00  0.00    +0.000 HD
ENDROOT
BRANCH   2   5
ATOM      5  C   UNL     1      -0.413  12.781  19.701  0.00  0.00    +0.000 C 
ATOM      6  O   UNL     1      -0.076  13.516  18.774  0.00  0.00    +0.000 OA
BRANCH   5   7
ATOM      7  C   UNL     1      -1.764  12.734  20.252  0.00  0.00    +0.000 A 
ATOM      8  C   UNL     1      -2.866  12.093  19.677  0.00  0.00    +0.000 A 
ATOM      9  N   UNL     1      -3.889  12.189  20.600  0.00  0.00    +0.000 N 
ATOM     10  C   UNL     1      -3.500  12.901  21.712  0.00  0.00    +0.000 A 
ATOM     11  C   UNL     1      -4.217  13.214  22.874  0.00  0.00    +0.000 A 
ATOM     12  C   UNL     1      -3.575  13.987  23.846  0.00  0.00    +0.000 A 
ATOM     13  C   UNL     1      -2.268  14.426  23.658  0.00  0.00    +0.000 A 
ATOM     14  C   UNL     1      -1.563  14.083  22.502  0.00  0.00    +0.000 A 
ATOM     15  C   UNL     1      -2.188  13.299  21.504  0.00  0.00    +0.000 A 
ATOM     16  H   UNL     1      -4.816  11.805  20.472  0.00  0.00    +0.000 HD
BRANCH   8  17
ATOM     17  C   UNL     1      -3.037  11.426  18.375  0.00  0.00    +0.000 A 
ATOM     18  C   UNL     1      -2.116  10.478  17.904  0.00  0.00    +0.000 A 
ATOM     19  C   UNL     1      -2.257   9.911  16.632  0.00  0.00    +0.000 A 
ATOM     20  C   UNL     1      -3.317  10.287  15.810  0.00  0.00    +0.000 A 
ATOM     21  C   UNL     1      -4.261  11.194  16.275  0.00  0.00    +0.000 A 
ATOM     22  C   UNL     1      -4.132  11.738  17.555  0.00  0.00    +0.000 A 
ENDBRANCH   8  17
ENDBRANCH   5   7
ENDBRANCH   2   5
BRANCH   1  23
ATOM     23  C   UNL     1       1.414   9.451  20.145  0.00  0.00    +0.000 C 
BRANCH  23  25
ATOM     24  N   UNL     1       2.330   7.361  19.223  0.00  0.00    +0.000 N 
ATOM     25  C   UNL     1       1.768   8.578  18.915  0.00  0.00    +0.000 C 
ATOM     26  O   UNL     1       1.494   8.897  17.760  0.00  0.00    +0.000 OA
ATOM     27  H   UNL     1       2.223   7.014  20.176  0.00  0.00    +0.000 HD
BRANCH  24  28
ATOM     28  C   UNL     1       2.731   6.387  18.202  0.00  0.00    +0.000 C 
BRANCH  28  29
ATOM     29  C   UNL     1       4.276   6.298  18.067  0.00  0.00    +0.000 C 
ATOM     30  C   UNL     1       4.701   6.100  16.604  0.00  0.00    +0.000 C 
BRANCH  29  32
ATOM     31  C   UNL     1       6.341   5.373  19.292  0.00  0.00    +0.000 C 
ATOM     32  C   UNL     1       4.859   5.196  18.982  0.00  0.00    +0.000 C 
ENDBRANCH  29  32
ENDBRANCH  28  29
BRANCH  28  33
ATOM     33  C   UNL     1       2.120   4.996  18.468  0.00  0.00    +0.000 C 
ATOM     34  O   UNL     1       2.007   4.120  17.620  0.00  0.00    +0.000 OA
BRANCH  33  35
ATOM     35  O   UNL     1       1.739   4.863  19.772  0.00  0.00    +0.000 OA
ATOM     36  C   UNL     1       1.032   3.657  20.064  0.00  0.00    +0.000 C 
ENDBRANCH  33  35
ENDBRANCH  28  33
ENDBRANCH  24  28
ENDBRANCH  23  25
BRANCH  23  37
ATOM     37  C   UNL     1       0.895   8.623  21.345  0.00  0.00    +0.000 C 
ATOM     38  C   UNL     1       1.449   9.166  22.669  0.00  0.00    +0.000 C 
ATOM     39  C   UNL     1      -0.633   8.540  21.437  0.00  0.00    +0.000 C 
ENDBRANCH  23  37
ENDBRANCH   1  23
TORSDOF 11
ENDMDL
MODEL 3
REMARK VINA RESULT:      -7.2      2.678      5.423
REMARK  Name = 
REMARK  16 active torsions:
REMARK  status: ('A' for Active; 'I' for Inactive)
REMARK    1  A    between atoms: C_1  and  C_2
REMARK    2  A    between atoms: C_2  and  C_3
REMARK    3  A    between atoms: C_3  and  C_4
REMARK    4  A    between atoms: C_3  and  C_5
REMARK    5  A    between atoms: C_5  and  N_6
REMARK    6  A    between atoms: C_5  and  C_33
REMARK    7  A    between atoms: C_7  and  C_9
REMARK    8  A    between atoms: C_9  and  N_10
REMARK    9  A    between atoms: C_9  and  C_30
REMARK   10  A    between atoms: C_11  and  C_13
REMARK   11  A    between atoms: C_13  and  C_15
REMARK   12  A    between atoms: C_16  and  C_17
REMARK   13  A    between atoms: C_30  and  C_31
REMARK   14  A    between atoms: C_30  and  C_32
REMARK   15  A    between atoms: C_33  and  O_35
REMARK   16  A    between atoms: O_35  and  C_36
REMARK                            x       y       z     vdW  Elec       q    Type
REMARK                         _______ _______ _______ _____ _____    ______ ____
ROOT
ATOM      1  N   UNL     1       0.614  10.336  19.665  0.00  0.00    +0.000 N 
ATOM      2  C   UNL     1       0.935  11.664  19.851  0.00  0.00    +0.000 C 
ATOM      3  O   UNL     1       2.000  12.069  20.292  0.00  0.00    +0.000 OA
ATOM      4  H   UNL     1      -0.163  10.147  19.038  0.00  0.00    +0.000 HD
ENDROOT
BRANCH   2   5
ATOM      5  C   UNL     1      -0.157  12.631  19.406  0.00  0.00    +0.000 C 
ATOM      6  O   UNL     1       0.124  13.351  18.449  0.00  0.00    +0.000 OA
BRANCH   5   7
ATOM      7  C   UNL     1      -1.468  12.606  20.048  0.00  0.00    +0.000 A 
ATOM      8  C   UNL     1      -2.634  12.046  19.516  0.00  0.00    +0.000 A 
ATOM      9  N   UNL     1      -3.586  12.127  20.513  0.00  0.00    +0.000 N 
ATOM     10  C   UNL     1      -3.091  12.753  21.634  0.00  0.00    +0.000 A 
ATOM     11  C   UNL     1      -3.713  13.024  22.860  0.00  0.00    +0.000 A 
ATOM     12  C   UNL     1      -2.971  13.709  23.827  0.00  0.00    +0.000 A 
ATOM     13  C   UNL     1      -1.662  14.105  23.573  0.00  0.00    +0.000 A 
ATOM     14  C   UNL     1      -1.054  13.805  22.352  0.00  0.00    +0.000 A 
ATOM     15  C   UNL     1      -1.780  13.109  21.357  0.00  0.00    +0.000 A 
ATOM     16  H   UNL     1      -4.537  11.789  20.430  0.00  0.00    +0.000 HD
BRANCH   8  17
ATOM     17  C   UNL     1      -2.924  11.467  18.193  0.00  0.00    +0.000 A 
ATOM     18  C   UNL     1      -4.093  11.790  17.486  0.00  0.00    +0.000 A 
ATOM     19  C   UNL     1      -4.386  11.172  16.265  0.00  0.00    +0.000 A 
ATOM     20  C   UNL     1      -3.519  10.218  15.734  0.00  0.00    +0.000 A 
ATOM     21  C   UNL     1      -2.339   9.915  16.401  0.00  0.00    +0.000 A 
ATOM     22  C   UNL     1      -2.036  10.553  17.607  0.00  0.00    +0.000 A 
ENDBRANCH   8  17
ENDBRANCH   5   7
ENDBRANCH   2   5
BRANCH   1  23
ATOM     23  C   UNL     1       1.532   9.255  20.014  0.00  0.00    +0.000 C 
BRANCH  23  25
ATOM     24  N   UNL     1       2.209   7.062  19.124  0.00  0.00    +0.000 N 
ATOM     25  C   UNL     1       1.794   8.333  18.797  0.00  0.00    +0.000 C 
ATOM     26  O   UNL     1       1.569   8.667  17.636  0.00  0.00    +0.000 OA
ATOM     27  H   UNL     1       2.054   6.742  20.079  0.00  0.00    +0.000 HD
BRANCH  24  28
ATOM     28  C   UNL     1       2.504   6.037  18.118  0.00  0.00    +0.000 C 
BRANCH  28  29
ATOM     29  C   UNL     1       4.024   5.723  18.043  0.00  0.00    +0.000 C 
ATOM     30  C   UNL     1       4.625   5.515  19.442  0.00  0.00    +0.000 C 
BRANCH  29  32
ATOM     31  C   UNL     1       5.202   6.380  15.852  0.00  0.00    +0.000 C 
ATOM     32  C   UNL     1       4.786   6.812  17.253  0.00  0.00    +0.000 C 
ENDBRANCH  29  32
ENDBRANCH  28  29
BRANCH  28  33
ATOM     33  C   UNL     1       1.688   4.750  18.357  0.00  0.00    +0.000 C 
ATOM     34  O   UNL     1       1.412   3.937  17.483  0.00  0.00    +0.000 OA
BRANCH  33  35
ATOM     35  O   UNL     1       1.328   4.627  19.668  0.00  0.00    +0.000 OA
ATOM     36  C   UNL     1       1.188   3.281  20.122  0.00  0.00    +0.000 C 
ENDBRANCH  33  35
ENDBRANCH  28  33
ENDBRANCH  24  28
ENDBRANCH  23  25
BRANCH  23  37
ATOM     37  C   UNL     1       1.061   8.481  21.269  0.00  0.00    +0.000 C 
ATOM     38  C   UNL     1       1.597   9.133  22.551  0.00  0.00    +0.000 C 
ATOM     39  C   UNL     1      -0.460   8.333  21.381  0.00  0.00    +0.000 C 
ENDBRANCH  23  37
ENDBRANCH   1  23
TORSDOF 11
ENDMDL
MODEL 4
REMARK VINA RESULT:      -7.2      2.794      4.691
REMARK  Name = 
REMARK  16 active torsions:
REMARK  status: ('A' for Active; 'I' for Inactive)
REMARK    1  A    between atoms: C_1  and  C_2
REMARK    2  A    between atoms: C_2  and  C_3
REMARK    3  A    between atoms: C_3  and  C_4
REMARK    4  A    between atoms: C_3  and  C_5
REMARK    5  A    between atoms: C_5  and  N_6
REMARK    6  A    between atoms: C_5  and  C_33
REMARK    7  A    between atoms: C_7  and  C_9
REMARK    8  A    between atoms: C_9  and  N_10
REMARK    9  A    between atoms: C_9  and  C_30
REMARK   10  A    between atoms: C_11  and  C_13
REMARK   11  A    between atoms: C_13  and  C_15
REMARK   12  A    between atoms: C_16  and  C_17
REMARK   13  A    between atoms: C_30  and  C_31
REMARK   14  A    between atoms: C_30  and  C_32
REMARK   15  A    between atoms: C_33  and  O_35
REMARK   16  A    between atoms: O_35  and  C_36
REMARK                            x       y       z     vdW  Elec       q    Type
REMARK                         _______ _______ _______ _____ _____    ______ ____
ROOT
ATOM      1  N   UNL     1       0.696  10.393  19.342  0.00  0.00    +0.000 N 
ATOM      2  C   UNL     1       0.704  11.631  19.949  0.00  0.00    +0.000 C 
ATOM      3  O   UNL     1       1.417  11.941  20.890  0.00  0.00    +0.000 OA
ATOM      4  H   UNL     1       0.284  10.352  18.414  0.00  0.00    +0.000 HD
ENDROOT
BRANCH   2   5
ATOM      5  C   UNL     1      -0.245  12.639  19.308  0.00  0.00    +0.000 C 
ATOM      6  O   UNL     1       0.281  13.654  18.855  0.00  0.00    +0.000 OA
BRANCH   5   7
ATOM      7  C   UNL     1      -1.667  12.333  19.181  0.00  0.00    +0.000 A 
ATOM      8  C   UNL     1      -2.660  12.631  20.120  0.00  0.00    +0.000 A 
ATOM      9  N   UNL     1      -3.860  12.289  19.529  0.00  0.00    +0.000 N 
ATOM     10  C   UNL     1      -3.670  11.747  18.279  0.00  0.00    +0.000 A 
ATOM     11  C   UNL     1      -4.610  11.287  17.347  0.00  0.00    +0.000 A 
ATOM     12  C   UNL     1      -4.129  10.751  16.149  0.00  0.00    +0.000 A 
ATOM     13  C   UNL     1      -2.762  10.679  15.898  0.00  0.00    +0.000 A 
ATOM     14  C   UNL     1      -1.843  11.164  16.831  0.00  0.00    +0.000 A 
ATOM     15  C   UNL     1      -2.302  11.716  18.050  0.00  0.00    +0.000 A 
ATOM     16  H   UNL     1      -4.767  12.402  19.963  0.00  0.00    +0.000 HD
BRANCH   8  17
ATOM     17  C   UNL     1      -2.580  13.184  21.483  0.00  0.00    +0.000 A 
ATOM     18  C   UNL     1      -3.026  12.461  22.600  0.00  0.00    +0.000 A 
ATOM     19  C   UNL     1      -3.012  13.033  23.878  0.00  0.00    +0.000 A 
ATOM     20  C   UNL     1      -2.556  14.337  24.057  0.00  0.00    +0.000 A 
ATOM     21  C   UNL     1      -2.074  15.054  22.969  0.00  0.00    +0.000 A 
ATOM     22  C   UNL     1      -2.065  14.471  21.700  0.00  0.00    +0.000 A 
ENDBRANCH   8  17
ENDBRANCH   5   7
ENDBRANCH   2   5
BRANCH   1  23
ATOM     23  C   UNL     1       1.544   9.294  19.798  0.00  0.00    +0.000 C 
BRANCH  23  25
ATOM     24  N   UNL     1       2.142   7.049  18.985  0.00  0.00    +0.000 N 
ATOM     25  C   UNL     1       1.922   8.358  18.622  0.00  0.00    +0.000 C 
ATOM     26  O   UNL     1       1.939   8.722  17.449  0.00  0.00    +0.000 OA
ATOM     27  H   UNL     1       1.789   6.740  19.890  0.00  0.00    +0.000 HD
BRANCH  24  28
ATOM     28  C   UNL     1       2.503   6.006  18.021  0.00  0.00    +0.000 C 
BRANCH  28  29
ATOM     29  C   UNL     1       4.029   5.709  18.037  0.00  0.00    +0.000 C 
ATOM     30  C   UNL     1       4.568   5.620  19.473  0.00  0.00    +0.000 C 
BRANCH  29  32
ATOM     31  C   UNL     1       5.255   6.225  15.835  0.00  0.00    +0.000 C 
ATOM     32  C   UNL     1       4.813   6.744  17.198  0.00  0.00    +0.000 C 
ENDBRANCH  29  32
ENDBRANCH  28  29
BRANCH  28  33
ATOM     33  C   UNL     1       1.690   4.714  18.243  0.00  0.00    +0.000 C 
ATOM     34  O   UNL     1       1.422   3.908  17.361  0.00  0.00    +0.000 OA
BRANCH  33  35
ATOM     35  O   UNL     1       1.322   4.579  19.551  0.00  0.00    +0.000 OA
ATOM     36  C   UNL     1       1.084   3.234  19.965  0.00  0.00    +0.000 C 
ENDBRANCH  33  35
ENDBRANCH  28  33
ENDBRANCH  24  28
ENDBRANCH  23  25
BRANCH  23  37
ATOM     37  C   UNL     1       0.917   8.540  20.995  0.00  0.00    +0.000 C 
ATOM     38  C   UNL     1       1.609   8.923  22.310  0.00  0.00    +0.000 C 
ATOM     39  C   UNL     1      -0.594   8.746  21.145  0.00  0.00    +0.000 C 
ENDBRANCH  23  37
ENDBRANCH   1  23
TORSDOF 11
ENDMDL
MODEL 5
REMARK VINA RESULT:      -7.2      2.830      4.661
REMARK  Name = 
REMARK  16 active torsions:
REMARK  status: ('A' for Active; 'I' for Inactive)
REMARK    1  A    between atoms: C_1  and  C_2
REMARK    2  A    between atoms: C_2  and  C_3
REMARK    3  A    between atoms: C_3  and  C_4
REMARK    4  A    between atoms: C_3  and  C_5
REMARK    5  A    between atoms: C_5  and  N_6
REMARK    6  A    between atoms: C_5  and  C_33
REMARK    7  A    between atoms: C_7  and  C_9
REMARK    8  A    between atoms: C_9  and  N_10
REMARK    9  A    between atoms: C_9  and  C_30
REMARK   10  A    between atoms: C_11  and  C_13
REMARK   11  A    between atoms: C_13  and  C_15
REMARK   12  A    between atoms: C_16  and  C_17
REMARK   13  A    between atoms: C_30  and  C_31
REMARK   14  A    between atoms: C_30  and  C_32
REMARK   15  A    between atoms: C_33  and  O_35
REMARK   16  A    between atoms: O_35  and  C_36
REMARK                            x       y       z     vdW  Elec       q    Type
REMARK                         _______ _______ _______ _____ _____    ______ ____
ROOT
ATOM      1  N   UNL     1       0.570  10.584  19.395  0.00  0.00    +0.000 N 
ATOM      2  C   UNL     1       0.558  11.833  19.979  0.00  0.00    +0.000 C 
ATOM      3  O   UNL     1       1.281  12.178  20.900  0.00  0.00    +0.000 OA
ATOM      4  H   UNL     1       0.142  10.515  18.476  0.00  0.00    +0.000 HD
ENDROOT
BRANCH   2   5
ATOM      5  C   UNL     1      -0.429  12.804  19.338  0.00  0.00    +0.000 C 
ATOM      6  O   UNL     1       0.052  13.858  18.925  0.00  0.00    +0.000 OA
BRANCH   5   7
ATOM      7  C   UNL     1      -1.828  12.424  19.166  0.00  0.00    +0.000 A 
ATOM      8  C   UNL     1      -2.868  12.687  20.063  0.00  0.00    +0.000 A 
ATOM      9  N   UNL     1      -4.027  12.275  19.435  0.00  0.00    +0.000 N 
ATOM     10  C   UNL     1      -3.764  11.722  18.203  0.00  0.00    +0.000 A 
ATOM     11  C   UNL     1      -4.645  11.200  17.246  0.00  0.00    +0.000 A 
ATOM     12  C   UNL     1      -4.094  10.669  16.076  0.00  0.00    +0.000 A 
ATOM     13  C   UNL     1      -2.717  10.663  15.876  0.00  0.00    +0.000 A 
ATOM     14  C   UNL     1      -1.858  11.209  16.833  0.00  0.00    +0.000 A 
ATOM     15  C   UNL     1      -2.389  11.756  18.024  0.00  0.00    +0.000 A 
ATOM     16  H   UNL     1      -4.954  12.348  19.834  0.00  0.00    +0.000 HD
BRANCH   8  17
ATOM     17  C   UNL     1      -2.867  13.265  21.418  0.00  0.00    +0.000 A 
ATOM     18  C   UNL     1      -2.729  14.645  21.631  0.00  0.00    +0.000 A 
ATOM     19  C   UNL     1      -2.654  15.167  22.928  0.00  0.00    +0.000 A 
ATOM     20  C   UNL     1      -2.712  14.317  24.031  0.00  0.00    +0.000 A 
ATOM     21  C   UNL     1      -2.888  12.952  23.839  0.00  0.00    +0.000 A 
ATOM     22  C   UNL     1      -2.989  12.438  22.544  0.00  0.00    +0.000 A 
ENDBRANCH   8  17
ENDBRANCH   5   7
ENDBRANCH   2   5
BRANCH   1  23
ATOM     23  C   UNL     1       1.456   9.516  19.854  0.00  0.00    +0.000 C 
BRANCH  23  25
ATOM     24  N   UNL     1       2.312   7.361  19.028  0.00  0.00    +0.000 N 
ATOM     25  C   UNL     1       1.920   8.631  18.670  0.00  0.00    +0.000 C 
ATOM     26  O   UNL     1       1.864   8.990  17.497  0.00  0.00    +0.000 OA
ATOM     27  H   UNL     1       2.023   7.013  19.942  0.00  0.00    +0.000 HD
BRANCH  24  28
ATOM     28  C   UNL     1       2.780   6.368  18.056  0.00  0.00    +0.000 C 
BRANCH  28  29
ATOM     29  C   UNL     1       4.331   6.296  18.007  0.00  0.00    +0.000 C 
ATOM     30  C   UNL     1       4.835   6.004  16.585  0.00  0.00    +0.000 C 
BRANCH  29  32
ATOM     31  C   UNL     1       6.382   5.381  19.262  0.00  0.00    +0.000 C 
ATOM     32  C   UNL     1       4.880   5.271  19.026  0.00  0.00    +0.000 C 
ENDBRANCH  29  32
ENDBRANCH  28  29
BRANCH  28  33
ATOM     33  C   UNL     1       2.172   4.976  18.323  0.00  0.00    +0.000 C 
ATOM     34  O   UNL     1       2.153   4.064  17.506  0.00  0.00    +0.000 OA
BRANCH  33  35
ATOM     35  O   UNL     1       1.675   4.887  19.592  0.00  0.00    +0.000 OA
ATOM     36  C   UNL     1       1.266   3.575  19.979  0.00  0.00    +0.000 C 
ENDBRANCH  33  35
ENDBRANCH  28  33
ENDBRANCH  24  28
ENDBRANCH  23  25
BRANCH  23  37
ATOM     37  C   UNL     1       0.825   8.701  21.009  0.00  0.00    +0.000 C 
ATOM     38  C   UNL     1       1.503   9.025  22.346  0.00  0.00    +0.000 C 
ATOM     39  C   UNL     1      -0.689   8.889  21.156  0.00  0.00    +0.000 C 
ENDBRANCH  23  37
ENDBRANCH   1  23
TORSDOF 11
ENDMDL
MODEL 6
REMARK VINA RESULT:      -7.1      2.751      4.554
REMARK  Name = 
REMARK  16 active torsions:
REMARK  status: ('A' for Active; 'I' for Inactive)
REMARK    1  A    between atoms: C_1  and  C_2
REMARK    2  A    between atoms: C_2  and  C_3
REMARK    3  A    between atoms: C_3  and  C_4
REMARK    4  A    between atoms: C_3  and  C_5
REMARK    5  A    between atoms: C_5  and  N_6
REMARK    6  A    between atoms: C_5  and  C_33
REMARK    7  A    between atoms: C_7  and  C_9
REMARK    8  A    between atoms: C_9  and  N_10
REMARK    9  A    between atoms: C_9  and  C_30
REMARK   10  A    between atoms: C_11  and  C_13
REMARK   11  A    between atoms: C_13  and  C_15
REMARK   12  A    between atoms: C_16  and  C_17
REMARK   13  A    between atoms: C_30  and  C_31
REMARK   14  A    between atoms: C_30  and  C_32
REMARK   15  A    between atoms: C_33  and  O_35
REMARK   16  A    between atoms: O_35  and  C_36
REMARK                            x       y       z     vdW  Elec       q    Type
REMARK                         _______ _______ _______ _____ _____    ______ ____
ROOT
ATOM      1  N   UNL     1       0.692  10.304  19.343  0.00  0.00    +0.000 N 
ATOM      2  C   UNL     1       0.732  11.556  19.918  0.00  0.00    +0.000 C 
ATOM      3  O   UNL     1       1.459  11.873  20.847  0.00  0.00    +0.000 OA
ATOM      4  H   UNL     1       0.273  10.249  18.418  0.00  0.00    +0.000 HD
ENDROOT
BRANCH   2   5
ATOM      5  C   UNL     1      -0.197  12.569  19.257  0.00  0.00    +0.000 C 
ATOM      6  O   UNL     1       0.349  13.567  18.789  0.00  0.00    +0.000 OA
BRANCH   5   7
ATOM      7  C   UNL     1      -1.623  12.287  19.132  0.00  0.00    +0.000 A 
ATOM      8  C   UNL     1      -2.614  12.626  20.059  0.00  0.00    +0.000 A 
ATOM      9  N   UNL     1      -3.818  12.292  19.471  0.00  0.00    +0.000 N 
ATOM     10  C   UNL     1      -3.634  11.715  18.235  0.00  0.00    +0.000 A 
ATOM     11  C   UNL     1      -4.578  11.250  17.311  0.00  0.00    +0.000 A 
ATOM     12  C   UNL     1      -4.102  10.676  16.128  0.00  0.00    +0.000 A 
ATOM     13  C   UNL     1      -2.736  10.573  15.885  0.00  0.00    +0.000 A 
ATOM     14  C   UNL     1      -1.812  11.064  16.811  0.00  0.00    +0.000 A 
ATOM     15  C   UNL     1      -2.266  11.653  18.013  0.00  0.00    +0.000 A 
ATOM     16  H   UNL     1      -4.725  12.432  19.898  0.00  0.00    +0.000 HD
BRANCH   8  17
ATOM     17  C   UNL     1      -2.530  13.211  21.409  0.00  0.00    +0.000 A 
ATOM     18  C   UNL     1      -1.828  14.400  21.655  0.00  0.00    +0.000 A 
ATOM     19  C   UNL     1      -1.696  14.899  22.957  0.00  0.00    +0.000 A 
ATOM     20  C   UNL     1      -2.260  14.214  24.031  0.00  0.00    +0.000 A 
ATOM     21  C   UNL     1      -2.992  13.056  23.801  0.00  0.00    +0.000 A 
ATOM     22  C   UNL     1      -3.144  12.575  22.498  0.00  0.00    +0.000 A 
ENDBRANCH   8  17
ENDBRANCH   5   7
ENDBRANCH   2   5
BRANCH   1  23
ATOM     23  C   UNL     1       1.517   9.197  19.821  0.00  0.00    +0.000 C 
BRANCH  23  25
ATOM     24  N   UNL     1       2.233   6.961  19.082  0.00  0.00    +0.000 N 
ATOM     25  C   UNL     1       1.858   8.219  18.669  0.00  0.00    +0.000 C 
ATOM     26  O   UNL     1       1.724   8.502  17.481  0.00  0.00    +0.000 OA
ATOM     27  H   UNL     1       2.004   6.685  20.037  0.00  0.00    +0.000 HD
BRANCH  24  28
ATOM     28  C   UNL     1       2.590   5.889  18.148  0.00  0.00    +0.000 C 
BRANCH  28  29
ATOM     29  C   UNL     1       4.126   5.661  18.091  0.00  0.00    +0.000 C 
ATOM     30  C   UNL     1       4.712   5.428  19.492  0.00  0.00    +0.000 C 
BRANCH  29  32
ATOM     31  C   UNL     1       5.102   6.553  15.885  0.00  0.00    +0.000 C 
ATOM     32  C   UNL     1       4.841   6.822  17.362  0.00  0.00    +0.000 C 
ENDBRANCH  29  32
ENDBRANCH  28  29
BRANCH  28  33
ATOM     33  C   UNL     1       1.851   4.575  18.476  0.00  0.00    +0.000 C 
ATOM     34  O   UNL     1       1.265   4.358  19.529  0.00  0.00    +0.000 OA
BRANCH  33  35
ATOM     35  O   UNL     1       1.920   3.695  17.435  0.00  0.00    +0.000 OA
ATOM     36  C   UNL     1       2.292   2.366  17.803  0.00  0.00    +0.000 C 
ENDBRANCH  33  35
ENDBRANCH  28  33
ENDBRANCH  24  28
ENDBRANCH  23  25
BRANCH  23  37
ATOM     37  C   UNL     1       0.885   8.494  21.046  0.00  0.00    +0.000 C 
ATOM     38  C   UNL     1       1.588   8.910  22.344  0.00  0.00    +0.000 C 
ATOM     39  C   UNL     1      -0.623   8.728  21.195  0.00  0.00    +0.000 C 
ENDBRANCH  23  37
ENDBRANCH   1  23
TORSDOF 11
ENDMDL
MODEL 7
REMARK VINA RESULT:      -7.0      2.671      4.440
REMARK  Name = 
REMARK  16 active torsions:
REMARK  status: ('A' for Active; 'I' for Inactive)
REMARK    1  A    between atoms: C_1  and  C_2
REMARK    2  A    between atoms: C_2  and  C_3
REMARK    3  A    between atoms: C_3  and  C_4
REMARK    4  A    between atoms: C_3  and  C_5
REMARK    5  A    between atoms: C_5  and  N_6
REMARK    6  A    between atoms: C_5  and  C_33
REMARK    7  A    between atoms: C_7  and  C_9
REMARK    8  A    between atoms: C_9  and  N_10
REMARK    9  A    between atoms: C_9  and  C_30
REMARK   10  A    between atoms: C_11  and  C_13
REMARK   11  A    between atoms: C_13  and  C_15
REMARK   12  A    between atoms: C_16  and  C_17
REMARK   13  A    between atoms: C_30  and  C_31
REMARK   14  A    between atoms: C_30  and  C_32
REMARK   15  A    between atoms: C_33  and  O_35
REMARK   16  A    between atoms: O_35  and  C_36
REMARK                            x       y       z     vdW  Elec       q    Type
REMARK                         _______ _______ _______ _____ _____    ______ ____
ROOT
ATOM      1  N   UNL     1       0.686  10.273  19.278  0.00  0.00    +0.000 N 
ATOM      2  C   UNL     1       0.775  11.605  19.623  0.00  0.00    +0.000 C 
ATOM      3  O   UNL     1       1.557  12.061  20.443  0.00  0.00    +0.000 OA
ATOM      4  H   UNL     1       0.215  10.068  18.400  0.00  0.00    +0.000 HD
ENDROOT
BRANCH   2   5
ATOM      5  C   UNL     1      -0.176  12.509  18.846  0.00  0.00    +0.000 C 
ATOM      6  O   UNL     1       0.354  13.413  18.201  0.00  0.00    +0.000 OA
BRANCH   5   7
ATOM      7  C   UNL     1      -1.608  12.226  18.825  0.00  0.00    +0.000 A 
ATOM      8  C   UNL     1      -2.525  12.549  19.830  0.00  0.00    +0.000 A 
ATOM      9  N   UNL     1      -3.771  12.221  19.330  0.00  0.00    +0.000 N 
ATOM     10  C   UNL     1      -3.680  11.664  18.075  0.00  0.00    +0.000 A 
ATOM     11  C   UNL     1      -4.692  11.211  17.218  0.00  0.00    +0.000 A 
ATOM     12  C   UNL     1      -4.307  10.656  15.994  0.00  0.00    +0.000 A 
ATOM     13  C   UNL     1      -2.963  10.560  15.646  0.00  0.00    +0.000 A 
ATOM     14  C   UNL     1      -1.972  11.038  16.506  0.00  0.00    +0.000 A 
ATOM     15  C   UNL     1      -2.333  11.608  17.749  0.00  0.00    +0.000 A 
ATOM     16  H   UNL     1      -4.642  12.353  19.827  0.00  0.00    +0.000 HD
BRANCH   8  17
ATOM     17  C   UNL     1      -2.339  13.113  21.178  0.00  0.00    +0.000 A 
ATOM     18  C   UNL     1      -2.350  12.303  22.324  0.00  0.00    +0.000 A 
ATOM     19  C   UNL     1      -2.247  12.868  23.602  0.00  0.00    +0.000 A 
ATOM     20  C   UNL     1      -2.136  14.248  23.752  0.00  0.00    +0.000 A 
ATOM     21  C   UNL     1      -2.083  15.061  22.627  0.00  0.00    +0.000 A 
ATOM     22  C   UNL     1      -2.160  14.493  21.353  0.00  0.00    +0.000 A 
ENDBRANCH   8  17
ENDBRANCH   5   7
ENDBRANCH   2   5
BRANCH   1  23
ATOM     23  C   UNL     1       1.523   9.248  19.898  0.00  0.00    +0.000 C 
BRANCH  23  25
ATOM     24  N   UNL     1       2.398   7.003  19.392  0.00  0.00    +0.000 N 
ATOM     25  C   UNL     1       1.983   8.199  18.853  0.00  0.00    +0.000 C 
ATOM     26  O   UNL     1       1.906   8.377  17.640  0.00  0.00    +0.000 OA
ATOM     27  H   UNL     1       2.126   6.793  20.352  0.00  0.00    +0.000 HD
BRANCH  24  28
ATOM     28  C   UNL     1       2.866   5.880  18.574  0.00  0.00    +0.000 C 
BRANCH  28  29
ATOM     29  C   UNL     1       4.376   6.008  18.230  0.00  0.00    +0.000 C 
ATOM     30  C   UNL     1       4.648   5.667  16.757  0.00  0.00    +0.000 C 
BRANCH  29  32
ATOM     31  C   UNL     1       6.719   5.537  19.182  0.00  0.00    +0.000 C 
ATOM     32  C   UNL     1       5.244   5.152  19.181  0.00  0.00    +0.000 C 
ENDBRANCH  29  32
ENDBRANCH  28  29
BRANCH  28  33
ATOM     33  C   UNL     1       2.566   4.522  19.240  0.00  0.00    +0.000 C 
ATOM     34  O   UNL     1       2.453   4.358  20.448  0.00  0.00    +0.000 OA
BRANCH  33  35
ATOM     35  O   UNL     1       2.426   3.533  18.310  0.00  0.00    +0.000 OA
ATOM     36  C   UNL     1       2.852   2.242  18.745  0.00  0.00    +0.000 C 
ENDBRANCH  33  35
ENDBRANCH  28  33
ENDBRANCH  24  28
ENDBRANCH  23  25
BRANCH  23  37
ATOM     37  C   UNL     1       0.837   8.612  21.131  0.00  0.00    +0.000 C 
ATOM     38  C   UNL     1       1.475   9.112  22.434  0.00  0.00    +0.000 C 
ATOM     39  C   UNL     1      -0.677   8.841  21.195  0.00  0.00    +0.000 C 
ENDBRANCH  23  37
ENDBRANCH   1  23
TORSDOF 11
ENDMDL
MODEL 8
REMARK VINA RESULT:      -7.0      2.644      4.517
REMARK  Name = 
REMARK  16 active torsions:
REMARK  status: ('A' for Active; 'I' for Inactive)
REMARK    1  A    between atoms: C_1  and  C_2
REMARK    2  A    between atoms: C_2  and  C_3
REMARK    3  A    between atoms: C_3  and  C_4
REMARK    4  A    between atoms: C_3  and  C_5
REMARK    5  A    between atoms: C_5  and  N_6
REMARK    6  A    between atoms: C_5  and  C_33
REMARK    7  A    between atoms: C_7  and  C_9
REMARK    8  A    between atoms: C_9  and  N_10
REMARK    9  A    between atoms: C_9  and  C_30
REMARK   10  A    between atoms: C_11  and  C_13
REMARK   11  A    between atoms: C_13  and  C_15
REMARK   12  A    between atoms: C_16  and  C_17
REMARK   13  A    between atoms: C_30  and  C_31
REMARK   14  A    between atoms: C_30  and  C_32
REMARK   15  A    between atoms: C_33  and  O_35
REMARK   16  A    between atoms: O_35  and  C_36
REMARK                            x       y       z     vdW  Elec       q    Type
REMARK                         _______ _______ _______ _____ _____    ______ ____
ROOT
ATOM      1  N   UNL     1       0.527  10.514  19.578  0.00  0.00    +0.000 N 
ATOM      2  C   UNL     1       0.995  11.669  18.989  0.00  0.00    +0.000 C 
ATOM      3  O   UNL     1       2.166  11.888  18.719  0.00  0.00    +0.000 OA
ATOM      4  H   UNL     1      -0.470  10.337  19.486  0.00  0.00    +0.000 HD
ENDROOT
BRANCH   2   5
ATOM      5  C   UNL     1      -0.100  12.674  18.645  0.00  0.00    +0.000 C 
ATOM      6  O   UNL     1       0.289  13.776  18.261  0.00  0.00    +0.000 OA
BRANCH   5   7
ATOM      7  C   UNL     1      -1.504  12.279  18.697  0.00  0.00    +0.000 A 
ATOM      8  C   UNL     1      -2.386  12.510  19.758  0.00  0.00    +0.000 A 
ATOM      9  N   UNL     1      -3.627  12.094  19.321  0.00  0.00    +0.000 N 
ATOM     10  C   UNL     1      -3.565  11.569  18.050  0.00  0.00    +0.000 A 
ATOM     11  C   UNL     1      -4.586  11.053  17.240  0.00  0.00    +0.000 A 
ATOM     12  C   UNL     1      -4.228  10.553  15.985  0.00  0.00    +0.000 A 
ATOM     13  C   UNL     1      -2.903  10.570  15.561  0.00  0.00    +0.000 A 
ATOM     14  C   UNL     1      -1.905  11.109  16.376  0.00  0.00    +0.000 A 
ATOM     15  C   UNL     1      -2.239  11.626  17.649  0.00  0.00    +0.000 A 
ATOM     16  H   UNL     1      -4.477  12.147  19.868  0.00  0.00    +0.000 HD
BRANCH   8  17
ATOM     17  C   UNL     1      -2.167  13.062  21.107  0.00  0.00    +0.000 A 
ATOM     18  C   UNL     1      -1.637  12.282  22.146  0.00  0.00    +0.000 A 
ATOM     19  C   UNL     1      -1.508  12.804  23.439  0.00  0.00    +0.000 A 
ATOM     20  C   UNL     1      -1.912  14.108  23.714  0.00  0.00    +0.000 A 
ATOM     21  C   UNL     1      -2.402  14.907  22.688  0.00  0.00    +0.000 A 
ATOM     22  C   UNL     1      -2.505  14.393  21.393  0.00  0.00    +0.000 A 
ENDBRANCH   8  17
ENDBRANCH   5   7
ENDBRANCH   2   5
BRANCH   1  23
ATOM     23  C   UNL     1       1.415   9.422  19.970  0.00  0.00    +0.000 C 
BRANCH  23  25
ATOM     24  N   UNL     1       2.195   7.248  19.117  0.00  0.00    +0.000 N 
ATOM     25  C   UNL     1       1.713   8.489  18.769  0.00  0.00    +0.000 C 
ATOM     26  O   UNL     1       1.461   8.787  17.604  0.00  0.00    +0.000 OA
ATOM     27  H   UNL     1       2.065   6.940  20.081  0.00  0.00    +0.000 HD
BRANCH  24  28
ATOM     28  C   UNL     1       2.534   6.219  18.130  0.00  0.00    +0.000 C 
BRANCH  28  29
ATOM     29  C   UNL     1       4.059   5.923  18.105  0.00  0.00    +0.000 C 
ATOM     30  C   UNL     1       4.789   6.818  17.093  0.00  0.00    +0.000 C 
BRANCH  29  32
ATOM     31  C   UNL     1       5.054   3.722  18.992  0.00  0.00    +0.000 C 
ATOM     32  C   UNL     1       4.338   4.425  17.844  0.00  0.00    +0.000 C 
ENDBRANCH  29  32
ENDBRANCH  28  29
BRANCH  28  33
ATOM     33  C   UNL     1       1.726   4.924  18.353  0.00  0.00    +0.000 C 
ATOM     34  O   UNL     1       1.242   4.250  17.453  0.00  0.00    +0.000 OA
BRANCH  33  35
ATOM     35  O   UNL     1       1.635   4.619  19.681  0.00  0.00    +0.000 OA
ATOM     36  C   UNL     1       0.995   3.374  19.962  0.00  0.00    +0.000 C 
ENDBRANCH  33  35
ENDBRANCH  28  33
ENDBRANCH  24  28
ENDBRANCH  23  25
BRANCH  23  37
ATOM     37  C   UNL     1       0.882   8.662  21.208  0.00  0.00    +0.000 C 
ATOM     38  C   UNL     1       1.448   9.256  22.505  0.00  0.00    +0.000 C 
ATOM     39  C   UNL     1      -0.648   8.614  21.305  0.00  0.00    +0.000 C 
ENDBRANCH  23  37
ENDBRANCH   1  23
TORSDOF 11
ENDMDL
MODEL 9
REMARK VINA RESULT:      -7.0      2.267      8.605
REMARK  Name = 
REMARK  16 active torsions:
REMARK  status: ('A' for Active; 'I' for Inactive)
REMARK    1  A    between atoms: C_1  and  C_2
REMARK    2  A    between atoms: C_2  and  C_3
REMARK    3  A    between atoms: C_3  and  C_4
REMARK    4  A    between atoms: C_3  and  C_5
REMARK    5  A    between atoms: C_5  and  N_6
REMARK    6  A    between atoms: C_5  and  C_33
REMARK    7  A    between atoms: C_7  and  C_9
REMARK    8  A    between atoms: C_9  and  N_10
REMARK    9  A    between atoms: C_9  and  C_30
REMARK   10  A    between atoms: C_11  and  C_13
REMARK   11  A    between atoms: C_13  and  C_15
REMARK   12  A    between atoms: C_16  and  C_17
REMARK   13  A    between atoms: C_30  and  C_31
REMARK   14  A    between atoms: C_30  and  C_32
REMARK   15  A    between atoms: C_33  and  O_35
REMARK   16  A    between atoms: O_35  and  C_36
REMARK                            x       y       z     vdW  Elec       q    Type
REMARK                         _______ _______ _______ _____ _____    ______ ____
ROOT
ATOM      1  N   UNL     1       2.178   7.912  19.397  0.00  0.00    +0.000 N 
ATOM      2  C   UNL     1       2.241   7.083  18.297  0.00  0.00    +0.000 C 
ATOM      3  O   UNL     1       1.310   6.860  17.539  0.00  0.00    +0.000 OA
ATOM      4  H   UNL     1       3.069   8.234  19.766  0.00  0.00    +0.000 HD
ENDROOT
BRANCH   2   5
ATOM      5  C   UNL     1       3.620   6.476  18.060  0.00  0.00    +0.000 C 
ATOM      6  O   UNL     1       4.475   7.245  17.624  0.00  0.00    +0.000 OA
BRANCH   5   7
ATOM      7  C   UNL     1       3.886   5.088  18.426  0.00  0.00    +0.000 A 
ATOM      8  C   UNL     1       4.779   4.223  17.785  0.00  0.00    +0.000 A 
ATOM      9  N   UNL     1       4.808   3.071  18.545  0.00  0.00    +0.000 N 
ATOM     10  C   UNL     1       3.941   3.147  19.611  0.00  0.00    +0.000 A 
ATOM     11  C   UNL     1       3.678   2.215  20.624  0.00  0.00    +0.000 A 
ATOM     12  C   UNL     1       2.713   2.549  21.579  0.00  0.00    +0.000 A 
ATOM     13  C   UNL     1       2.043   3.767  21.521  0.00  0.00    +0.000 A 
ATOM     14  C   UNL     1       2.338   4.691  20.516  0.00  0.00    +0.000 A 
ATOM     15  C   UNL     1       3.311   4.381  19.538  0.00  0.00    +0.000 A 
ATOM     16  H   UNL     1       5.377   2.260  18.339  0.00  0.00    +0.000 HD
BRANCH   8  17
ATOM     17  C   UNL     1       5.575   4.378  16.555  0.00  0.00    +0.000 A 
ATOM     18  C   UNL     1       6.876   4.904  16.580  0.00  0.00    +0.000 A 
ATOM     19  C   UNL     1       7.587   5.113  15.393  0.00  0.00    +0.000 A 
ATOM     20  C   UNL     1       7.008   4.805  14.164  0.00  0.00    +0.000 A 
ATOM     21  C   UNL     1       5.737   4.246  14.123  0.00  0.00    +0.000 A 
ATOM     22  C   UNL     1       5.040   4.014  15.311  0.00  0.00    +0.000 A 
ENDBRANCH   8  17
ENDBRANCH   5   7
ENDBRANCH   2   5
BRANCH   1  23
ATOM     23  C   UNL     1       0.951   8.601  19.786  0.00  0.00    +0.000 C 
BRANCH  23  25
ATOM     24  N   UNL     1      -0.501  10.430  19.006  0.00  0.00    +0.000 N 
ATOM     25  C   UNL     1       0.777   9.920  18.991  0.00  0.00    +0.000 C 
ATOM     26  O   UNL     1       1.711  10.516  18.461  0.00  0.00    +0.000 OA
ATOM     27  H   UNL     1      -1.141  10.089  19.723  0.00  0.00    +0.000 HD
BRANCH  24  28
ATOM     28  C   UNL     1      -0.872  11.671  18.320  0.00  0.00    +0.000 C 
BRANCH  28  29
ATOM     29  C   UNL     1      -2.146  11.489  17.448  0.00  0.00    +0.000 C 
ATOM     30  C   UNL     1      -3.425  11.642  18.285  0.00  0.00    +0.000 C 
BRANCH  29  32
ATOM     31  C   UNL     1      -2.933  10.149  15.398  0.00  0.00    +0.000 C 
ATOM     32  C   UNL     1      -2.121  10.144  16.688  0.00  0.00    +0.000 C 
ENDBRANCH  29  32
ENDBRANCH  28  29
BRANCH  28  33
ATOM     33  C   UNL     1      -1.044  12.842  19.308  0.00  0.00    +0.000 C 
ATOM     34  O   UNL     1      -1.578  12.745  20.406  0.00  0.00    +0.000 OA
BRANCH  33  35
ATOM     35  O   UNL     1      -0.510  13.995  18.808  0.00  0.00    +0.000 OA
ATOM     36  C   UNL     1       0.899  13.949  18.584  0.00  0.00    +0.000 C 
ENDBRANCH  33  35
ENDBRANCH  28  33
ENDBRANCH  24  28
ENDBRANCH  23  25
BRANCH  23  37
ATOM     37  C   UNL     1       0.864   8.803  21.318  0.00  0.00    +0.000 C 
ATOM     38  C   UNL     1       1.208  10.248  21.704  0.00  0.00    +0.000 C 
ATOM     39  C   UNL     1      -0.495   8.433  21.924  0.00  0.00    +0.000 C 
ENDBRANCH  23  37
ENDBRANCH   1  23
TORSDOF 11
ENDMDL
