MODEL 1
REMARK VINA RESULT:      -7.6      0.000      0.000
REMARK  Name = 
REMARK  2 active torsions:
REMARK  status: ('A' for Active; 'I' for Inactive)
REMARK    1  A    between atoms: C_7  and  C_8
REMARK    2  A    between atoms: C_13  and  O_14
REMARK                            x       y       z     vdW  Elec       q    Type
REMARK                         _______ _______ _______ _____ _____    ______ ____
ROOT
ATOM      1  N   UNL     1       6.839   4.255  13.119  0.00  0.00    +0.000 NA
ATOM      2  C   UNL     1       6.695   4.520  14.371  0.00  0.00    +0.000 C 
ATOM      3  N   UNL     1       7.656   5.164  15.069  0.00  0.00    +0.000 N 
ATOM      4  N   UNL     1       5.619   4.073  15.064  0.00  0.00    +0.000 N 
ATOM      5  C   UNL     1       4.975   4.600  16.129  0.00  0.00    +0.000 A 
ATOM      6  N   UNL     1       4.242   3.892  16.962  0.00  0.00    +0.000 NA
ATOM      7  C   UNL     1       3.795   4.684  18.016  0.00  0.00    +0.000 A 
ATOM      8  C   UNL     1       4.031   6.033  17.850  0.00  0.00    +0.000 A 
ATOM      9  S   UNL     1       4.990   6.299  16.468  0.00  0.00    +0.000 S 
ATOM     10  H   UNL     1       7.732   4.637  12.801  0.00  0.00    +0.000 HD
ATOM     11  H   UNL     1       8.346   5.702  14.566  0.00  0.00    +0.000 HD
ATOM     12  H   UNL     1       7.396   5.554  15.966  0.00  0.00    +0.000 HD
ATOM     13  H   UNL     1       5.122   3.334  14.582  0.00  0.00    +0.000 HD
ENDROOT
BRANCH   7  14
ATOM     14  C   UNL     1       3.112   4.111  19.175  0.00  0.00    +0.000 A 
ATOM     15  C   UNL     1       1.822   4.564  19.494  0.00  0.00    +0.000 A 
ATOM     16  C   UNL     1       1.125   4.035  20.586  0.00  0.00    +0.000 A 
ATOM     17  C   UNL     1       1.702   3.039  21.370  0.00  0.00    +0.000 A 
ATOM     18  C   UNL     1       2.974   2.563  21.060  0.00  0.00    +0.000 A 
ATOM     19  C   UNL     1       3.669   3.091  19.969  0.00  0.00    +0.000 A 
BRANCH  19  20
ATOM     20  O   UNL     1       4.904   2.572  19.672  0.00  0.00    +0.000 OA
ATOM     21  H   UNL     1       4.966   1.674  20.035  0.00  0.00    +0.000 HD
ENDBRANCH  19  20
ENDBRANCH   7  14
TORSDOF 2
ENDMDL
MODEL 2
REMARK VINA RESULT:      -7.2      1.163      1.224
REMARK  Name = 
REMARK  2 active torsions:
REMARK  status: ('A' for Active; 'I' for Inactive)
REMARK    1  A    between atoms: C_7  and  C_8
REMARK    2  A    between atoms: C_13  and  O_14
REMARK                            x       y       z     vdW  Elec       q    Type
REMARK                         _______ _______ _______ _____ _____    ______ ____
ROOT
ATOM      1  N   UNL     1       6.909   4.376  13.174  0.00  0.00    +0.000 NA
ATOM      2  C   UNL     1       6.691   4.587  14.426  0.00  0.00    +0.000 C 
ATOM      3  N   UNL     1       7.611   5.194  15.208  0.00  0.00    +0.000 N 
ATOM      4  N   UNL     1       5.575   4.116  15.034  0.00  0.00    +0.000 N 
ATOM      5  C   UNL     1       4.869   4.600  16.081  0.00  0.00    +0.000 A 
ATOM      6  N   UNL     1       4.086   3.860  16.837  0.00  0.00    +0.000 NA
ATOM      7  C   UNL     1       3.580   4.608  17.897  0.00  0.00    +0.000 A 
ATOM      8  C   UNL     1       3.829   5.961  17.805  0.00  0.00    +0.000 A 
ATOM      9  S   UNL     1       4.869   6.282  16.496  0.00  0.00    +0.000 S 
ATOM     10  H   UNL     1       7.820   4.768  12.927  0.00  0.00    +0.000 HD
ATOM     11  H   UNL     1       8.332   5.750  14.771  0.00  0.00    +0.000 HD
ATOM     12  H   UNL     1       7.299   5.546  16.104  0.00  0.00    +0.000 HD
ATOM     13  H   UNL     1       5.104   3.402  14.491  0.00  0.00    +0.000 HD
ENDROOT
BRANCH   7  14
ATOM     14  C   UNL     1       2.828   3.987  18.987  0.00  0.00    +0.000 A 
ATOM     15  C   UNL     1       2.800   4.623  20.239  0.00  0.00    +0.000 A 
ATOM     16  C   UNL     1       2.084   4.074  21.307  0.00  0.00    +0.000 A 
ATOM     17  C   UNL     1       1.375   2.886  21.139  0.00  0.00    +0.000 A 
ATOM     18  C   UNL     1       1.376   2.249  19.900  0.00  0.00    +0.000 A 
ATOM     19  C   UNL     1       2.091   2.798  18.834  0.00  0.00    +0.000 A 
BRANCH  19  20
ATOM     20  O   UNL     1       2.038   2.162  17.619  0.00  0.00    +0.000 OA
ATOM     21  H   UNL     1       2.695   1.448  17.607  0.00  0.00    +0.000 HD
ENDBRANCH  19  20
ENDBRANCH   7  14
TORSDOF 2
ENDMDL
MODEL 3
REMARK VINA RESULT:      -6.9      2.815      6.155
REMARK  Name = 
REMARK  2 active torsions:
REMARK  status: ('A' for Active; 'I' for Inactive)
REMARK    1  A    between atoms: C_7  and  C_8
REMARK    2  A    between atoms: C_13  and  O_14
REMARK                            x       y       z     vdW  Elec       q    Type
REMARK                         _______ _______ _______ _____ _____    ______ ____
ROOT
ATOM      1  N   UNL     1       1.381   2.390  22.335  0.00  0.00    +0.000 NA
ATOM      2  C   UNL     1       1.513   2.931  21.174  0.00  0.00    +0.000 C 
ATOM      3  N   UNL     1       0.437   3.289  20.438  0.00  0.00    +0.000 N 
ATOM      4  N   UNL     1       2.732   3.067  20.597  0.00  0.00    +0.000 N 
ATOM      5  C   UNL     1       3.200   3.997  19.734  0.00  0.00    +0.000 A 
ATOM      6  N   UNL     1       4.222   3.795  18.929  0.00  0.00    +0.000 NA
ATOM      7  C   UNL     1       4.403   4.888  18.086  0.00  0.00    +0.000 A 
ATOM      8  C   UNL     1       3.637   5.988  18.411  0.00  0.00    +0.000 A 
ATOM      9  S   UNL     1       2.539   5.596  19.652  0.00  0.00    +0.000 S 
ATOM     10  H   UNL     1       0.386   2.338  22.565  0.00  0.00    +0.000 HD
ATOM     11  H   UNL     1      -0.450   3.418  20.903  0.00  0.00    +0.000 HD
ATOM     12  H   UNL     1       0.595   3.917  19.660  0.00  0.00    +0.000 HD
ATOM     13  H   UNL     1       3.439   2.491  21.036  0.00  0.00    +0.000 HD
ENDROOT
BRANCH   7  14
ATOM     14  C   UNL     1       5.353   4.854  16.974  0.00  0.00    +0.000 A 
ATOM     15  C   UNL     1       4.890   5.132  15.678  0.00  0.00    +0.000 A 
ATOM     16  C   UNL     1       5.764   5.123  14.586  0.00  0.00    +0.000 A 
ATOM     17  C   UNL     1       7.117   4.846  14.773  0.00  0.00    +0.000 A 
ATOM     18  C   UNL     1       7.599   4.585  16.054  0.00  0.00    +0.000 A 
ATOM     19  C   UNL     1       6.726   4.595  17.143  0.00  0.00    +0.000 A 
BRANCH  19  20
ATOM     20  O   UNL     1       7.244   4.369  18.394  0.00  0.00    +0.000 OA
ATOM     21  H   UNL     1       8.171   4.096  18.308  0.00  0.00    +0.000 HD
ENDBRANCH  19  20
ENDBRANCH   7  14
TORSDOF 2
ENDMDL
MODEL 4
REMARK VINA RESULT:      -6.8      3.584      5.025
REMARK  Name = 
REMARK  2 active torsions:
REMARK  status: ('A' for Active; 'I' for Inactive)
REMARK    1  A    between atoms: C_7  and  C_8
REMARK    2  A    between atoms: C_13  and  O_14
REMARK                            x       y       z     vdW  Elec       q    Type
REMARK                         _______ _______ _______ _____ _____    ______ ____
ROOT
ATOM      1  N   UNL     1       3.743   0.859  18.506  0.00  0.00    +0.000 NA
ATOM      2  C   UNL     1       4.011   2.067  18.863  0.00  0.00    +0.000 C 
ATOM      3  N   UNL     1       5.127   2.361  19.567  0.00  0.00    +0.000 N 
ATOM      4  N   UNL     1       3.135   3.076  18.640  0.00  0.00    +0.000 N 
ATOM      5  C   UNL     1       3.345   4.393  18.415  0.00  0.00    +0.000 A 
ATOM      6  N   UNL     1       2.442   5.324  18.637  0.00  0.00    +0.000 NA
ATOM      7  C   UNL     1       2.979   6.590  18.417  0.00  0.00    +0.000 A 
ATOM      8  C   UNL     1       4.227   6.581  17.832  0.00  0.00    +0.000 A 
ATOM      9  S   UNL     1       4.823   4.989  17.735  0.00  0.00    +0.000 S 
ATOM     10  H   UNL     1       4.504   0.248  18.808  0.00  0.00    +0.000 HD
ATOM     11  H   UNL     1       5.896   1.707  19.557  0.00  0.00    +0.000 HD
ATOM     12  H   UNL     1       5.406   3.333  19.609  0.00  0.00    +0.000 HD
ATOM     13  H   UNL     1       2.203   2.746  18.421  0.00  0.00    +0.000 HD
ENDROOT
BRANCH   7  14
ATOM     14  C   UNL     1       2.246   7.808  18.762  0.00  0.00    +0.000 A 
ATOM     15  C   UNL     1       2.054   8.786  17.773  0.00  0.00    +0.000 A 
ATOM     16  C   UNL     1       1.349   9.961  18.053  0.00  0.00    +0.000 A 
ATOM     17  C   UNL     1       0.816  10.173  19.322  0.00  0.00    +0.000 A 
ATOM     18  C   UNL     1       0.980   9.207  20.313  0.00  0.00    +0.000 A 
ATOM     19  C   UNL     1       1.684   8.033  20.032  0.00  0.00    +0.000 A 
BRANCH  19  20
ATOM     20  O   UNL     1       1.794   7.089  21.021  0.00  0.00    +0.000 OA
ATOM     21  H   UNL     1       2.166   6.277  20.644  0.00  0.00    +0.000 HD
ENDBRANCH  19  20
ENDBRANCH   7  14
TORSDOF 2
ENDMDL
MODEL 5
REMARK VINA RESULT:      -6.4      1.278      1.406
REMARK  Name = 
REMARK  2 active torsions:
REMARK  status: ('A' for Active; 'I' for Inactive)
REMARK    1  A    between atoms: C_7  and  C_8
REMARK    2  A    between atoms: C_13  and  O_14
REMARK                            x       y       z     vdW  Elec       q    Type
REMARK                         _______ _______ _______ _____ _____    ______ ____
ROOT
ATOM      1  N   UNL     1       7.010   4.404  13.166  0.00  0.00    +0.000 NA
ATOM      2  C   UNL     1       6.737   4.638  14.403  0.00  0.00    +0.000 C 
ATOM      3  N   UNL     1       7.642   5.210  15.227  0.00  0.00    +0.000 N 
ATOM      4  N   UNL     1       5.570   4.226  14.955  0.00  0.00    +0.000 N 
ATOM      5  C   UNL     1       4.834   4.753  15.960  0.00  0.00    +0.000 A 
ATOM      6  N   UNL     1       3.979   4.058  16.680  0.00  0.00    +0.000 NA
ATOM      7  C   UNL     1       3.454   4.840  17.705  0.00  0.00    +0.000 A 
ATOM      8  C   UNL     1       3.771   6.179  17.615  0.00  0.00    +0.000 A 
ATOM      9  S   UNL     1       4.891   6.437  16.360  0.00  0.00    +0.000 S 
ATOM     10  H   UNL     1       7.950   4.750  12.964  0.00  0.00    +0.000 HD
ATOM     11  H   UNL     1       8.410   5.728  14.824  0.00  0.00    +0.000 HD
ATOM     12  H   UNL     1       7.301   5.586  16.103  0.00  0.00    +0.000 HD
ATOM     13  H   UNL     1       5.095   3.529  14.394  0.00  0.00    +0.000 HD
ENDROOT
BRANCH   7  14
ATOM     14  C   UNL     1       2.617   4.267  18.759  0.00  0.00    +0.000 A 
ATOM     15  C   UNL     1       1.882   3.103  18.483  0.00  0.00    +0.000 A 
ATOM     16  C   UNL     1       1.079   2.512  19.463  0.00  0.00    +0.000 A 
ATOM     17  C   UNL     1       1.005   3.069  20.738  0.00  0.00    +0.000 A 
ATOM     18  C   UNL     1       1.740   4.213  21.038  0.00  0.00    +0.000 A 
ATOM     19  C   UNL     1       2.542   4.803  20.058  0.00  0.00    +0.000 A 
BRANCH  19  20
ATOM     20  O   UNL     1       3.280   5.908  20.401  0.00  0.00    +0.000 OA
ATOM     21  H   UNL     1       4.073   5.944  19.843  0.00  0.00    +0.000 HD
ENDBRANCH  19  20
ENDBRANCH   7  14
TORSDOF 2
ENDMDL
MODEL 6
REMARK VINA RESULT:      -6.4      3.339      4.338
REMARK  Name = 
REMARK  2 active torsions:
REMARK  status: ('A' for Active; 'I' for Inactive)
REMARK    1  A    between atoms: C_7  and  C_8
REMARK    2  A    between atoms: C_13  and  O_14
REMARK                            x       y       z     vdW  Elec       q    Type
REMARK                         _______ _______ _______ _____ _____    ______ ____
ROOT
ATOM      1  N   UNL     1       8.239   4.064  17.610  0.00  0.00    +0.000 NA
ATOM      2  C   UNL     1       7.117   4.565  17.222  0.00  0.00    +0.000 C 
ATOM      3  N   UNL     1       6.685   4.420  15.950  0.00  0.00    +0.000 N 
ATOM      4  N   UNL     1       6.376   5.346  18.044  0.00  0.00    +0.000 N 
ATOM      5  C   UNL     1       5.038   5.534  18.113  0.00  0.00    +0.000 A 
ATOM      6  N   UNL     1       4.478   6.603  18.637  0.00  0.00    +0.000 NA
ATOM      7  C   UNL     1       3.096   6.564  18.469  0.00  0.00    +0.000 A 
ATOM      8  C   UNL     1       2.617   5.359  18.000  0.00  0.00    +0.000 A 
ATOM      9  S   UNL     1       3.909   4.335  17.576  0.00  0.00    +0.000 S 
ATOM     10  H   UNL     1       8.659   3.553  16.831  0.00  0.00    +0.000 HD
ATOM     11  H   UNL     1       7.073   3.679  15.384  0.00  0.00    +0.000 HD
ATOM     12  H   UNL     1       5.709   4.618  15.766  0.00  0.00    +0.000 HD
ATOM     13  H   UNL     1       6.899   5.684  18.842  0.00  0.00    +0.000 HD
ENDROOT
BRANCH   7  14
ATOM     14  C   UNL     1       2.247   7.709  18.798  0.00  0.00    +0.000 A 
ATOM     15  C   UNL     1       1.902   8.611  17.779  0.00  0.00    +0.000 A 
ATOM     16  C   UNL     1       1.083   9.713  18.043  0.00  0.00    +0.000 A 
ATOM     17  C   UNL     1       0.587   9.926  19.327  0.00  0.00    +0.000 A 
ATOM     18  C   UNL     1       0.904   9.034  20.349  0.00  0.00    +0.000 A 
ATOM     19  C   UNL     1       1.722   7.933  20.084  0.00  0.00    +0.000 A 
BRANCH  19  20
ATOM     20  O   UNL     1       1.982   7.056  21.106  0.00  0.00    +0.000 OA
ATOM     21  H   UNL     1       1.794   7.491  21.953  0.00  0.00    +0.000 HD
ENDBRANCH  19  20
ENDBRANCH   7  14
TORSDOF 2
ENDMDL
MODEL 7
REMARK VINA RESULT:      -6.3      4.143      5.436
REMARK  Name = 
REMARK  2 active torsions:
REMARK  status: ('A' for Active; 'I' for Inactive)
REMARK    1  A    between atoms: C_7  and  C_8
REMARK    2  A    between atoms: C_13  and  O_14
REMARK                            x       y       z     vdW  Elec       q    Type
REMARK                         _______ _______ _______ _____ _____    ______ ____
ROOT
ATOM      1  N   UNL     1       5.074   2.634  19.278  0.00  0.00    +0.000 NA
ATOM      2  C   UNL     1       5.024   3.921  19.287  0.00  0.00    +0.000 C 
ATOM      3  N   UNL     1       6.148   4.669  19.339  0.00  0.00    +0.000 N 
ATOM      4  N   UNL     1       3.840   4.577  19.351  0.00  0.00    +0.000 N 
ATOM      5  C   UNL     1       3.472   5.784  18.863  0.00  0.00    +0.000 A 
ATOM      6  N   UNL     1       2.468   6.488  19.339  0.00  0.00    +0.000 NA
ATOM      7  C   UNL     1       2.398   7.728  18.711  0.00  0.00    +0.000 A 
ATOM      8  C   UNL     1       3.232   7.859  17.621  0.00  0.00    +0.000 A 
ATOM      9  S   UNL     1       4.254   6.503  17.494  0.00  0.00    +0.000 S 
ATOM     10  H   UNL     1       6.053   2.342  19.278  0.00  0.00    +0.000 HD
ATOM     11  H   UNL     1       7.026   4.249  19.069  0.00  0.00    +0.000 HD
ATOM     12  H   UNL     1       6.065   5.649  19.103  0.00  0.00    +0.000 HD
ATOM     13  H   UNL     1       3.076   3.980  19.642  0.00  0.00    +0.000 HD
ENDROOT
BRANCH   7  14
ATOM     14  C   UNL     1       1.487   8.775  19.174  0.00  0.00    +0.000 A 
ATOM     15  C   UNL     1       0.914   9.641  18.228  0.00  0.00    +0.000 A 
ATOM     16  C   UNL     1       0.029  10.649  18.622  0.00  0.00    +0.000 A 
ATOM     17  C   UNL     1      -0.307  10.802  19.965  0.00  0.00    +0.000 A 
ATOM     18  C   UNL     1       0.237   9.942  20.917  0.00  0.00    +0.000 A 
ATOM     19  C   UNL     1       1.122   8.936  20.523  0.00  0.00    +0.000 A 
BRANCH  19  20
ATOM     20  O   UNL     1       1.608   8.085  21.483  0.00  0.00    +0.000 OA
ATOM     21  H   UNL     1       2.468   8.413  21.790  0.00  0.00    +0.000 HD
ENDBRANCH  19  20
ENDBRANCH   7  14
TORSDOF 2
ENDMDL
MODEL 8
REMARK VINA RESULT:      -6.3      3.132      3.960
REMARK  Name = 
REMARK  2 active torsions:
REMARK  status: ('A' for Active; 'I' for Inactive)
REMARK    1  A    between atoms: C_7  and  C_8
REMARK    2  A    between atoms: C_13  and  O_14
REMARK                            x       y       z     vdW  Elec       q    Type
REMARK                         _______ _______ _______ _____ _____    ______ ____
ROOT
ATOM      1  N   UNL     1       7.544   5.163  14.414  0.00  0.00    +0.000 NA
ATOM      2  C   UNL     1       6.333   5.168  14.853  0.00  0.00    +0.000 C 
ATOM      3  N   UNL     1       5.372   4.415  14.273  0.00  0.00    +0.000 N 
ATOM      4  N   UNL     1       5.950   6.006  15.846  0.00  0.00    +0.000 N 
ATOM      5  C   UNL     1       5.000   5.868  16.800  0.00  0.00    +0.000 A 
ATOM      6  N   UNL     1       4.435   6.883  17.418  0.00  0.00    +0.000 NA
ATOM      7  C   UNL     1       3.423   6.438  18.265  0.00  0.00    +0.000 A 
ATOM      8  C   UNL     1       3.380   5.069  18.425  0.00  0.00    +0.000 A 
ATOM      9  S   UNL     1       4.477   4.316  17.363  0.00  0.00    +0.000 S 
ATOM     10  H   UNL     1       7.612   4.501  13.639  0.00  0.00    +0.000 HD
ATOM     11  H   UNL     1       5.647   3.629  13.702  0.00  0.00    +0.000 HD
ATOM     12  H   UNL     1       4.517   4.273  14.795  0.00  0.00    +0.000 HD
ATOM     13  H   UNL     1       6.609   6.758  16.002  0.00  0.00    +0.000 HD
ENDROOT
BRANCH   7  14
ATOM     14  C   UNL     1       2.515   7.369  18.935  0.00  0.00    +0.000 A 
ATOM     15  C   UNL     1       2.135   7.107  20.261  0.00  0.00    +0.000 A 
ATOM     16  C   UNL     1       1.280   7.975  20.947  0.00  0.00    +0.000 A 
ATOM     17  C   UNL     1       0.798   9.123  20.323  0.00  0.00    +0.000 A 
ATOM     18  C   UNL     1       1.177   9.410  19.013  0.00  0.00    +0.000 A 
ATOM     19  C   UNL     1       2.032   8.543  18.329  0.00  0.00    +0.000 A 
BRANCH  19  20
ATOM     20  O   UNL     1       2.413   8.877  17.054  0.00  0.00    +0.000 OA
ATOM     21  H   UNL     1       2.680   8.073  16.582  0.00  0.00    +0.000 HD
ENDBRANCH  19  20
ENDBRANCH   7  14
TORSDOF 2
ENDMDL
MODEL 9
REMARK VINA RESULT:      -6.3      2.505      6.495
REMARK  Name = 
REMARK  2 active torsions:
REMARK  status: ('A' for Active; 'I' for Inactive)
REMARK    1  A    between atoms: C_7  and  C_8
REMARK    2  A    between atoms: C_13  and  O_14
REMARK                            x       y       z     vdW  Elec       q    Type
REMARK                         _______ _______ _______ _____ _____    ______ ____
ROOT
ATOM      1  N   UNL     1       2.796   2.668  20.697  0.00  0.00    +0.000 NA
ATOM      2  C   UNL     1       2.773   3.215  19.531  0.00  0.00    +0.000 C 
ATOM      3  N   UNL     1       1.667   3.840  19.069  0.00  0.00    +0.000 N 
ATOM      4  N   UNL     1       3.820   3.096  18.678  0.00  0.00    +0.000 N 
ATOM      5  C   UNL     1       4.274   3.933  17.717  0.00  0.00    +0.000 A 
ATOM      6  N   UNL     1       5.002   3.540  16.694  0.00  0.00    +0.000 NA
ATOM      7  C   UNL     1       5.228   4.599  15.819  0.00  0.00    +0.000 A 
ATOM      8  C   UNL     1       4.834   5.828  16.304  0.00  0.00    +0.000 A 
ATOM      9  S   UNL     1       3.999   5.642  17.776  0.00  0.00    +0.000 S 
ATOM     10  H   UNL     1       1.899   2.833  21.158  0.00  0.00    +0.000 HD
ATOM     11  H   UNL     1       0.968   4.146  19.731  0.00  0.00    +0.000 HD
ATOM     12  H   UNL     1       1.778   4.449  18.268  0.00  0.00    +0.000 HD
ATOM     13  H   UNL     1       4.458   2.357  18.942  0.00  0.00    +0.000 HD
ENDROOT
BRANCH   7  14
ATOM     14  C   UNL     1       5.856   4.398  14.513  0.00  0.00    +0.000 A 
ATOM     15  C   UNL     1       5.178   3.640  13.544  0.00  0.00    +0.000 A 
ATOM     16  C   UNL     1       5.733   3.433  12.278  0.00  0.00    +0.000 A 
ATOM     17  C   UNL     1       6.970   3.987  11.955  0.00  0.00    +0.000 A 
ATOM     18  C   UNL     1       7.650   4.757  12.896  0.00  0.00    +0.000 A 
ATOM     19  C   UNL     1       7.095   4.964  14.160  0.00  0.00    +0.000 A 
BRANCH  19  20
ATOM     20  O   UNL     1       7.777   5.758  15.048  0.00  0.00    +0.000 OA
ATOM     21  H   UNL     1       8.661   5.943  14.693  0.00  0.00    +0.000 HD
ENDBRANCH  19  20
ENDBRANCH   7  14
TORSDOF 2
ENDMDL
