MODEL 1
REMARK VINA RESULT:      -7.1      0.000      0.000
REMARK  Name = 
REMARK  8 active torsions:
REMARK  status: ('A' for Active; 'I' for Inactive)
REMARK    1  A    between atoms: C_1  and  O_2
REMARK    2  A    between atoms: O_2  and  C_3
REMARK    3  A    between atoms: C_7  and  O_8
REMARK    4  A    between atoms: O_8  and  C_9
REMARK    5  A    between atoms: C_10  and  C_11
REMARK    6  A    between atoms: N_13  and  C_14
REMARK    7  A    between atoms: C_14  and  C_15
REMARK    8  A    between atoms: C_14  and  C_16
REMARK                            x       y       z     vdW  Elec       q    Type
REMARK                         _______ _______ _______ _____ _____    ______ ____
ROOT
ATOM      1  C   UNL     1       4.902   5.109  18.771  0.00  0.00    +0.000 C 
ATOM      2  O   UNL     1       5.749   5.740  19.387  0.00  0.00    +0.000 OA
ATOM      3  N   UNL     1       5.206   4.717  17.481  0.00  0.00    +0.000 N 
ATOM      4  H   UNL     1       4.499   4.229  16.942  0.00  0.00    +0.000 HD
ENDROOT
BRANCH   1  10
ATOM      5  C   UNL     1       3.274   3.330  19.641  0.00  0.00    +0.000 A 
ATOM      6  C   UNL     1       2.115   2.941  20.342  0.00  0.00    +0.000 A 
ATOM      7  C   UNL     1       1.184   3.874  20.753  0.00  0.00    +0.000 A 
ATOM      8  C   UNL     1       1.420   5.207  20.473  0.00  0.00    +0.000 A 
ATOM      9  C   UNL     1       2.589   5.659  19.813  0.00  0.00    +0.000 A 
ATOM     10  C   UNL     1       3.568   4.713  19.397  0.00  0.00    +0.000 A 
BRANCH   5  12
ATOM     11  C   UNL     1       3.656   1.387  18.303  0.00  0.00    +0.000 C 
ATOM     12  O   UNL     1       4.167   2.360  19.220  0.00  0.00    +0.000 OA
ENDBRANCH   5  12
BRANCH   9  13
ATOM     13  O   UNL     1       2.473   7.018  19.749  0.00  0.00    +0.000 OA
ATOM     14  C   UNL     1       2.348   7.781  18.573  0.00  0.00    +0.000 C 
ENDBRANCH   9  13
ENDBRANCH   1  10
BRANCH   3  15
ATOM     15  C   UNL     1       6.462   5.100  16.838  0.00  0.00    +0.000 C 
ATOM     16  C   UNL     1       7.669   4.494  17.556  0.00  0.00    +0.000 C 
BRANCH  15  17
ATOM     17  C   UNL     1       6.463   4.748  15.358  0.00  0.00    +0.000 A 
ATOM     18  C   UNL     1       7.498   5.215  14.530  0.00  0.00    +0.000 A 
ATOM     19  C   UNL     1       7.528   4.894  13.172  0.00  0.00    +0.000 A 
ATOM     20  C   UNL     1       6.525   4.100  12.621  0.00  0.00    +0.000 A 
ATOM     21  C   UNL     1       5.490   3.627  13.429  0.00  0.00    +0.000 A 
ATOM     22  C   UNL     1       5.461   3.951  14.789  0.00  0.00    +0.000 A 
ENDBRANCH  15  17
ENDBRANCH   3  15
TORSDOF 5
ENDMDL
MODEL 2
REMARK VINA RESULT:      -7.0      0.150      1.063
REMARK  Name = 
REMARK  8 active torsions:
REMARK  status: ('A' for Active; 'I' for Inactive)
REMARK    1  A    between atoms: C_1  and  O_2
REMARK    2  A    between atoms: O_2  and  C_3
REMARK    3  A    between atoms: C_7  and  O_8
REMARK    4  A    between atoms: O_8  and  C_9
REMARK    5  A    between atoms: C_10  and  C_11
REMARK    6  A    between atoms: N_13  and  C_14
REMARK    7  A    between atoms: C_14  and  C_15
REMARK    8  A    between atoms: C_14  and  C_16
REMARK                            x       y       z     vdW  Elec       q    Type
REMARK                         _______ _______ _______ _____ _____    ______ ____
ROOT
ATOM      1  C   UNL     1       4.824   5.135  18.831  0.00  0.00    +0.000 C 
ATOM      2  O   UNL     1       5.568   5.929  19.391  0.00  0.00    +0.000 OA
ATOM      3  N   UNL     1       5.230   4.628  17.611  0.00  0.00    +0.000 N 
ATOM      4  H   UNL     1       4.607   4.001  17.114  0.00  0.00    +0.000 HD
ENDROOT
BRANCH   1  10
ATOM      5  C   UNL     1       3.288   3.268  19.682  0.00  0.00    +0.000 A 
ATOM      6  C   UNL     1       2.152   2.814  20.383  0.00  0.00    +0.000 A 
ATOM      7  C   UNL     1       1.180   3.697  20.812  0.00  0.00    +0.000 A 
ATOM      8  C   UNL     1       1.351   5.043  20.551  0.00  0.00    +0.000 A 
ATOM      9  C   UNL     1       2.494   5.559  19.892  0.00  0.00    +0.000 A 
ATOM     10  C   UNL     1       3.515   4.667  19.457  0.00  0.00    +0.000 A 
BRANCH   5  12
ATOM     11  C   UNL     1       3.737   1.321  18.372  0.00  0.00    +0.000 C 
ATOM     12  O   UNL     1       4.223   2.348  19.243  0.00  0.00    +0.000 OA
ENDBRANCH   5  12
BRANCH   9  13
ATOM     13  O   UNL     1       2.314   6.912  19.849  0.00  0.00    +0.000 OA
ATOM     14  C   UNL     1       2.340   7.711  18.691  0.00  0.00    +0.000 C 
ENDBRANCH   9  13
ENDBRANCH   1  10
BRANCH   3  15
ATOM     15  C   UNL     1       6.465   5.072  16.967  0.00  0.00    +0.000 C 
ATOM     16  C   UNL     1       7.700   4.513  17.674  0.00  0.00    +0.000 C 
BRANCH  15  17
ATOM     17  C   UNL     1       6.475   4.734  15.484  0.00  0.00    +0.000 A 
ATOM     18  C   UNL     1       5.425   3.979  14.932  0.00  0.00    +0.000 A 
ATOM     19  C   UNL     1       5.405   3.669  13.571  0.00  0.00    +0.000 A 
ATOM     20  C   UNL     1       6.434   4.108  12.741  0.00  0.00    +0.000 A 
ATOM     21  C   UNL     1       7.483   4.860  13.272  0.00  0.00    +0.000 A 
ATOM     22  C   UNL     1       7.502   5.169  14.635  0.00  0.00    +0.000 A 
ENDBRANCH  15  17
ENDBRANCH   3  15
TORSDOF 5
ENDMDL
MODEL 3
REMARK VINA RESULT:      -7.0      1.028      1.028
REMARK  Name = 
REMARK  8 active torsions:
REMARK  status: ('A' for Active; 'I' for Inactive)
REMARK    1  A    between atoms: C_1  and  O_2
REMARK    2  A    between atoms: O_2  and  C_3
REMARK    3  A    between atoms: C_7  and  O_8
REMARK    4  A    between atoms: O_8  and  C_9
REMARK    5  A    between atoms: C_10  and  C_11
REMARK    6  A    between atoms: N_13  and  C_14
REMARK    7  A    between atoms: C_14  and  C_15
REMARK    8  A    between atoms: C_14  and  C_16
REMARK                            x       y       z     vdW  Elec       q    Type
REMARK                         _______ _______ _______ _____ _____    ______ ____
ROOT
ATOM      1  C   UNL     1       4.248   5.587  18.073  0.00  0.00    +0.000 C 
ATOM      2  O   UNL     1       4.315   6.723  17.625  0.00  0.00    +0.000 OA
ATOM      3  N   UNL     1       5.348   4.765  17.906  0.00  0.00    +0.000 N 
ATOM      4  H   UNL     1       5.293   3.808  18.234  0.00  0.00    +0.000 HD
ENDROOT
BRANCH   1  10
ATOM      5  C   UNL     1       2.610   3.717  18.699  0.00  0.00    +0.000 A 
ATOM      6  C   UNL     1       1.574   3.186  19.494  0.00  0.00    +0.000 A 
ATOM      7  C   UNL     1       0.874   3.983  20.377  0.00  0.00    +0.000 A 
ATOM      8  C   UNL     1       1.220   5.317  20.479  0.00  0.00    +0.000 A 
ATOM      9  C   UNL     1       2.282   5.893  19.740  0.00  0.00    +0.000 A 
ATOM     10  C   UNL     1       3.027   5.084  18.836  0.00  0.00    +0.000 A 
BRANCH   5  12
ATOM     11  C   UNL     1       3.503   1.550  18.241  0.00  0.00    +0.000 C 
ATOM     12  O   UNL     1       3.267   2.892  17.804  0.00  0.00    +0.000 OA
ENDBRANCH   5  12
BRANCH   9  13
ATOM     13  O   UNL     1       2.334   7.201  20.129  0.00  0.00    +0.000 OA
ATOM     14  C   UNL     1       1.383   7.863  20.929  0.00  0.00    +0.000 C 
ENDBRANCH   9  13
ENDBRANCH   1  10
BRANCH   3  15
ATOM     15  C   UNL     1       6.525   5.202  17.157  0.00  0.00    +0.000 C 
ATOM     16  C   UNL     1       7.819   4.713  17.809  0.00  0.00    +0.000 C 
BRANCH  15  17
ATOM     17  C   UNL     1       6.447   4.784  15.697  0.00  0.00    +0.000 A 
ATOM     18  C   UNL     1       7.415   5.241  14.787  0.00  0.00    +0.000 A 
ATOM     19  C   UNL     1       7.373   4.859  13.445  0.00  0.00    +0.000 A 
ATOM     20  C   UNL     1       6.362   4.015  12.992  0.00  0.00    +0.000 A 
ATOM     21  C   UNL     1       5.393   3.551  13.882  0.00  0.00    +0.000 A 
ATOM     22  C   UNL     1       5.436   3.935  15.227  0.00  0.00    +0.000 A 
ENDBRANCH  15  17
ENDBRANCH   3  15
TORSDOF 5
ENDMDL
MODEL 4
REMARK VINA RESULT:      -6.9      1.614      6.239
REMARK  Name = 
REMARK  8 active torsions:
REMARK  status: ('A' for Active; 'I' for Inactive)
REMARK    1  A    between atoms: C_1  and  O_2
REMARK    2  A    between atoms: O_2  and  C_3
REMARK    3  A    between atoms: C_7  and  O_8
REMARK    4  A    between atoms: O_8  and  C_9
REMARK    5  A    between atoms: C_10  and  C_11
REMARK    6  A    between atoms: N_13  and  C_14
REMARK    7  A    between atoms: C_14  and  C_15
REMARK    8  A    between atoms: C_14  and  C_16
REMARK                            x       y       z     vdW  Elec       q    Type
REMARK                         _______ _______ _______ _____ _____    ______ ____
ROOT
ATOM      1  C   UNL     1       5.003   5.368  18.350  0.00  0.00    +0.000 C 
ATOM      2  O   UNL     1       5.575   5.171  19.414  0.00  0.00    +0.000 OA
ATOM      3  N   UNL     1       3.732   5.911  18.395  0.00  0.00    +0.000 N 
ATOM      4  H   UNL     1       3.229   6.041  17.526  0.00  0.00    +0.000 HD
ENDROOT
BRANCH   1  10
ATOM      5  C   UNL     1       5.007   4.229  16.054  0.00  0.00    +0.000 A 
ATOM      6  C   UNL     1       5.522   4.053  14.754  0.00  0.00    +0.000 A 
ATOM      7  C   UNL     1       6.717   4.632  14.377  0.00  0.00    +0.000 A 
ATOM      8  C   UNL     1       7.396   5.403  15.300  0.00  0.00    +0.000 A 
ATOM      9  C   UNL     1       6.903   5.652  16.605  0.00  0.00    +0.000 A 
ATOM     10  C   UNL     1       5.664   5.078  17.007  0.00  0.00    +0.000 A 
BRANCH   5  12
ATOM     11  C   UNL     1       3.925   2.520  17.325  0.00  0.00    +0.000 C 
ATOM     12  O   UNL     1       3.821   3.607  16.401  0.00  0.00    +0.000 OA
ENDBRANCH   5  12
BRANCH   9  13
ATOM     13  O   UNL     1       7.825   6.467  17.197  0.00  0.00    +0.000 OA
ATOM     14  C   UNL     1       7.650   7.832  17.495  0.00  0.00    +0.000 C 
ENDBRANCH   9  13
ENDBRANCH   1  10
BRANCH   3  15
ATOM     15  C   UNL     1       3.056   6.177  19.664  0.00  0.00    +0.000 C 
ATOM     16  C   UNL     1       2.092   7.359  19.551  0.00  0.00    +0.000 C 
BRANCH  15  17
ATOM     17  C   UNL     1       2.353   4.937  20.193  0.00  0.00    +0.000 A 
ATOM     18  C   UNL     1       1.380   4.296  19.406  0.00  0.00    +0.000 A 
ATOM     19  C   UNL     1       0.731   3.148  19.864  0.00  0.00    +0.000 A 
ATOM     20  C   UNL     1       1.044   2.624  21.116  0.00  0.00    +0.000 A 
ATOM     21  C   UNL     1       2.007   3.247  21.911  0.00  0.00    +0.000 A 
ATOM     22  C   UNL     1       2.656   4.397  21.450  0.00  0.00    +0.000 A 
ENDBRANCH  15  17
ENDBRANCH   3  15
TORSDOF 5
ENDMDL
MODEL 5
REMARK VINA RESULT:      -6.8      1.240      3.164
REMARK  Name = 
REMARK  8 active torsions:
REMARK  status: ('A' for Active; 'I' for Inactive)
REMARK    1  A    between atoms: C_1  and  O_2
REMARK    2  A    between atoms: O_2  and  C_3
REMARK    3  A    between atoms: C_7  and  O_8
REMARK    4  A    between atoms: O_8  and  C_9
REMARK    5  A    between atoms: C_10  and  C_11
REMARK    6  A    between atoms: N_13  and  C_14
REMARK    7  A    between atoms: C_14  and  C_15
REMARK    8  A    between atoms: C_14  and  C_16
REMARK                            x       y       z     vdW  Elec       q    Type
REMARK                         _______ _______ _______ _____ _____    ______ ____
ROOT
ATOM      1  C   UNL     1       3.873   5.898  17.757  0.00  0.00    +0.000 C 
ATOM      2  O   UNL     1       3.708   7.082  17.497  0.00  0.00    +0.000 OA
ATOM      3  N   UNL     1       4.986   5.273  17.225  0.00  0.00    +0.000 N 
ATOM      4  H   UNL     1       5.115   4.283  17.397  0.00  0.00    +0.000 HD
ENDROOT
BRANCH   1  10
ATOM      5  C   UNL     1       2.216   5.815  19.711  0.00  0.00    +0.000 A 
ATOM      6  C   UNL     1       1.232   5.162  20.480  0.00  0.00    +0.000 A 
ATOM      7  C   UNL     1       0.971   3.817  20.310  0.00  0.00    +0.000 A 
ATOM      8  C   UNL     1       1.688   3.122  19.354  0.00  0.00    +0.000 A 
ATOM      9  C   UNL     1       2.654   3.737  18.521  0.00  0.00    +0.000 A 
ATOM     10  C   UNL     1       2.926   5.127  18.670  0.00  0.00    +0.000 A 
BRANCH   5  12
ATOM     11  C   UNL     1       1.555   7.834  20.804  0.00  0.00    +0.000 C 
ATOM     12  O   UNL     1       2.468   7.157  19.934  0.00  0.00    +0.000 OA
ENDBRANCH   5  12
BRANCH   9  13
ATOM     13  O   UNL     1       3.115   2.748  17.700  0.00  0.00    +0.000 OA
ATOM     14  C   UNL     1       3.607   1.495  18.113  0.00  0.00    +0.000 C 
ENDBRANCH   9  13
ENDBRANCH   1  10
BRANCH   3  15
ATOM     15  C   UNL     1       5.901   5.972  16.324  0.00  0.00    +0.000 C 
ATOM     16  C   UNL     1       7.229   6.294  17.010  0.00  0.00    +0.000 C 
BRANCH  15  17
ATOM     17  C   UNL     1       6.117   5.195  15.034  0.00  0.00    +0.000 A 
ATOM     18  C   UNL     1       5.115   4.328  14.565  0.00  0.00    +0.000 A 
ATOM     19  C   UNL     1       5.284   3.615  13.377  0.00  0.00    +0.000 A 
ATOM     20  C   UNL     1       6.458   3.757  12.640  0.00  0.00    +0.000 A 
ATOM     21  C   UNL     1       7.463   4.614  13.091  0.00  0.00    +0.000 A 
ATOM     22  C   UNL     1       7.292   5.327  14.282  0.00  0.00    +0.000 A 
ENDBRANCH  15  17
ENDBRANCH   3  15
TORSDOF 5
ENDMDL
MODEL 6
REMARK VINA RESULT:      -6.8      1.621      6.217
REMARK  Name = 
REMARK  8 active torsions:
REMARK  status: ('A' for Active; 'I' for Inactive)
REMARK    1  A    between atoms: C_1  and  O_2
REMARK    2  A    between atoms: O_2  and  C_3
REMARK    3  A    between atoms: C_7  and  O_8
REMARK    4  A    between atoms: O_8  and  C_9
REMARK    5  A    between atoms: C_10  and  C_11
REMARK    6  A    between atoms: N_13  and  C_14
REMARK    7  A    between atoms: C_14  and  C_15
REMARK    8  A    between atoms: C_14  and  C_16
REMARK                            x       y       z     vdW  Elec       q    Type
REMARK                         _______ _______ _______ _____ _____    ______ ____
ROOT
ATOM      1  C   UNL     1       4.998   5.364  18.369  0.00  0.00    +0.000 C 
ATOM      2  O   UNL     1       5.551   5.142  19.438  0.00  0.00    +0.000 OA
ATOM      3  N   UNL     1       3.732   5.920  18.406  0.00  0.00    +0.000 N 
ATOM      4  H   UNL     1       3.243   6.072  17.532  0.00  0.00    +0.000 HD
ENDROOT
BRANCH   1  10
ATOM      5  C   UNL     1       5.032   4.258  16.058  0.00  0.00    +0.000 A 
ATOM      6  C   UNL     1       5.563   4.101  14.762  0.00  0.00    +0.000 A 
ATOM      7  C   UNL     1       6.763   4.686  14.408  0.00  0.00    +0.000 A 
ATOM      8  C   UNL     1       7.430   5.444  15.351  0.00  0.00    +0.000 A 
ATOM      9  C   UNL     1       6.920   5.674  16.652  0.00  0.00    +0.000 A 
ATOM     10  C   UNL     1       5.676   5.094  17.030  0.00  0.00    +0.000 A 
BRANCH   5  12
ATOM     11  C   UNL     1       3.932   2.549  17.313  0.00  0.00    +0.000 C 
ATOM     12  O   UNL     1       3.842   3.630  16.380  0.00  0.00    +0.000 OA
ENDBRANCH   5  12
BRANCH   9  13
ATOM     13  O   UNL     1       7.833   6.482  17.268  0.00  0.00    +0.000 OA
ATOM     14  C   UNL     1       7.672   7.853  17.539  0.00  0.00    +0.000 C 
ENDBRANCH   9  13
ENDBRANCH   1  10
BRANCH   3  15
ATOM     15  C   UNL     1       3.039   6.168  19.669  0.00  0.00    +0.000 C 
ATOM     16  C   UNL     1       2.068   7.344  19.557  0.00  0.00    +0.000 C 
BRANCH  15  17
ATOM     17  C   UNL     1       2.339   4.918  20.178  0.00  0.00    +0.000 A 
ATOM     18  C   UNL     1       2.666   4.400  21.444  0.00  0.00    +0.000 A 
ATOM     19  C   UNL     1       2.027   3.262  21.939  0.00  0.00    +0.000 A 
ATOM     20  C   UNL     1       1.052   2.624  21.176  0.00  0.00    +0.000 A 
ATOM     21  C   UNL     1       0.715   3.124  19.918  0.00  0.00    +0.000 A 
ATOM     22  C   UNL     1       1.356   4.264  19.423  0.00  0.00    +0.000 A 
ENDBRANCH  15  17
ENDBRANCH   3  15
TORSDOF 5
ENDMDL
MODEL 7
REMARK VINA RESULT:      -6.7      2.470      4.376
REMARK  Name = 
REMARK  8 active torsions:
REMARK  status: ('A' for Active; 'I' for Inactive)
REMARK    1  A    between atoms: C_1  and  O_2
REMARK    2  A    between atoms: O_2  and  C_3
REMARK    3  A    between atoms: C_7  and  O_8
REMARK    4  A    between atoms: O_8  and  C_9
REMARK    5  A    between atoms: C_10  and  C_11
REMARK    6  A    between atoms: N_13  and  C_14
REMARK    7  A    between atoms: C_14  and  C_15
REMARK    8  A    between atoms: C_14  and  C_16
REMARK                            x       y       z     vdW  Elec       q    Type
REMARK                         _______ _______ _______ _____ _____    ______ ____
ROOT
ATOM      1  C   UNL     1       5.824   5.403  15.321  0.00  0.00    +0.000 C 
ATOM      2  O   UNL     1       5.211   6.303  14.764  0.00  0.00    +0.000 OA
ATOM      3  N   UNL     1       6.721   4.672  14.564  0.00  0.00    +0.000 N 
ATOM      4  H   UNL     1       7.206   3.897  15.000  0.00  0.00    +0.000 HD
ENDROOT
BRANCH   1  10
ATOM      5  C   UNL     1       6.594   5.648  17.753  0.00  0.00    +0.000 A 
ATOM      6  C   UNL     1       6.393   5.510  19.142  0.00  0.00    +0.000 A 
ATOM      7  C   UNL     1       5.328   4.784  19.638  0.00  0.00    +0.000 A 
ATOM      8  C   UNL     1       4.451   4.203  18.743  0.00  0.00    +0.000 A 
ATOM      9  C   UNL     1       4.578   4.348  17.339  0.00  0.00    +0.000 A 
ATOM     10  C   UNL     1       5.660   5.107  16.808  0.00  0.00    +0.000 A 
BRANCH   5  12
ATOM     11  C   UNL     1       7.776   7.723  17.715  0.00  0.00    +0.000 C 
ATOM     12  O   UNL     1       7.690   6.357  17.297  0.00  0.00    +0.000 OA
ENDBRANCH   5  12
BRANCH   9  13
ATOM     13  O   UNL     1       3.523   3.668  16.802  0.00  0.00    +0.000 OA
ATOM     14  C   UNL     1       2.571   2.921  17.520  0.00  0.00    +0.000 C 
ENDBRANCH   9  13
ENDBRANCH   1  10
BRANCH   3  15
ATOM     15  C   UNL     1       6.886   4.909  13.130  0.00  0.00    +0.000 C 
ATOM     16  C   UNL     1       8.274   5.466  12.808  0.00  0.00    +0.000 C 
BRANCH  15  17
ATOM     17  C   UNL     1       6.590   3.657  12.319  0.00  0.00    +0.000 A 
ATOM     18  C   UNL     1       5.257   3.266  12.101  0.00  0.00    +0.000 A 
ATOM     19  C   UNL     1       4.959   2.129  11.348  0.00  0.00    +0.000 A 
ATOM     20  C   UNL     1       5.988   1.365  10.802  0.00  0.00    +0.000 A 
ATOM     21  C   UNL     1       7.317   1.739  11.009  0.00  0.00    +0.000 A 
ATOM     22  C   UNL     1       7.614   2.878  11.764  0.00  0.00    +0.000 A 
ENDBRANCH  15  17
ENDBRANCH   3  15
TORSDOF 5
ENDMDL
MODEL 8
REMARK VINA RESULT:      -6.7      0.464      3.014
REMARK  Name = 
REMARK  8 active torsions:
REMARK  status: ('A' for Active; 'I' for Inactive)
REMARK    1  A    between atoms: C_1  and  O_2
REMARK    2  A    between atoms: O_2  and  C_3
REMARK    3  A    between atoms: C_7  and  O_8
REMARK    4  A    between atoms: O_8  and  C_9
REMARK    5  A    between atoms: C_10  and  C_11
REMARK    6  A    between atoms: N_13  and  C_14
REMARK    7  A    between atoms: C_14  and  C_15
REMARK    8  A    between atoms: C_14  and  C_16
REMARK                            x       y       z     vdW  Elec       q    Type
REMARK                         _______ _______ _______ _____ _____    ______ ____
ROOT
ATOM      1  C   UNL     1       4.924   4.990  18.972  0.00  0.00    +0.000 C 
ATOM      2  O   UNL     1       5.777   5.600  19.602  0.00  0.00    +0.000 OA
ATOM      3  N   UNL     1       5.195   4.691  17.649  0.00  0.00    +0.000 N 
ATOM      4  H   UNL     1       4.482   4.223  17.101  0.00  0.00    +0.000 HD
ENDROOT
BRANCH   1  10
ATOM      5  C   UNL     1       2.605   5.479  19.949  0.00  0.00    +0.000 A 
ATOM      6  C   UNL     1       1.338   5.068  20.409  0.00  0.00    +0.000 A 
ATOM      7  C   UNL     1       1.056   3.733  20.622  0.00  0.00    +0.000 A 
ATOM      8  C   UNL     1       2.041   2.801  20.361  0.00  0.00    +0.000 A 
ATOM      9  C   UNL     1       3.316   3.153  19.852  0.00  0.00    +0.000 A 
ATOM     10  C   UNL     1       3.620   4.522  19.610  0.00  0.00    +0.000 A 
BRANCH   5  12
ATOM     11  C   UNL     1       1.824   7.722  20.203  0.00  0.00    +0.000 C 
ATOM     12  O   UNL     1       2.857   6.828  19.777  0.00  0.00    +0.000 OA
ENDBRANCH   5  12
BRANCH   9  13
ATOM     13  O   UNL     1       3.989   1.974  19.698  0.00  0.00    +0.000 OA
ATOM     14  C   UNL     1       3.906   1.116  18.586  0.00  0.00    +0.000 C 
ENDBRANCH   9  13
ENDBRANCH   1  10
BRANCH   3  15
ATOM     15  C   UNL     1       6.421   5.146  16.995  0.00  0.00    +0.000 C 
ATOM     16  C   UNL     1       7.667   4.608  17.699  0.00  0.00    +0.000 C 
BRANCH  15  17
ATOM     17  C   UNL     1       6.427   4.798  15.515  0.00  0.00    +0.000 A 
ATOM     18  C   UNL     1       5.366   4.056  14.967  0.00  0.00    +0.000 A 
ATOM     19  C   UNL     1       5.342   3.737  13.609  0.00  0.00    +0.000 A 
ATOM     20  C   UNL     1       6.378   4.154  12.776  0.00  0.00    +0.000 A 
ATOM     21  C   UNL     1       7.439   4.891  13.303  0.00  0.00    +0.000 A 
ATOM     22  C   UNL     1       7.462   5.210  14.664  0.00  0.00    +0.000 A 
ENDBRANCH  15  17
ENDBRANCH   3  15
TORSDOF 5
ENDMDL
MODEL 9
REMARK VINA RESULT:      -6.6      1.133      2.983
REMARK  Name = 
REMARK  8 active torsions:
REMARK  status: ('A' for Active; 'I' for Inactive)
REMARK    1  A    between atoms: C_1  and  O_2
REMARK    2  A    between atoms: O_2  and  C_3
REMARK    3  A    between atoms: C_7  and  O_8
REMARK    4  A    between atoms: O_8  and  C_9
REMARK    5  A    between atoms: C_10  and  C_11
REMARK    6  A    between atoms: N_13  and  C_14
REMARK    7  A    between atoms: C_14  and  C_15
REMARK    8  A    between atoms: C_14  and  C_16
REMARK                            x       y       z     vdW  Elec       q    Type
REMARK                         _______ _______ _______ _____ _____    ______ ____
ROOT
ATOM      1  C   UNL     1       4.042   6.032  18.059  0.00  0.00    +0.000 C 
ATOM      2  O   UNL     1       3.697   7.114  17.603  0.00  0.00    +0.000 OA
ATOM      3  N   UNL     1       5.258   5.520  17.647  0.00  0.00    +0.000 N 
ATOM      4  H   UNL     1       5.539   4.606  17.983  0.00  0.00    +0.000 HD
ENDROOT
BRANCH   1  10
ATOM      5  C   UNL     1       2.269   5.989  19.910  0.00  0.00    +0.000 A 
ATOM      6  C   UNL     1       1.380   5.307  20.765  0.00  0.00    +0.000 A 
ATOM      7  C   UNL     1       1.429   3.933  20.894  0.00  0.00    +0.000 A 
ATOM      8  C   UNL     1       2.362   3.234  20.152  0.00  0.00    +0.000 A 
ATOM      9  C   UNL     1       3.247   3.863  19.243  0.00  0.00    +0.000 A 
ATOM     10  C   UNL     1       3.201   5.277  19.084  0.00  0.00    +0.000 A 
BRANCH   5  12
ATOM     11  C   UNL     1       1.444   8.024  20.850  0.00  0.00    +0.000 C 
ATOM     12  O   UNL     1       2.207   7.369  19.833  0.00  0.00    +0.000 OA
ENDBRANCH   5  12
BRANCH   9  13
ATOM     13  O   UNL     1       3.982   2.854  18.688  0.00  0.00    +0.000 OA
ATOM     14  C   UNL     1       3.467   1.742  17.995  0.00  0.00    +0.000 C 
ENDBRANCH   9  13
ENDBRANCH   1  10
BRANCH   3  15
ATOM     15  C   UNL     1       6.079   6.201  16.647  0.00  0.00    +0.000 C 
ATOM     16  C   UNL     1       7.454   6.570  17.204  0.00  0.00    +0.000 C 
BRANCH  15  17
ATOM     17  C   UNL     1       6.198   5.383  15.370  0.00  0.00    +0.000 A 
ATOM     18  C   UNL     1       7.338   5.519  14.558  0.00  0.00    +0.000 A 
ATOM     19  C   UNL     1       7.476   4.769  13.389  0.00  0.00    +0.000 A 
ATOM     20  C   UNL     1       6.479   3.872  13.014  0.00  0.00    +0.000 A 
ATOM     21  C   UNL     1       5.342   3.724  13.809  0.00  0.00    +0.000 A 
ATOM     22  C   UNL     1       5.204   4.477  14.980  0.00  0.00    +0.000 A 
ENDBRANCH  15  17
ENDBRANCH   3  15
TORSDOF 5
ENDMDL
