MODEL 1
REMARK VINA RESULT:      -7.8      0.000      0.000
REMARK  Name = 
REMARK  6 active torsions:
REMARK  status: ('A' for Active; 'I' for Inactive)
REMARK    1  A    between atoms: C_1  and  C_2
REMARK    2  A    between atoms: C_2  and  N_3
REMARK    3  A    between atoms: C_2  and  C_13
REMARK    4  A    between atoms: N_3  and  C_4
REMARK    5  A    between atoms: C_10  and  C_11
REMARK    6  A    between atoms: N_22  and  C_23
REMARK                            x       y       z     vdW  Elec       q    Type
REMARK                         _______ _______ _______ _____ _____    ______ ____
ROOT
ATOM      1  C   UNL     1       4.812   4.375  16.568  0.00  0.00    +0.000 A 
ATOM      2  N   UNL     1       4.371   3.739  15.495  0.00  0.00    +0.000 NA
ATOM      3  C   UNL     1       5.284   3.957  14.509  0.00  0.00    +0.000 A 
ATOM      4  C   UNL     1       5.280   3.482  13.184  0.00  0.00    +0.000 A 
ATOM      5  C   UNL     1       6.310   3.864  12.317  0.00  0.00    +0.000 A 
ATOM      6  C   UNL     1       7.301   4.725  12.763  0.00  0.00    +0.000 A 
ATOM      7  F   UNL     1       8.270   5.100  11.916  0.00  0.00    +0.000 F 
ATOM      8  C   UNL     1       7.317   5.220  14.067  0.00  0.00    +0.000 A 
ATOM      9  C   UNL     1       6.313   4.784  14.954  0.00  0.00    +0.000 A 
ATOM     10  N   UNL     1       6.022   5.037  16.300  0.00  0.00    +0.000 N 
ENDROOT
BRANCH  10  11
ATOM     11  C   UNL     1       6.833   5.808  17.195  0.00  0.00    +0.000 A 
ATOM     12  C   UNL     1       7.042   7.177  16.999  0.00  0.00    +0.000 A 
ATOM     13  C   UNL     1       7.800   7.917  17.907  0.00  0.00    +0.000 A 
ATOM     14  F   UNL     1       7.954   9.232  17.705  0.00  0.00    +0.000 F 
ATOM     15  C   UNL     1       8.401   7.319  18.999  0.00  0.00    +0.000 A 
ATOM     16  C   UNL     1       8.225   5.958  19.179  0.00  0.00    +0.000 A 
ATOM     17  F   UNL     1       8.806   5.353  20.222  0.00  0.00    +0.000 F 
ATOM     18  C   UNL     1       7.441   5.202  18.304  0.00  0.00    +0.000 A 
ENDBRANCH  10  11
BRANCH   1  20
ATOM     19  C   UNL     1       4.103   2.853  18.454  0.00  0.00    +0.000 C 
ATOM     20  C   UNL     1       4.127   4.299  17.929  0.00  0.00    +0.000 C 
BRANCH  20  21
ATOM     21  N   UNL     1       2.735   4.770  17.890  0.00  0.00    +0.000 N 
ATOM     22  H   UNL     1       2.225   4.489  17.058  0.00  0.00    +0.000 HD
BRANCH  21  23
ATOM     23  C   UNL     1       2.429   6.042  18.380  0.00  0.00    +0.000 A 
ATOM     24  N   UNL     1       2.474   7.081  17.522  0.00  0.00    +0.000 NA
ATOM     25  C   UNL     1       2.243   8.301  18.022  0.00  0.00    +0.000 A 
ATOM     26  N   UNL     1       1.972   8.587  19.302  0.00  0.00    +0.000 NA
ATOM     27  C   UNL     1       1.928   7.546  20.146  0.00  0.00    +0.000 A 
ATOM     28  N   UNL     1       1.732   7.888  21.482  0.00  0.00    +0.000 N 
ATOM     29  C   UNL     1       2.154   6.245  19.730  0.00  0.00    +0.000 A 
ATOM     30  H   UNL     1       1.533   8.884  21.537  0.00  0.00    +0.000 HD
ATOM     31  H   UNL     1       1.045   7.326  21.972  0.00  0.00    +0.000 HD
BRANCH  29  32
ATOM     32  C   UNL     1       2.071   5.153  20.642  0.00  0.00    +0.000 C 
ATOM     33  N   UNL     1       2.021   4.216  21.329  0.00  0.00    +0.000 NA
ENDBRANCH  29  32
ENDBRANCH  21  23
ENDBRANCH  20  21
ENDBRANCH   1  20
TORSDOF 5
ENDMDL
MODEL 2
REMARK VINA RESULT:      -7.7      0.100      1.498
REMARK  Name = 
REMARK  6 active torsions:
REMARK  status: ('A' for Active; 'I' for Inactive)
REMARK    1  A    between atoms: C_1  and  C_2
REMARK    2  A    between atoms: C_2  and  N_3
REMARK    3  A    between atoms: C_2  and  C_13
REMARK    4  A    between atoms: N_3  and  C_4
REMARK    5  A    between atoms: C_10  and  C_11
REMARK    6  A    between atoms: N_22  and  C_23
REMARK                            x       y       z     vdW  Elec       q    Type
REMARK                         _______ _______ _______ _____ _____    ______ ____
ROOT
ATOM      1  C   UNL     1       4.817   4.282  16.555  0.00  0.00    +0.000 A 
ATOM      2  N   UNL     1       4.397   3.649  15.472  0.00  0.00    +0.000 NA
ATOM      3  C   UNL     1       5.305   3.905  14.492  0.00  0.00    +0.000 A 
ATOM      4  C   UNL     1       5.319   3.449  13.160  0.00  0.00    +0.000 A 
ATOM      5  C   UNL     1       6.340   3.869  12.302  0.00  0.00    +0.000 A 
ATOM      6  C   UNL     1       7.306   4.752  12.763  0.00  0.00    +0.000 A 
ATOM      7  F   UNL     1       8.267   5.164  11.924  0.00  0.00    +0.000 F 
ATOM      8  C   UNL     1       7.305   5.229  14.073  0.00  0.00    +0.000 A 
ATOM      9  C   UNL     1       6.310   4.754  14.951  0.00  0.00    +0.000 A 
ATOM     10  N   UNL     1       6.009   4.980  16.299  0.00  0.00    +0.000 N 
ENDROOT
BRANCH  10  11
ATOM     11  C   UNL     1       6.796   5.761  17.207  0.00  0.00    +0.000 A 
ATOM     12  C   UNL     1       7.403   5.188  18.330  0.00  0.00    +0.000 A 
ATOM     13  C   UNL     1       8.201   5.958  19.177  0.00  0.00    +0.000 A 
ATOM     14  F   UNL     1       8.791   5.371  20.225  0.00  0.00    +0.000 F 
ATOM     15  C   UNL     1       8.382   7.311  18.961  0.00  0.00    +0.000 A 
ATOM     16  C   UNL     1       7.757   7.890  17.870  0.00  0.00    +0.000 A 
ATOM     17  F   UNL     1       7.908   9.201  17.645  0.00  0.00    +0.000 F 
ATOM     18  C   UNL     1       6.983   7.133  16.987  0.00  0.00    +0.000 A 
ENDBRANCH  10  11
BRANCH   1  20
ATOM     19  C   UNL     1       4.084   2.706  18.386  0.00  0.00    +0.000 C 
ATOM     20  C   UNL     1       4.131   4.169  17.912  0.00  0.00    +0.000 C 
BRANCH  20  21
ATOM     21  N   UNL     1       2.745   4.663  17.890  0.00  0.00    +0.000 N 
ATOM     22  H   UNL     1       2.216   4.374  17.073  0.00  0.00    +0.000 HD
BRANCH  21  23
ATOM     23  C   UNL     1       2.470   5.949  18.360  0.00  0.00    +0.000 A 
ATOM     24  N   UNL     1       2.604   6.981  17.504  0.00  0.00    +0.000 NA
ATOM     25  C   UNL     1       2.400   8.212  17.989  0.00  0.00    +0.000 A 
ATOM     26  N   UNL     1       2.077   8.516  19.252  0.00  0.00    +0.000 NA
ATOM     27  C   UNL     1       1.945   7.481  20.095  0.00  0.00    +0.000 A 
ATOM     28  N   UNL     1       1.696   7.837  21.419  0.00  0.00    +0.000 N 
ATOM     29  C   UNL     1       2.135   6.169  19.694  0.00  0.00    +0.000 A 
ATOM     30  H   UNL     1       1.538   8.841  21.461  0.00  0.00    +0.000 HD
ATOM     31  H   UNL     1       0.961   7.307  21.874  0.00  0.00    +0.000 HD
BRANCH  29  32
ATOM     32  C   UNL     1       1.959   5.087  20.604  0.00  0.00    +0.000 C 
ATOM     33  N   UNL     1       1.801   4.159  21.286  0.00  0.00    +0.000 NA
ENDBRANCH  29  32
ENDBRANCH  21  23
ENDBRANCH  20  21
ENDBRANCH   1  20
TORSDOF 5
ENDMDL
MODEL 3
REMARK VINA RESULT:      -7.6      2.660      4.486
REMARK  Name = 
REMARK  6 active torsions:
REMARK  status: ('A' for Active; 'I' for Inactive)
REMARK    1  A    between atoms: C_1  and  C_2
REMARK    2  A    between atoms: C_2  and  N_3
REMARK    3  A    between atoms: C_2  and  C_13
REMARK    4  A    between atoms: N_3  and  C_4
REMARK    5  A    between atoms: C_10  and  C_11
REMARK    6  A    between atoms: N_22  and  C_23
REMARK                            x       y       z     vdW  Elec       q    Type
REMARK                         _______ _______ _______ _____ _____    ______ ____
ROOT
ATOM      1  C   UNL     1       6.389   5.232  16.790  0.00  0.00    +0.000 A 
ATOM      2  N   UNL     1       7.309   5.655  15.938  0.00  0.00    +0.000 NA
ATOM      3  C   UNL     1       7.040   5.058  14.745  0.00  0.00    +0.000 A 
ATOM      4  C   UNL     1       7.719   5.193  13.518  0.00  0.00    +0.000 A 
ATOM      5  C   UNL     1       7.291   4.450  12.414  0.00  0.00    +0.000 A 
ATOM      6  C   UNL     1       6.228   3.569  12.547  0.00  0.00    +0.000 A 
ATOM      7  F   UNL     1       5.842   2.846  11.486  0.00  0.00    +0.000 F 
ATOM      8  C   UNL     1       5.550   3.407  13.755  0.00  0.00    +0.000 A 
ATOM      9  C   UNL     1       5.945   4.204  14.848  0.00  0.00    +0.000 A 
ATOM     10  N   UNL     1       5.504   4.334  16.170  0.00  0.00    +0.000 N 
ENDROOT
BRANCH  10  11
ATOM     11  C   UNL     1       4.361   3.678  16.734  0.00  0.00    +0.000 A 
ATOM     12  C   UNL     1       4.446   2.387  17.265  0.00  0.00    +0.000 A 
ATOM     13  C   UNL     1       3.331   1.783  17.848  0.00  0.00    +0.000 A 
ATOM     14  F   UNL     1       3.457   0.558  18.374  0.00  0.00    +0.000 F 
ATOM     15  C   UNL     1       2.105   2.419  17.882  0.00  0.00    +0.000 A 
ATOM     16  C   UNL     1       2.007   3.684  17.328  0.00  0.00    +0.000 A 
ATOM     17  F   UNL     1       0.827   4.317  17.338  0.00  0.00    +0.000 F 
ATOM     18  C   UNL     1       3.117   4.323  16.771  0.00  0.00    +0.000 A 
ENDBRANCH  10  11
BRANCH   1  20
ATOM     19  C   UNL     1       7.638   6.207  18.756  0.00  0.00    +0.000 C 
ATOM     20  C   UNL     1       6.272   5.746  18.221  0.00  0.00    +0.000 C 
BRANCH  20  21
ATOM     21  N   UNL     1       5.763   4.725  19.150  0.00  0.00    +0.000 N 
ATOM     22  H   UNL     1       6.035   3.776  18.911  0.00  0.00    +0.000 HD
BRANCH  21  23
ATOM     23  C   UNL     1       4.481   4.866  19.686  0.00  0.00    +0.000 A 
ATOM     24  N   UNL     1       3.812   6.009  19.441  0.00  0.00    +0.000 NA
ATOM     25  C   UNL     1       2.612   6.154  20.017  0.00  0.00    +0.000 A 
ATOM     26  N   UNL     1       2.013   5.266  20.820  0.00  0.00    +0.000 NA
ATOM     27  C   UNL     1       2.688   4.131  21.057  0.00  0.00    +0.000 A 
ATOM     28  N   UNL     1       2.077   3.270  21.965  0.00  0.00    +0.000 N 
ATOM     29  C   UNL     1       3.936   3.884  20.510  0.00  0.00    +0.000 A 
ATOM     30  H   UNL     1       1.151   3.630  22.183  0.00  0.00    +0.000 HD
ATOM     31  H   UNL     1       2.061   2.295  21.686  0.00  0.00    +0.000 HD
BRANCH  29  32
ATOM     32  C   UNL     1       4.618   2.657  20.754  0.00  0.00    +0.000 C 
ATOM     33  N   UNL     1       5.113   1.631  20.989  0.00  0.00    +0.000 NA
ENDBRANCH  29  32
ENDBRANCH  21  23
ENDBRANCH  20  21
ENDBRANCH   1  20
TORSDOF 5
ENDMDL
MODEL 4
REMARK VINA RESULT:      -7.5      2.665      4.265
REMARK  Name = 
REMARK  6 active torsions:
REMARK  status: ('A' for Active; 'I' for Inactive)
REMARK    1  A    between atoms: C_1  and  C_2
REMARK    2  A    between atoms: C_2  and  N_3
REMARK    3  A    between atoms: C_2  and  C_13
REMARK    4  A    between atoms: N_3  and  C_4
REMARK    5  A    between atoms: C_10  and  C_11
REMARK    6  A    between atoms: N_22  and  C_23
REMARK                            x       y       z     vdW  Elec       q    Type
REMARK                         _______ _______ _______ _____ _____    ______ ____
ROOT
ATOM      1  C   UNL     1       6.411   5.214  16.836  0.00  0.00    +0.000 A 
ATOM      2  N   UNL     1       7.330   5.632  15.982  0.00  0.00    +0.000 NA
ATOM      3  C   UNL     1       7.049   5.045  14.786  0.00  0.00    +0.000 A 
ATOM      4  C   UNL     1       7.722   5.181  13.557  0.00  0.00    +0.000 A 
ATOM      5  C   UNL     1       7.280   4.449  12.450  0.00  0.00    +0.000 A 
ATOM      6  C   UNL     1       6.208   3.579  12.583  0.00  0.00    +0.000 A 
ATOM      7  F   UNL     1       5.807   2.867  11.520  0.00  0.00    +0.000 F 
ATOM      8  C   UNL     1       5.535   3.417  13.794  0.00  0.00    +0.000 A 
ATOM      9  C   UNL     1       5.944   4.203  14.890  0.00  0.00    +0.000 A 
ATOM     10  N   UNL     1       5.511   4.330  16.215  0.00  0.00    +0.000 N 
ENDROOT
BRANCH  10  11
ATOM     11  C   UNL     1       4.365   3.683  16.782  0.00  0.00    +0.000 A 
ATOM     12  C   UNL     1       3.117   4.314  16.829  0.00  0.00    +0.000 A 
ATOM     13  C   UNL     1       2.004   3.649  17.346  0.00  0.00    +0.000 A 
ATOM     14  F   UNL     1       0.819   4.272  17.347  0.00  0.00    +0.000 F 
ATOM     15  C   UNL     1       2.105   2.371  17.863  0.00  0.00    +0.000 A 
ATOM     16  C   UNL     1       3.345   1.755  17.848  0.00  0.00    +0.000 A 
ATOM     17  F   UNL     1       3.472   0.522  18.353  0.00  0.00    +0.000 F 
ATOM     18  C   UNL     1       4.466   2.386  17.303  0.00  0.00    +0.000 A 
ENDBRANCH  10  11
BRANCH   1  20
ATOM     19  C   UNL     1       7.686   6.139  18.809  0.00  0.00    +0.000 C 
ATOM     20  C   UNL     1       6.307   5.720  18.271  0.00  0.00    +0.000 C 
BRANCH  20  21
ATOM     21  N   UNL     1       5.770   4.706  19.192  0.00  0.00    +0.000 N 
ATOM     22  H   UNL     1       6.033   3.754  18.958  0.00  0.00    +0.000 HD
BRANCH  21  23
ATOM     23  C   UNL     1       4.482   4.865  19.708  0.00  0.00    +0.000 A 
ATOM     24  N   UNL     1       3.836   6.022  19.462  0.00  0.00    +0.000 NA
ATOM     25  C   UNL     1       2.630   6.183  20.019  0.00  0.00    +0.000 A 
ATOM     26  N   UNL     1       2.002   5.298  20.804  0.00  0.00    +0.000 NA
ATOM     27  C   UNL     1       2.653   4.150  21.042  0.00  0.00    +0.000 A 
ATOM     28  N   UNL     1       2.013   3.292  21.933  0.00  0.00    +0.000 N 
ATOM     29  C   UNL     1       3.906   3.886  20.514  0.00  0.00    +0.000 A 
ATOM     30  H   UNL     1       1.090   3.666  22.138  0.00  0.00    +0.000 HD
ATOM     31  H   UNL     1       1.984   2.320  21.645  0.00  0.00    +0.000 HD
BRANCH  29  32
ATOM     32  C   UNL     1       4.563   2.645  20.758  0.00  0.00    +0.000 C 
ATOM     33  N   UNL     1       5.160   1.672  20.979  0.00  0.00    +0.000 NA
ENDBRANCH  29  32
ENDBRANCH  21  23
ENDBRANCH  20  21
ENDBRANCH   1  20
TORSDOF 5
ENDMDL
MODEL 5
REMARK VINA RESULT:      -7.4      3.289      5.676
REMARK  Name = 
REMARK  6 active torsions:
REMARK  status: ('A' for Active; 'I' for Inactive)
REMARK    1  A    between atoms: C_1  and  C_2
REMARK    2  A    between atoms: C_2  and  N_3
REMARK    3  A    between atoms: C_2  and  C_13
REMARK    4  A    between atoms: N_3  and  C_4
REMARK    5  A    between atoms: C_10  and  C_11
REMARK    6  A    between atoms: N_22  and  C_23
REMARK                            x       y       z     vdW  Elec       q    Type
REMARK                         _______ _______ _______ _____ _____    ______ ____
ROOT
ATOM      1  C   UNL     1       2.789   7.173  18.107  0.00  0.00    +0.000 A 
ATOM      2  N   UNL     1       3.617   7.750  17.252  0.00  0.00    +0.000 NA
ATOM      3  C   UNL     1       4.448   6.774  16.792  0.00  0.00    +0.000 A 
ATOM      4  C   UNL     1       5.492   6.874  15.854  0.00  0.00    +0.000 A 
ATOM      5  C   UNL     1       6.251   5.739  15.551  0.00  0.00    +0.000 A 
ATOM      6  C   UNL     1       5.987   4.541  16.197  0.00  0.00    +0.000 A 
ATOM      7  F   UNL     1       6.736   3.466  15.913  0.00  0.00    +0.000 F 
ATOM      8  C   UNL     1       4.967   4.421  17.141  0.00  0.00    +0.000 A 
ATOM      9  C   UNL     1       4.165   5.551  17.398  0.00  0.00    +0.000 A 
ATOM     10  N   UNL     1       3.071   5.802  18.234  0.00  0.00    +0.000 N 
ENDROOT
BRANCH  10  11
ATOM     11  C   UNL     1       2.392   4.823  19.031  0.00  0.00    +0.000 A 
ATOM     12  C   UNL     1       1.467   3.936  18.471  0.00  0.00    +0.000 A 
ATOM     13  C   UNL     1       0.850   2.963  19.257  0.00  0.00    +0.000 A 
ATOM     14  F   UNL     1      -0.007   2.110  18.682  0.00  0.00    +0.000 F 
ATOM     15  C   UNL     1       1.098   2.870  20.614  0.00  0.00    +0.000 A 
ATOM     16  C   UNL     1       1.988   3.767  21.180  0.00  0.00    +0.000 A 
ATOM     17  F   UNL     1       2.237   3.706  22.494  0.00  0.00    +0.000 F 
ATOM     18  C   UNL     1       2.645   4.727  20.407  0.00  0.00    +0.000 A 
ENDBRANCH  10  11
BRANCH   1  20
ATOM     19  C   UNL     1       0.846   8.746  17.752  0.00  0.00    +0.000 C 
ATOM     20  C   UNL     1       1.628   7.904  18.774  0.00  0.00    +0.000 C 
BRANCH  20  21
ATOM     21  N   UNL     1       2.071   8.815  19.840  0.00  0.00    +0.000 N 
ATOM     22  H   UNL     1       2.995   8.607  20.205  0.00  0.00    +0.000 HD
BRANCH  21  23
ATOM     23  C   UNL     1       1.142   9.272  20.779  0.00  0.00    +0.000 A 
ATOM     24  N   UNL     1       0.597   8.373  21.622  0.00  0.00    +0.000 NA
ATOM     25  C   UNL     1      -0.338   8.817  22.471  0.00  0.00    +0.000 A 
ATOM     26  N   UNL     1      -0.787  10.075  22.559  0.00  0.00    +0.000 NA
ATOM     27  C   UNL     1      -0.237  10.961  21.716  0.00  0.00    +0.000 A 
ATOM     28  N   UNL     1      -0.789  12.239  21.772  0.00  0.00    +0.000 N 
ATOM     29  C   UNL     1       0.738  10.604  20.798  0.00  0.00    +0.000 A 
ATOM     30  H   UNL     1      -1.439  12.278  22.554  0.00  0.00    +0.000 HD
ATOM     31  H   UNL     1      -0.115  12.996  21.788  0.00  0.00    +0.000 HD
BRANCH  29  32
ATOM     32  C   UNL     1       1.328  11.572  19.935  0.00  0.00    +0.000 C 
ATOM     33  N   UNL     1       1.844  12.305  19.194  0.00  0.00    +0.000 NA
ENDBRANCH  29  32
ENDBRANCH  21  23
ENDBRANCH  20  21
ENDBRANCH   1  20
TORSDOF 5
ENDMDL
MODEL 6
REMARK VINA RESULT:      -7.4      0.810      2.379
REMARK  Name = 
REMARK  6 active torsions:
REMARK  status: ('A' for Active; 'I' for Inactive)
REMARK    1  A    between atoms: C_1  and  C_2
REMARK    2  A    between atoms: C_2  and  N_3
REMARK    3  A    between atoms: C_2  and  C_13
REMARK    4  A    between atoms: N_3  and  C_4
REMARK    5  A    between atoms: C_10  and  C_11
REMARK    6  A    between atoms: N_22  and  C_23
REMARK                            x       y       z     vdW  Elec       q    Type
REMARK                         _______ _______ _______ _____ _____    ______ ____
ROOT
ATOM      1  C   UNL     1       5.111   4.015  16.152  0.00  0.00    +0.000 A 
ATOM      2  N   UNL     1       4.805   3.441  15.000  0.00  0.00    +0.000 NA
ATOM      3  C   UNL     1       5.719   3.878  14.091  0.00  0.00    +0.000 A 
ATOM      4  C   UNL     1       5.835   3.546  12.727  0.00  0.00    +0.000 A 
ATOM      5  C   UNL     1       6.838   4.147  11.960  0.00  0.00    +0.000 A 
ATOM      6  C   UNL     1       7.683   5.080  12.540  0.00  0.00    +0.000 A 
ATOM      7  F   UNL     1       8.627   5.665  11.788  0.00  0.00    +0.000 F 
ATOM      8  C   UNL     1       7.578   5.436  13.885  0.00  0.00    +0.000 A 
ATOM      9  C   UNL     1       6.607   4.782  14.669  0.00  0.00    +0.000 A 
ATOM     10  N   UNL     1       6.230   4.854  16.015  0.00  0.00    +0.000 N 
ENDROOT
BRANCH  10  11
ATOM     11  C   UNL     1       6.891   5.629  17.024  0.00  0.00    +0.000 A 
ATOM     12  C   UNL     1       7.394   5.039  18.188  0.00  0.00    +0.000 A 
ATOM     13  C   UNL     1       8.071   5.805  19.137  0.00  0.00    +0.000 A 
ATOM     14  F   UNL     1       8.567   5.202  20.225  0.00  0.00    +0.000 F 
ATOM     15  C   UNL     1       8.231   7.169  18.980  0.00  0.00    +0.000 A 
ATOM     16  C   UNL     1       7.707   7.764  17.845  0.00  0.00    +0.000 A 
ATOM     17  F   UNL     1       7.838   9.085  17.674  0.00  0.00    +0.000 F 
ATOM     18  C   UNL     1       7.056   7.012  16.863  0.00  0.00    +0.000 A 
ENDBRANCH  10  11
BRANCH   1  20
ATOM     19  C   UNL     1       4.233   2.193  17.663  0.00  0.00    +0.000 C 
ATOM     20  C   UNL     1       4.388   3.710  17.460  0.00  0.00    +0.000 C 
BRANCH  20  21
ATOM     21  N   UNL     1       3.039   4.295  17.511  0.00  0.00    +0.000 N 
ATOM     22  H   UNL     1       2.798   4.851  16.697  0.00  0.00    +0.000 HD
BRANCH  21  23
ATOM     23  C   UNL     1       2.545   4.767  18.730  0.00  0.00    +0.000 A 
ATOM     24  N   UNL     1       2.000   3.877  19.582  0.00  0.00    +0.000 NA
ATOM     25  C   UNL     1       1.472   4.355  20.716  0.00  0.00    +0.000 A 
ATOM     26  N   UNL     1       1.433   5.643  21.082  0.00  0.00    +0.000 NA
ATOM     27  C   UNL     1       1.979   6.520  20.227  0.00  0.00    +0.000 A 
ATOM     28  N   UNL     1       1.841   7.855  20.597  0.00  0.00    +0.000 N 
ATOM     29  C   UNL     1       2.550   6.127  19.027  0.00  0.00    +0.000 A 
ATOM     30  H   UNL     1       1.448   7.895  21.534  0.00  0.00    +0.000 HD
ATOM     31  H   UNL     1       2.683   8.414  20.503  0.00  0.00    +0.000 HD
BRANCH  29  32
ATOM     32  C   UNL     1       3.150   7.077  18.151  0.00  0.00    +0.000 C 
ATOM     33  N   UNL     1       3.669   7.793  17.397  0.00  0.00    +0.000 NA
ENDBRANCH  29  32
ENDBRANCH  21  23
ENDBRANCH  20  21
ENDBRANCH   1  20
TORSDOF 5
ENDMDL
MODEL 7
REMARK VINA RESULT:      -7.4      3.276      5.700
REMARK  Name = 
REMARK  6 active torsions:
REMARK  status: ('A' for Active; 'I' for Inactive)
REMARK    1  A    between atoms: C_1  and  C_2
REMARK    2  A    between atoms: C_2  and  N_3
REMARK    3  A    between atoms: C_2  and  C_13
REMARK    4  A    between atoms: N_3  and  C_4
REMARK    5  A    between atoms: C_10  and  C_11
REMARK    6  A    between atoms: N_22  and  C_23
REMARK                            x       y       z     vdW  Elec       q    Type
REMARK                         _______ _______ _______ _____ _____    ______ ____
ROOT
ATOM      1  C   UNL     1       2.796   7.153  18.073  0.00  0.00    +0.000 A 
ATOM      2  N   UNL     1       3.611   7.729  17.204  0.00  0.00    +0.000 NA
ATOM      3  C   UNL     1       4.445   6.756  16.745  0.00  0.00    +0.000 A 
ATOM      4  C   UNL     1       5.479   6.856  15.795  0.00  0.00    +0.000 A 
ATOM      5  C   UNL     1       6.245   5.725  15.495  0.00  0.00    +0.000 A 
ATOM      6  C   UNL     1       5.998   4.531  16.156  0.00  0.00    +0.000 A 
ATOM      7  F   UNL     1       6.753   3.460  15.875  0.00  0.00    +0.000 F 
ATOM      8  C   UNL     1       4.989   4.412  17.112  0.00  0.00    +0.000 A 
ATOM      9  C   UNL     1       4.180   5.537  17.365  0.00  0.00    +0.000 A 
ATOM     10  N   UNL     1       3.092   5.786  18.210  0.00  0.00    +0.000 N 
ENDROOT
BRANCH  10  11
ATOM     11  C   UNL     1       2.430   4.810  19.024  0.00  0.00    +0.000 A 
ATOM     12  C   UNL     1       2.676   4.712  20.397  0.00  0.00    +0.000 A 
ATOM     13  C   UNL     1       1.989   3.782  21.178  0.00  0.00    +0.000 A 
ATOM     14  F   UNL     1       2.227   3.737  22.495  0.00  0.00    +0.000 F 
ATOM     15  C   UNL     1       1.079   2.904  20.618  0.00  0.00    +0.000 A 
ATOM     16  C   UNL     1       0.856   2.975  19.254  0.00  0.00    +0.000 A 
ATOM     17  F   UNL     1      -0.011   2.128  18.685  0.00  0.00    +0.000 F 
ATOM     18  C   UNL     1       1.505   3.921  18.457  0.00  0.00    +0.000 A 
ENDBRANCH  10  11
BRANCH   1  20
ATOM     19  C   UNL     1       0.852   8.726  17.727  0.00  0.00    +0.000 C 
ATOM     20  C   UNL     1       1.636   7.881  18.745  0.00  0.00    +0.000 C 
BRANCH  20  21
ATOM     21  N   UNL     1       2.080   8.789  19.814  0.00  0.00    +0.000 N 
ATOM     22  H   UNL     1       3.002   8.575  20.182  0.00  0.00    +0.000 HD
BRANCH  21  23
ATOM     23  C   UNL     1       1.151   9.249  20.750  0.00  0.00    +0.000 A 
ATOM     24  N   UNL     1       0.611   8.355  21.601  0.00  0.00    +0.000 NA
ATOM     25  C   UNL     1      -0.326   8.800  22.448  0.00  0.00    +0.000 A 
ATOM     26  N   UNL     1      -0.780  10.058  22.526  0.00  0.00    +0.000 NA
ATOM     27  C   UNL     1      -0.235  10.939  21.675  0.00  0.00    +0.000 A 
ATOM     28  N   UNL     1      -0.793  12.214  21.721  0.00  0.00    +0.000 N 
ATOM     29  C   UNL     1       0.740  10.579  20.759  0.00  0.00    +0.000 A 
ATOM     30  H   UNL     1      -1.442  12.257  22.504  0.00  0.00    +0.000 HD
ATOM     31  H   UNL     1      -0.123  12.975  21.729  0.00  0.00    +0.000 HD
BRANCH  29  32
ATOM     32  C   UNL     1       1.324  11.542  19.886  0.00  0.00    +0.000 C 
ATOM     33  N   UNL     1       1.862  12.285  19.172  0.00  0.00    +0.000 NA
ENDBRANCH  29  32
ENDBRANCH  21  23
ENDBRANCH  20  21
ENDBRANCH   1  20
TORSDOF 5
ENDMDL
MODEL 8
REMARK VINA RESULT:      -7.3      0.812      1.848
REMARK  Name = 
REMARK  6 active torsions:
REMARK  status: ('A' for Active; 'I' for Inactive)
REMARK    1  A    between atoms: C_1  and  C_2
REMARK    2  A    between atoms: C_2  and  N_3
REMARK    3  A    between atoms: C_2  and  C_13
REMARK    4  A    between atoms: N_3  and  C_4
REMARK    5  A    between atoms: C_10  and  C_11
REMARK    6  A    between atoms: N_22  and  C_23
REMARK                            x       y       z     vdW  Elec       q    Type
REMARK                         _______ _______ _______ _____ _____    ______ ____
ROOT
ATOM      1  C   UNL     1       5.122   4.025  16.147  0.00  0.00    +0.000 A 
ATOM      2  N   UNL     1       4.802   3.445  15.002  0.00  0.00    +0.000 NA
ATOM      3  C   UNL     1       5.709   3.871  14.081  0.00  0.00    +0.000 A 
ATOM      4  C   UNL     1       5.810   3.530  12.719  0.00  0.00    +0.000 A 
ATOM      5  C   UNL     1       6.807   4.120  11.937  0.00  0.00    +0.000 A 
ATOM      6  C   UNL     1       7.663   5.054  12.502  0.00  0.00    +0.000 A 
ATOM      7  F   UNL     1       8.601   5.629  11.737  0.00  0.00    +0.000 F 
ATOM      8  C   UNL     1       7.573   5.419  13.845  0.00  0.00    +0.000 A 
ATOM      9  C   UNL     1       6.606   4.775  14.644  0.00  0.00    +0.000 A 
ATOM     10  N   UNL     1       6.243   4.858  15.993  0.00  0.00    +0.000 N 
ENDROOT
BRANCH  10  11
ATOM     11  C   UNL     1       6.918   5.637  16.990  0.00  0.00    +0.000 A 
ATOM     12  C   UNL     1       7.097   7.016  16.845  0.00  0.00    +0.000 A 
ATOM     13  C   UNL     1       7.718   7.762  17.847  0.00  0.00    +0.000 A 
ATOM     14  F   UNL     1       7.844   9.085  17.689  0.00  0.00    +0.000 F 
ATOM     15  C   UNL     1       8.213   7.160  18.989  0.00  0.00    +0.000 A 
ATOM     16  C   UNL     1       8.068   5.790  19.123  0.00  0.00    +0.000 A 
ATOM     17  F   UNL     1       8.549   5.181  20.214  0.00  0.00    +0.000 F 
ATOM     18  C   UNL     1       7.418   5.027  18.150  0.00  0.00    +0.000 A 
ENDBRANCH  10  11
BRANCH   1  20
ATOM     19  C   UNL     1       4.283   2.217  17.697  0.00  0.00    +0.000 C 
ATOM     20  C   UNL     1       4.411   3.732  17.464  0.00  0.00    +0.000 C 
BRANCH  20  21
ATOM     21  N   UNL     1       3.053   4.295  17.512  0.00  0.00    +0.000 N 
ATOM     22  H   UNL     1       2.800   4.836  16.691  0.00  0.00    +0.000 HD
BRANCH  21  23
ATOM     23  C   UNL     1       2.553   4.774  18.726  0.00  0.00    +0.000 A 
ATOM     24  N   UNL     1       1.994   3.890  19.576  0.00  0.00    +0.000 NA
ATOM     25  C   UNL     1       1.463   4.375  20.704  0.00  0.00    +0.000 A 
ATOM     26  N   UNL     1       1.431   5.664  21.068  0.00  0.00    +0.000 NA
ATOM     27  C   UNL     1       1.992   6.534  20.215  0.00  0.00    +0.000 A 
ATOM     28  N   UNL     1       1.863   7.872  20.581  0.00  0.00    +0.000 N 
ATOM     29  C   UNL     1       2.568   6.134  19.021  0.00  0.00    +0.000 A 
ATOM     30  H   UNL     1       1.463   7.917  21.515  0.00  0.00    +0.000 HD
ATOM     31  H   UNL     1       2.710   8.423  20.493  0.00  0.00    +0.000 HD
BRANCH  29  32
ATOM     32  C   UNL     1       3.183   7.077  18.147  0.00  0.00    +0.000 C 
ATOM     33  N   UNL     1       3.696   7.789  17.384  0.00  0.00    +0.000 NA
ENDBRANCH  29  32
ENDBRANCH  21  23
ENDBRANCH  20  21
ENDBRANCH   1  20
TORSDOF 5
ENDMDL
MODEL 9
REMARK VINA RESULT:      -7.2      3.149      5.138
REMARK  Name = 
REMARK  6 active torsions:
REMARK  status: ('A' for Active; 'I' for Inactive)
REMARK    1  A    between atoms: C_1  and  C_2
REMARK    2  A    between atoms: C_2  and  N_3
REMARK    3  A    between atoms: C_2  and  C_13
REMARK    4  A    between atoms: N_3  and  C_4
REMARK    5  A    between atoms: C_10  and  C_11
REMARK    6  A    between atoms: N_22  and  C_23
REMARK                            x       y       z     vdW  Elec       q    Type
REMARK                         _______ _______ _______ _____ _____    ______ ____
ROOT
ATOM      1  C   UNL     1       3.390   6.656  18.342  0.00  0.00    +0.000 A 
ATOM      2  N   UNL     1       4.118   7.318  17.457  0.00  0.00    +0.000 NA
ATOM      3  C   UNL     1       4.680   6.387  16.638  0.00  0.00    +0.000 A 
ATOM      4  C   UNL     1       5.526   6.583  15.530  0.00  0.00    +0.000 A 
ATOM      5  C   UNL     1       6.024   5.470  14.844  0.00  0.00    +0.000 A 
ATOM      6  C   UNL     1       5.706   4.193  15.280  0.00  0.00    +0.000 A 
ATOM      7  F   UNL     1       6.207   3.135  14.628  0.00  0.00    +0.000 F 
ATOM      8  C   UNL     1       4.881   3.974  16.384  0.00  0.00    +0.000 A 
ATOM      9  C   UNL     1       4.332   5.097  17.034  0.00  0.00    +0.000 A 
ATOM     10  N   UNL     1       3.473   5.270  18.125  0.00  0.00    +0.000 N 
ENDROOT
BRANCH  10  11
ATOM     11  C   UNL     1       2.816   4.216  18.841  0.00  0.00    +0.000 A 
ATOM     12  C   UNL     1       3.304   3.747  20.065  0.00  0.00    +0.000 A 
ATOM     13  C   UNL     1       2.625   2.750  20.766  0.00  0.00    +0.000 A 
ATOM     14  F   UNL     1       3.104   2.347  21.950  0.00  0.00    +0.000 F 
ATOM     15  C   UNL     1       1.479   2.167  20.259  0.00  0.00    +0.000 A 
ATOM     16  C   UNL     1       1.010   2.605  19.032  0.00  0.00    +0.000 A 
ATOM     17  F   UNL     1      -0.092   2.048  18.513  0.00  0.00    +0.000 F 
ATOM     18  C   UNL     1       1.652   3.626  18.328  0.00  0.00    +0.000 A 
ENDBRANCH  10  11
BRANCH   1  20
ATOM     19  C   UNL     1       1.867   6.307  20.324  0.00  0.00    +0.000 C 
ATOM     20  C   UNL     1       2.510   7.339  19.383  0.00  0.00    +0.000 C 
BRANCH  20  21
ATOM     21  N   UNL     1       1.417   8.117  18.779  0.00  0.00    +0.000 N 
ATOM     22  H   UNL     1       1.107   7.765  17.878  0.00  0.00    +0.000 HD
BRANCH  21  23
ATOM     23  C   UNL     1       1.410   9.507  18.915  0.00  0.00    +0.000 A 
ATOM     24  N   UNL     1       2.078  10.239  18.001  0.00  0.00    +0.000 NA
ATOM     25  C   UNL     1       2.116  11.564  18.184  0.00  0.00    +0.000 A 
ATOM     26  N   UNL     1       1.551  12.235  19.196  0.00  0.00    +0.000 NA
ATOM     27  C   UNL     1       0.889  11.497  20.099  0.00  0.00    +0.000 A 
ATOM     28  N   UNL     1       0.392  12.215  21.185  0.00  0.00    +0.000 N 
ATOM     29  C   UNL     1       0.791  10.119  20.002  0.00  0.00    +0.000 A 
ATOM     30  H   UNL     1       0.529  13.207  21.009  0.00  0.00    +0.000 HD
ATOM     31  H   UNL     1      -0.564  11.993  21.442  0.00  0.00    +0.000 HD
BRANCH  29  32
ATOM     32  C   UNL     1       0.055   9.362  20.960  0.00  0.00    +0.000 C 
ATOM     33  N   UNL     1      -0.499   8.686  21.726  0.00  0.00    +0.000 NA
ENDBRANCH  29  32
ENDBRANCH  21  23
ENDBRANCH  20  21
ENDBRANCH   1  20
TORSDOF 5
ENDMDL
