MODEL 1
REMARK VINA RESULT:      -7.6      0.000      0.000
REMARK  Name = 
REMARK  5 active torsions:
REMARK  status: ('A' for Active; 'I' for Inactive)
REMARK    1  A    between atoms: C_2  and  C_21
REMARK    2  A    between atoms: N_3  and  C_4
REMARK    3  A    between atoms: C_4  and  C_5
REMARK    4  A    between atoms: C_5  and  N_6
REMARK    5  A    between atoms: N_9  and  C_10
REMARK                            x       y       z     vdW  Elec       q    Type
REMARK                         _______ _______ _______ _____ _____    ______ ____
ROOT
ATOM      1  C   UNL     1       3.224   5.025  17.762  0.00  0.00    +0.000 C 
ENDROOT
BRANCH   1   2
ATOM      2  N   UNL     1       4.060   5.978  18.514  0.00  0.00    +0.000 NA
ATOM      3  C   UNL     1       4.122   7.334  17.919  0.00  0.00    +0.000 C 
ATOM      4  C   UNL     1       2.766   8.060  17.757  0.00  0.00    +0.000 C 
ATOM      5  N   UNL     1       2.051   8.111  19.049  0.00  0.00    +0.000 N 
ATOM      6  C   UNL     1       2.013   6.872  19.839  0.00  0.00    +0.000 C 
ATOM      7  C   UNL     1       3.415   6.186  19.858  0.00  0.00    +0.000 C 
BRANCH   5   8
ATOM      8  C   UNL     1       1.112   9.112  19.253  0.00  0.00    +0.000 A 
ATOM      9  C   UNL     1       0.412   9.744  18.212  0.00  0.00    +0.000 A 
ATOM     10  C   UNL     1      -0.595  10.683  18.478  0.00  0.00    +0.000 A 
ATOM     11  C   UNL     1      -0.916  10.992  19.792  0.00  0.00    +0.000 A 
ATOM     12  F   UNL     1      -1.896  11.868  20.050  0.00  0.00    +0.000 F 
ATOM     13  C   UNL     1      -0.238  10.398  20.842  0.00  0.00    +0.000 A 
ATOM     14  C   UNL     1       0.769   9.473  20.568  0.00  0.00    +0.000 A 
ENDBRANCH   5   8
ENDBRANCH   1   2
BRANCH   1  15
ATOM     15  C   UNL     1       3.634   3.649  17.235  0.00  0.00    +0.000 C 
ATOM     16  C   UNL     1       2.698   2.453  17.223  0.00  0.00    +0.000 C 
ATOM     17  C   UNL     1       3.885   2.453  18.136  0.00  0.00    +0.000 C 
BRANCH  15  20
ATOM     18  O   UNL     1       6.428   4.286  17.156  0.00  0.00    +0.000 OA
ATOM     19  C   UNL     1       5.792   4.147  16.114  0.00  0.00    +0.000 C 
ATOM     20  N   UNL     1       4.462   3.781  16.055  0.00  0.00    +0.000 N 
ATOM     21  H   UNL     1       4.009   3.796  15.142  0.00  0.00    +0.000 HD
BRANCH  19  22
ATOM     22  C   UNL     1       6.425   4.380  14.794  0.00  0.00    +0.000 A 
ATOM     23  C   UNL     1       5.989   3.697  13.673  0.00  0.00    +0.000 A 
ATOM     24  C   UNL     1       6.618   3.971  12.465  0.00  0.00    +0.000 A 
ATOM     25  C   UNL     1       7.646   4.896  12.467  0.00  0.00    +0.000 A 
ATOM     26  N   UNL     1       8.059   5.541  13.577  0.00  0.00    +0.000 NA
ATOM     27  N   UNL     1       7.436   5.284  14.759  0.00  0.00    +0.000 NA
ENDBRANCH  19  22
ENDBRANCH  15  20
ENDBRANCH   1  15
TORSDOF 5
ENDMDL
MODEL 2
REMARK VINA RESULT:      -7.4      1.774      2.525
REMARK  Name = 
REMARK  5 active torsions:
REMARK  status: ('A' for Active; 'I' for Inactive)
REMARK    1  A    between atoms: C_2  and  C_21
REMARK    2  A    between atoms: N_3  and  C_4
REMARK    3  A    between atoms: C_4  and  C_5
REMARK    4  A    between atoms: C_5  and  N_6
REMARK    5  A    between atoms: N_9  and  C_10
REMARK                            x       y       z     vdW  Elec       q    Type
REMARK                         _______ _______ _______ _____ _____    ______ ____
ROOT
ATOM      1  C   UNL     1       5.417   5.136  19.038  0.00  0.00    +0.000 C 
ENDROOT
BRANCH   1   2
ATOM      2  N   UNL     1       4.182   4.826  18.296  0.00  0.00    +0.000 NA
ATOM      3  C   UNL     1       2.976   4.693  19.148  0.00  0.00    +0.000 C 
ATOM      4  C   UNL     1       2.612   5.933  19.995  0.00  0.00    +0.000 C 
ATOM      5  N   UNL     1       2.487   7.127  19.135  0.00  0.00    +0.000 N 
ATOM      6  C   UNL     1       3.540   7.337  18.131  0.00  0.00    +0.000 C 
ATOM      7  C   UNL     1       3.882   6.000  17.401  0.00  0.00    +0.000 C 
BRANCH   5   8
ATOM      8  C   UNL     1       1.700   8.185  19.570  0.00  0.00    +0.000 A 
ATOM      9  C   UNL     1       1.290   9.240  18.738  0.00  0.00    +0.000 A 
ATOM     10  C   UNL     1       0.417  10.234  19.201  0.00  0.00    +0.000 A 
ATOM     11  C   UNL     1      -0.060  10.176  20.503  0.00  0.00    +0.000 A 
ATOM     12  F   UNL     1      -0.915  11.110  20.941  0.00  0.00    +0.000 F 
ATOM     13  C   UNL     1       0.334   9.159  21.354  0.00  0.00    +0.000 A 
ATOM     14  C   UNL     1       1.211   8.179  20.887  0.00  0.00    +0.000 A 
ENDBRANCH   5   8
ENDBRANCH   1   2
BRANCH   1  15
ATOM     15  C   UNL     1       6.831   5.262  18.469  0.00  0.00    +0.000 C 
ATOM     16  C   UNL     1       8.080   4.963  19.280  0.00  0.00    +0.000 C 
ATOM     17  C   UNL     1       7.791   6.371  18.861  0.00  0.00    +0.000 C 
BRANCH  15  20
ATOM     18  O   UNL     1       7.566   6.786  16.155  0.00  0.00    +0.000 OA
ATOM     19  C   UNL     1       7.188   5.622  16.039  0.00  0.00    +0.000 C 
ATOM     20  N   UNL     1       6.873   4.796  17.100  0.00  0.00    +0.000 N 
ATOM     21  H   UNL     1       6.472   3.884  16.882  0.00  0.00    +0.000 HD
BRANCH  19  22
ATOM     22  C   UNL     1       7.026   5.000  14.704  0.00  0.00    +0.000 A 
ATOM     23  C   UNL     1       6.106   3.985  14.507  0.00  0.00    +0.000 A 
ATOM     24  C   UNL     1       5.997   3.454  13.228  0.00  0.00    +0.000 A 
ATOM     25  C   UNL     1       6.823   3.964  12.243  0.00  0.00    +0.000 A 
ATOM     26  N   UNL     1       7.719   4.947  12.464  0.00  0.00    +0.000 NA
ATOM     27  N   UNL     1       7.819   5.479  13.713  0.00  0.00    +0.000 NA
ENDBRANCH  19  22
ENDBRANCH  15  20
ENDBRANCH   1  15
TORSDOF 5
ENDMDL
MODEL 3
REMARK VINA RESULT:      -7.4      1.774      2.712
REMARK  Name = 
REMARK  5 active torsions:
REMARK  status: ('A' for Active; 'I' for Inactive)
REMARK    1  A    between atoms: C_2  and  C_21
REMARK    2  A    between atoms: N_3  and  C_4
REMARK    3  A    between atoms: C_4  and  C_5
REMARK    4  A    between atoms: C_5  and  N_6
REMARK    5  A    between atoms: N_9  and  C_10
REMARK                            x       y       z     vdW  Elec       q    Type
REMARK                         _______ _______ _______ _____ _____    ______ ____
ROOT
ATOM      1  C   UNL     1       5.325   4.481  19.011  0.00  0.00    +0.000 C 
ENDROOT
BRANCH   1   2
ATOM      2  N   UNL     1       4.058   4.253  18.294  0.00  0.00    +0.000 NA
ATOM      3  C   UNL     1       2.855   4.273  19.161  0.00  0.00    +0.000 C 
ATOM      4  C   UNL     1       2.618   5.580  19.951  0.00  0.00    +0.000 C 
ATOM      5  N   UNL     1       2.595   6.739  19.037  0.00  0.00    +0.000 N 
ATOM      6  C   UNL     1       3.650   6.803  18.015  0.00  0.00    +0.000 C 
ATOM      7  C   UNL     1       3.858   5.407  17.348  0.00  0.00    +0.000 C 
BRANCH   5   8
ATOM      8  C   UNL     1       1.915   7.885  19.426  0.00  0.00    +0.000 A 
ATOM      9  C   UNL     1       1.494   8.127  20.745  0.00  0.00    +0.000 A 
ATOM     10  C   UNL     1       0.895   9.343  21.104  0.00  0.00    +0.000 A 
ATOM     11  C   UNL     1       0.716  10.331  20.146  0.00  0.00    +0.000 A 
ATOM     12  F   UNL     1       0.168  11.503  20.492  0.00  0.00    +0.000 F 
ATOM     13  C   UNL     1       1.106  10.120  18.836  0.00  0.00    +0.000 A 
ATOM     14  C   UNL     1       1.693   8.904  18.484  0.00  0.00    +0.000 A 
ENDBRANCH   5   8
ENDBRANCH   1   2
BRANCH   1  15
ATOM     15  C   UNL     1       6.655   4.945  18.415  0.00  0.00    +0.000 C 
ATOM     16  C   UNL     1       7.967   4.898  19.178  0.00  0.00    +0.000 C 
ATOM     17  C   UNL     1       7.357   6.223  18.840  0.00  0.00    +0.000 C 
BRANCH  15  20
ATOM     18  O   UNL     1       7.505   6.596  16.230  0.00  0.00    +0.000 OA
ATOM     19  C   UNL     1       7.120   5.446  16.029  0.00  0.00    +0.000 C 
ATOM     20  N   UNL     1       6.751   4.561  17.023  0.00  0.00    +0.000 N 
ATOM     21  H   UNL     1       6.351   3.669  16.734  0.00  0.00    +0.000 HD
BRANCH  19  22
ATOM     22  C   UNL     1       7.009   4.907  14.653  0.00  0.00    +0.000 A 
ATOM     23  C   UNL     1       6.104   3.902  14.361  0.00  0.00    +0.000 A 
ATOM     24  C   UNL     1       6.044   3.451  13.048  0.00  0.00    +0.000 A 
ATOM     25  C   UNL     1       6.901   4.025  12.126  0.00  0.00    +0.000 A 
ATOM     26  N   UNL     1       7.782   4.996  12.440  0.00  0.00    +0.000 NA
ATOM     27  N   UNL     1       7.834   5.450  13.722  0.00  0.00    +0.000 NA
ENDBRANCH  19  22
ENDBRANCH  15  20
ENDBRANCH   1  15
TORSDOF 5
ENDMDL
MODEL 4
REMARK VINA RESULT:      -7.4      1.825      2.302
REMARK  Name = 
REMARK  5 active torsions:
REMARK  status: ('A' for Active; 'I' for Inactive)
REMARK    1  A    between atoms: C_2  and  C_21
REMARK    2  A    between atoms: N_3  and  C_4
REMARK    3  A    between atoms: C_4  and  C_5
REMARK    4  A    between atoms: C_5  and  N_6
REMARK    5  A    between atoms: N_9  and  C_10
REMARK                            x       y       z     vdW  Elec       q    Type
REMARK                         _______ _______ _______ _____ _____    ______ ____
ROOT
ATOM      1  C   UNL     1       4.257   6.453  18.146  0.00  0.00    +0.000 C 
ENDROOT
BRANCH   1   2
ATOM      2  N   UNL     1       2.832   6.185  17.885  0.00  0.00    +0.000 NA
ATOM      3  C   UNL     1       2.052   5.810  19.089  0.00  0.00    +0.000 C 
ATOM      4  C   UNL     1       2.043   6.848  20.234  0.00  0.00    +0.000 C 
ATOM      5  N   UNL     1       1.592   8.163  19.736  0.00  0.00    +0.000 N 
ATOM      6  C   UNL     1       2.171   8.629  18.468  0.00  0.00    +0.000 C 
ATOM      7  C   UNL     1       2.205   7.473  17.419  0.00  0.00    +0.000 C 
BRANCH   5   8
ATOM      8  C   UNL     1       1.032   9.062  20.633  0.00  0.00    +0.000 A 
ATOM      9  C   UNL     1       0.899  10.436  20.373  0.00  0.00    +0.000 A 
ATOM     10  C   UNL     1       0.240  11.285  21.274  0.00  0.00    +0.000 A 
ATOM     11  C   UNL     1      -0.297  10.764  22.443  0.00  0.00    +0.000 A 
ATOM     12  F   UNL     1      -0.949  11.568  23.293  0.00  0.00    +0.000 F 
ATOM     13  C   UNL     1      -0.171   9.418  22.737  0.00  0.00    +0.000 A 
ATOM     14  C   UNL     1       0.493   8.581  21.839  0.00  0.00    +0.000 A 
ENDBRANCH   5   8
ENDBRANCH   1   2
BRANCH   1  15
ATOM     15  C   UNL     1       5.385   5.427  18.266  0.00  0.00    +0.000 C 
ATOM     16  C   UNL     1       5.447   4.390  19.374  0.00  0.00    +0.000 C 
ATOM     17  C   UNL     1       6.460   5.492  19.337  0.00  0.00    +0.000 C 
BRANCH  15  20
ATOM     18  O   UNL     1       6.943   6.819  16.303  0.00  0.00    +0.000 OA
ATOM     19  C   UNL     1       6.480   5.707  16.057  0.00  0.00    +0.000 C 
ATOM     20  N   UNL     1       5.772   4.939  16.960  0.00  0.00    +0.000 N 
ATOM     21  H   UNL     1       5.347   4.079  16.615  0.00  0.00    +0.000 HD
BRANCH  19  22
ATOM     22  C   UNL     1       6.645   5.090  14.719  0.00  0.00    +0.000 A 
ATOM     23  C   UNL     1       5.739   4.149  14.262  0.00  0.00    +0.000 A 
ATOM     24  C   UNL     1       5.946   3.619  12.994  0.00  0.00    +0.000 A 
ATOM     25  C   UNL     1       7.049   4.055  12.283  0.00  0.00    +0.000 A 
ATOM     26  N   UNL     1       7.923   4.966  12.757  0.00  0.00    +0.000 NA
ATOM     27  N   UNL     1       7.716   5.497  13.992  0.00  0.00    +0.000 NA
ENDBRANCH  19  22
ENDBRANCH  15  20
ENDBRANCH   1  15
TORSDOF 5
ENDMDL
MODEL 5
REMARK VINA RESULT:      -7.3      3.554      8.459
REMARK  Name = 
REMARK  5 active torsions:
REMARK  status: ('A' for Active; 'I' for Inactive)
REMARK    1  A    between atoms: C_2  and  C_21
REMARK    2  A    between atoms: N_3  and  C_4
REMARK    3  A    between atoms: C_4  and  C_5
REMARK    4  A    between atoms: C_5  and  N_6
REMARK    5  A    between atoms: N_9  and  C_10
REMARK                            x       y       z     vdW  Elec       q    Type
REMARK                         _______ _______ _______ _____ _____    ______ ____
ROOT
ATOM      1  C   UNL     1       3.919   5.747  19.409  0.00  0.00    +0.000 C 
ENDROOT
BRANCH   1   2
ATOM      2  N   UNL     1       5.012   4.763  19.503  0.00  0.00    +0.000 NA
ATOM      3  C   UNL     1       4.845   3.581  18.624  0.00  0.00    +0.000 C 
ATOM      4  C   UNL     1       4.727   3.879  17.112  0.00  0.00    +0.000 C 
ATOM      5  N   UNL     1       5.877   4.685  16.653  0.00  0.00    +0.000 N 
ATOM      6  C   UNL     1       6.266   5.827  17.492  0.00  0.00    +0.000 C 
ATOM      7  C   UNL     1       6.267   5.429  19.002  0.00  0.00    +0.000 C 
BRANCH   5   8
ATOM      8  C   UNL     1       6.239   4.632  15.314  0.00  0.00    +0.000 A 
ATOM      9  C   UNL     1       7.381   5.263  14.794  0.00  0.00    +0.000 A 
ATOM     10  C   UNL     1       7.753   5.100  13.452  0.00  0.00    +0.000 A 
ATOM     11  C   UNL     1       6.987   4.297  12.619  0.00  0.00    +0.000 A 
ATOM     12  F   UNL     1       7.354   4.118  11.343  0.00  0.00    +0.000 F 
ATOM     13  C   UNL     1       5.848   3.672  13.095  0.00  0.00    +0.000 A 
ATOM     14  C   UNL     1       5.480   3.847  14.429  0.00  0.00    +0.000 A 
ENDBRANCH   5   8
ENDBRANCH   1   2
BRANCH   1  15
ATOM     15  C   UNL     1       2.505   5.615  19.976  0.00  0.00    +0.000 C 
ATOM     16  C   UNL     1       2.096   4.510  20.935  0.00  0.00    +0.000 C 
ATOM     17  C   UNL     1       1.533   4.530  19.548  0.00  0.00    +0.000 C 
BRANCH  15  20
ATOM     18  O   UNL     1       2.071   7.780  18.148  0.00  0.00    +0.000 OA
ATOM     19  C   UNL     1       1.836   7.921  19.345  0.00  0.00    +0.000 C 
ATOM     20  N   UNL     1       1.957   6.918  20.287  0.00  0.00    +0.000 N 
ATOM     21  H   UNL     1       1.835   7.175  21.266  0.00  0.00    +0.000 HD
BRANCH  19  22
ATOM     22  C   UNL     1       1.399   9.228  19.891  0.00  0.00    +0.000 A 
ATOM     23  C   UNL     1       1.070  10.270  19.043  0.00  0.00    +0.000 A 
ATOM     24  C   UNL     1       0.658  11.465  19.620  0.00  0.00    +0.000 A 
ATOM     25  C   UNL     1       0.617  11.536  21.000  0.00  0.00    +0.000 A 
ATOM     26  N   UNL     1       0.953  10.508  21.804  0.00  0.00    +0.000 NA
ATOM     27  N   UNL     1       1.345   9.332  21.243  0.00  0.00    +0.000 NA
ENDBRANCH  19  22
ENDBRANCH  15  20
ENDBRANCH   1  15
TORSDOF 5
ENDMDL
MODEL 6
REMARK VINA RESULT:      -7.3      1.768      2.352
REMARK  Name = 
REMARK  5 active torsions:
REMARK  status: ('A' for Active; 'I' for Inactive)
REMARK    1  A    between atoms: C_2  and  C_21
REMARK    2  A    between atoms: N_3  and  C_4
REMARK    3  A    between atoms: C_4  and  C_5
REMARK    4  A    between atoms: C_5  and  N_6
REMARK    5  A    between atoms: N_9  and  C_10
REMARK                            x       y       z     vdW  Elec       q    Type
REMARK                         _______ _______ _______ _____ _____    ______ ____
ROOT
ATOM      1  C   UNL     1       3.310   3.924  19.875  0.00  0.00    +0.000 C 
ENDROOT
BRANCH   1   2
ATOM      2  N   UNL     1       1.886   4.086  19.527  0.00  0.00    +0.000 NA
ATOM      3  C   UNL     1       1.134   4.978  20.441  0.00  0.00    +0.000 C 
ATOM      4  C   UNL     1       1.666   6.424  20.558  0.00  0.00    +0.000 C 
ATOM      5  N   UNL     1       1.766   7.047  19.222  0.00  0.00    +0.000 N 
ATOM      6  C   UNL     1       2.370   6.237  18.154  0.00  0.00    +0.000 C 
ATOM      7  C   UNL     1       1.821   4.776  18.191  0.00  0.00    +0.000 C 
BRANCH   5   8
ATOM      8  C   UNL     1       1.721   8.430  19.124  0.00  0.00    +0.000 A 
ATOM      9  C   UNL     1       2.205   9.146  18.017  0.00  0.00    +0.000 A 
ATOM     10  C   UNL     1       2.049  10.537  17.925  0.00  0.00    +0.000 A 
ATOM     11  C   UNL     1       1.400  11.223  18.941  0.00  0.00    +0.000 A 
ATOM     12  F   UNL     1       1.227  12.548  18.845  0.00  0.00    +0.000 F 
ATOM     13  C   UNL     1       0.924  10.552  20.053  0.00  0.00    +0.000 A 
ATOM     14  C   UNL     1       1.091   9.170  20.141  0.00  0.00    +0.000 A 
ENDBRANCH   5   8
ENDBRANCH   1   2
BRANCH   1  15
ATOM     15  C   UNL     1       4.251   2.807  19.424  0.00  0.00    +0.000 C 
ATOM     16  C   UNL     1       3.947   1.333  19.631  0.00  0.00    +0.000 C 
ATOM     17  C   UNL     1       5.072   1.969  20.388  0.00  0.00    +0.000 C 
BRANCH  15  20
ATOM     18  O   UNL     1       6.336   4.709  18.922  0.00  0.00    +0.000 OA
ATOM     19  C   UNL     1       5.811   4.102  17.992  0.00  0.00    +0.000 C 
ATOM     20  N   UNL     1       4.845   3.126  18.144  0.00  0.00    +0.000 N 
ATOM     21  H   UNL     1       4.407   2.763  17.298  0.00  0.00    +0.000 HD
BRANCH  19  22
ATOM     22  C   UNL     1       6.181   4.389  16.586  0.00  0.00    +0.000 A 
ATOM     23  C   UNL     1       5.413   3.904  15.542  0.00  0.00    +0.000 A 
ATOM     24  C   UNL     1       5.810   4.220  14.249  0.00  0.00    +0.000 A 
ATOM     25  C   UNL     1       6.952   4.984  14.091  0.00  0.00    +0.000 A 
ATOM     26  N   UNL     1       7.689   5.435  15.126  0.00  0.00    +0.000 NA
ATOM     27  N   UNL     1       7.296   5.139  16.394  0.00  0.00    +0.000 NA
ENDBRANCH  19  22
ENDBRANCH  15  20
ENDBRANCH   1  15
TORSDOF 5
ENDMDL
MODEL 7
REMARK VINA RESULT:      -7.2      3.599      8.506
REMARK  Name = 
REMARK  5 active torsions:
REMARK  status: ('A' for Active; 'I' for Inactive)
REMARK    1  A    between atoms: C_2  and  C_21
REMARK    2  A    between atoms: N_3  and  C_4
REMARK    3  A    between atoms: C_4  and  C_5
REMARK    4  A    between atoms: C_5  and  N_6
REMARK    5  A    between atoms: N_9  and  C_10
REMARK                            x       y       z     vdW  Elec       q    Type
REMARK                         _______ _______ _______ _____ _____    ______ ____
ROOT
ATOM      1  C   UNL     1       3.555   5.379  19.615  0.00  0.00    +0.000 C 
ENDROOT
BRANCH   1   2
ATOM      2  N   UNL     1       4.784   4.573  19.729  0.00  0.00    +0.000 NA
ATOM      3  C   UNL     1       4.806   3.370  18.864  0.00  0.00    +0.000 C 
ATOM      4  C   UNL     1       4.658   3.629  17.347  0.00  0.00    +0.000 C 
ATOM      5  N   UNL     1       5.676   4.595  16.887  0.00  0.00    +0.000 N 
ATOM      6  C   UNL     1       5.880   5.793  17.714  0.00  0.00    +0.000 C 
ATOM      7  C   UNL     1       5.927   5.416  19.229  0.00  0.00    +0.000 C 
BRANCH   5   8
ATOM      8  C   UNL     1       6.054   4.583  15.551  0.00  0.00    +0.000 A 
ATOM      9  C   UNL     1       7.233   5.177  15.073  0.00  0.00    +0.000 A 
ATOM     10  C   UNL     1       7.616   5.053  13.730  0.00  0.00    +0.000 A 
ATOM     11  C   UNL     1       6.822   4.327  12.853  0.00  0.00    +0.000 A 
ATOM     12  F   UNL     1       7.198   4.186  11.575  0.00  0.00    +0.000 F 
ATOM     13  C   UNL     1       5.647   3.741  13.287  0.00  0.00    +0.000 A 
ATOM     14  C   UNL     1       5.269   3.876  14.623  0.00  0.00    +0.000 A 
ENDBRANCH   5   8
ENDBRANCH   1   2
BRANCH   1  15
ATOM     15  C   UNL     1       2.224   5.143  20.331  0.00  0.00    +0.000 C 
ATOM     16  C   UNL     1       2.000   4.001  21.308  0.00  0.00    +0.000 C 
ATOM     17  C   UNL     1       1.287   3.997  19.991  0.00  0.00    +0.000 C 
BRANCH  15  20
ATOM     18  O   UNL     1       2.126   7.557  18.788  0.00  0.00    +0.000 OA
ATOM     19  C   UNL     1       1.677   7.531  19.932  0.00  0.00    +0.000 C 
ATOM     20  N   UNL     1       1.626   6.400  20.724  0.00  0.00    +0.000 N 
ATOM     21  H   UNL     1       1.329   6.517  21.692  0.00  0.00    +0.000 HD
BRANCH  19  22
ATOM     22  C   UNL     1       1.146   8.757  20.574  0.00  0.00    +0.000 A 
ATOM     23  C   UNL     1       0.714   8.733  21.888  0.00  0.00    +0.000 A 
ATOM     24  C   UNL     1       0.239   9.920  22.431  0.00  0.00    +0.000 A 
ATOM     25  C   UNL     1       0.217  11.040  21.620  0.00  0.00    +0.000 A 
ATOM     26  N   UNL     1       0.635  11.033  20.338  0.00  0.00    +0.000 NA
ATOM     27  N   UNL     1       1.113   9.875  19.806  0.00  0.00    +0.000 NA
ENDBRANCH  19  22
ENDBRANCH  15  20
ENDBRANCH   1  15
TORSDOF 5
ENDMDL
MODEL 8
REMARK VINA RESULT:      -7.2      3.498      8.365
REMARK  Name = 
REMARK  5 active torsions:
REMARK  status: ('A' for Active; 'I' for Inactive)
REMARK    1  A    between atoms: C_2  and  C_21
REMARK    2  A    between atoms: N_3  and  C_4
REMARK    3  A    between atoms: C_4  and  C_5
REMARK    4  A    between atoms: C_5  and  N_6
REMARK    5  A    between atoms: N_9  and  C_10
REMARK                            x       y       z     vdW  Elec       q    Type
REMARK                         _______ _______ _______ _____ _____    ______ ____
ROOT
ATOM      1  C   UNL     1       3.988   5.648  19.482  0.00  0.00    +0.000 C 
ENDROOT
BRANCH   1   2
ATOM      2  N   UNL     1       5.076   4.661  19.602  0.00  0.00    +0.000 NA
ATOM      3  C   UNL     1       4.900   3.454  18.761  0.00  0.00    +0.000 C 
ATOM      4  C   UNL     1       4.778   3.706  17.241  0.00  0.00    +0.000 C 
ATOM      5  N   UNL     1       5.931   4.491  16.754  0.00  0.00    +0.000 N 
ATOM      6  C   UNL     1       6.330   5.656  17.557  0.00  0.00    +0.000 C 
ATOM      7  C   UNL     1       6.332   5.304  19.078  0.00  0.00    +0.000 C 
BRANCH   5   8
ATOM      8  C   UNL     1       6.288   4.395  15.416  0.00  0.00    +0.000 A 
ATOM      9  C   UNL     1       5.590   3.615  14.480  0.00  0.00    +0.000 A 
ATOM     10  C   UNL     1       5.935   3.628  13.121  0.00  0.00    +0.000 A 
ATOM     11  C   UNL     1       6.981   4.429  12.686  0.00  0.00    +0.000 A 
ATOM     12  F   UNL     1       7.297   4.463  11.384  0.00  0.00    +0.000 F 
ATOM     13  C   UNL     1       7.699   5.200  13.582  0.00  0.00    +0.000 A 
ATOM     14  C   UNL     1       7.355   5.174  14.934  0.00  0.00    +0.000 A 
ENDBRANCH   5   8
ENDBRANCH   1   2
BRANCH   1  15
ATOM     15  C   UNL     1       2.568   5.532  20.038  0.00  0.00    +0.000 C 
ATOM     16  C   UNL     1       2.160   4.483  21.058  0.00  0.00    +0.000 C 
ATOM     17  C   UNL     1       1.617   4.408  19.665  0.00  0.00    +0.000 C 
BRANCH  15  20
ATOM     18  O   UNL     1       2.102   7.559  18.065  0.00  0.00    +0.000 OA
ATOM     19  C   UNL     1       1.862   7.778  19.251  0.00  0.00    +0.000 C 
ATOM     20  N   UNL     1       1.997   6.843  20.258  0.00  0.00    +0.000 N 
ATOM     21  H   UNL     1       1.869   7.164  21.218  0.00  0.00    +0.000 HD
BRANCH  19  22
ATOM     22  C   UNL     1       1.403   9.112  19.705  0.00  0.00    +0.000 A 
ATOM     23  C   UNL     1       0.973   9.303  21.006  0.00  0.00    +0.000 A 
ATOM     24  C   UNL     1       0.567  10.581  21.369  0.00  0.00    +0.000 A 
ATOM     25  C   UNL     1       0.606  11.571  20.404  0.00  0.00    +0.000 A 
ATOM     26  N   UNL     1       1.020  11.355  19.139  0.00  0.00    +0.000 NA
ATOM     27  N   UNL     1       1.431  10.107  18.784  0.00  0.00    +0.000 NA
ENDBRANCH  19  22
ENDBRANCH  15  20
ENDBRANCH   1  15
TORSDOF 5
ENDMDL
MODEL 9
REMARK VINA RESULT:      -7.2      3.567      8.564
REMARK  Name = 
REMARK  5 active torsions:
REMARK  status: ('A' for Active; 'I' for Inactive)
REMARK    1  A    between atoms: C_2  and  C_21
REMARK    2  A    between atoms: N_3  and  C_4
REMARK    3  A    between atoms: C_4  and  C_5
REMARK    4  A    between atoms: C_5  and  N_6
REMARK    5  A    between atoms: N_9  and  C_10
REMARK                            x       y       z     vdW  Elec       q    Type
REMARK                         _______ _______ _______ _____ _____    ______ ____
ROOT
ATOM      1  C   UNL     1       3.599   5.599  19.689  0.00  0.00    +0.000 C 
ENDROOT
BRANCH   1   2
ATOM      2  N   UNL     1       4.853   4.844  19.858  0.00  0.00    +0.000 NA
ATOM      3  C   UNL     1       4.892   3.555  19.127  0.00  0.00    +0.000 C 
ATOM      4  C   UNL     1       4.704   3.645  17.595  0.00  0.00    +0.000 C 
ATOM      5  N   UNL     1       5.683   4.583  17.009  0.00  0.00    +0.000 N 
ATOM      6  C   UNL     1       5.870   5.868  17.698  0.00  0.00    +0.000 C 
ATOM      7  C   UNL     1       5.960   5.658  19.243  0.00  0.00    +0.000 C 
BRANCH   5   8
ATOM      8  C   UNL     1       6.032   4.436  15.674  0.00  0.00    +0.000 A 
ATOM      9  C   UNL     1       5.200   3.834  14.716  0.00  0.00    +0.000 A 
ATOM     10  C   UNL     1       5.560   3.796  13.361  0.00  0.00    +0.000 A 
ATOM     11  C   UNL     1       6.756   4.369  12.952  0.00  0.00    +0.000 A 
ATOM     12  F   UNL     1       7.091   4.358  11.655  0.00  0.00    +0.000 F 
ATOM     13  C   UNL     1       7.606   4.959  13.871  0.00  0.00    +0.000 A 
ATOM     14  C   UNL     1       7.244   4.983  15.218  0.00  0.00    +0.000 A 
ENDBRANCH   5   8
ENDBRANCH   1   2
BRANCH   1  15
ATOM     15  C   UNL     1       2.240   5.289  20.317  0.00  0.00    +0.000 C 
ATOM     16  C   UNL     1       1.987   4.066  21.182  0.00  0.00    +0.000 C 
ATOM     17  C   UNL     1       1.337   4.166  19.837  0.00  0.00    +0.000 C 
BRANCH  15  20
ATOM     18  O   UNL     1       2.144   7.813  18.962  0.00  0.00    +0.000 OA
ATOM     19  C   UNL     1       1.659   7.691  20.085  0.00  0.00    +0.000 C 
ATOM     20  N   UNL     1       1.606   6.502  20.786  0.00  0.00    +0.000 N 
ATOM     21  H   UNL     1       1.275   6.539  21.750  0.00  0.00    +0.000 HD
BRANCH  19  22
ATOM     22  C   UNL     1       1.084   8.854  20.801  0.00  0.00    +0.000 A 
ATOM     23  C   UNL     1       0.431   9.856  20.106  0.00  0.00    +0.000 A 
ATOM     24  C   UNL     1      -0.094  10.912  20.840  0.00  0.00    +0.000 A 
ATOM     25  C   UNL     1       0.083  10.899  22.212  0.00  0.00    +0.000 A 
ATOM     26  N   UNL     1       0.734   9.914  22.864  0.00  0.00    +0.000 NA
ATOM     27  N   UNL     1       1.238   8.871  22.149  0.00  0.00    +0.000 NA
ENDBRANCH  19  22
ENDBRANCH  15  20
ENDBRANCH   1  15
TORSDOF 5
ENDMDL
