MODEL 1
REMARK VINA RESULT:      -8.5      0.000      0.000
REMARK  Name = 
REMARK  7 active torsions:
REMARK  status: ('A' for Active; 'I' for Inactive)
REMARK    1  A    between atoms: C_1  and  N_2
REMARK    2  A    between atoms: C_5  and  O_6
REMARK    3  A    between atoms: O_6  and  C_7
REMARK    4  A    between atoms: C_9  and  N_10
REMARK    5  A    between atoms: N_10  and  C_11
REMARK    6  A    between atoms: C_11  and  C_12
REMARK    7  A    between atoms: C_24  and  C_25
REMARK                            x       y       z     vdW  Elec       q    Type
REMARK                         _______ _______ _______ _____ _____    ______ ____
ROOT
ATOM      1  C   UNL     1       2.861   4.733  18.353  0.00  0.00    +0.000 A 
ATOM      2  C   UNL     1       2.768   6.009  18.953  0.00  0.00    +0.000 A 
ATOM      3  C   UNL     1       1.988   6.251  20.097  0.00  0.00    +0.000 A 
ATOM      4  C   UNL     1       1.162   5.225  20.544  0.00  0.00    +0.000 A 
ATOM      5  C   UNL     1       1.271   3.949  19.996  0.00  0.00    +0.000 A 
ATOM      6  C   UNL     1       2.194   3.666  18.963  0.00  0.00    +0.000 A 
ENDROOT
BRANCH   6   7
ATOM      7  C   UNL     1       2.453   2.205  18.717  0.00  0.00    +0.000 C 
ATOM      8  F   UNL     1       2.484   1.846  17.411  0.00  0.00    +0.000 F 
ATOM      9  F   UNL     1       3.671   1.811  19.200  0.00  0.00    +0.000 F 
ATOM     10  F   UNL     1       1.542   1.397  19.322  0.00  0.00    +0.000 F 
ENDBRANCH   6   7
BRANCH   3  11
ATOM     11  N   UNL     1       2.013   7.432  20.848  0.00  0.00    +0.000 N 
ATOM     12  H   UNL     1       2.666   7.385  21.626  0.00  0.00    +0.000 HD
BRANCH  11  13
ATOM     13  C   UNL     1       0.756   8.086  21.169  0.00  0.00    +0.000 C 
BRANCH  13  14
ATOM     14  C   UNL     1       0.758   9.536  20.723  0.00  0.00    +0.000 A 
ATOM     15  C   UNL     1       1.474   9.884  19.556  0.00  0.00    +0.000 A 
ATOM     16  C   UNL     1       1.412  11.189  19.110  0.00  0.00    +0.000 A 
ATOM     17  C   UNL     1       0.641  12.134  19.737  0.00  0.00    +0.000 A 
ATOM     18  C   UNL     1      -0.055  11.843  20.877  0.00  0.00    +0.000 A 
ATOM     19  C   UNL     1       0.048  10.549  21.409  0.00  0.00    +0.000 A 
ATOM     20 BR   UNL     1      -0.743  10.243  23.110  0.00  0.00    +0.000 Br
ATOM     21  O   UNL     1       0.706  13.347  19.127  0.00  0.00    +0.000 OA
ATOM     22  C   UNL     1       1.824  13.116  18.249  0.00  0.00    +0.000 C 
ATOM     23  O   UNL     1       2.080  11.710  18.040  0.00  0.00    +0.000 OA
ENDBRANCH  13  14
ENDBRANCH  11  13
ENDBRANCH   3  11
BRANCH   1  24
ATOM     24  O   UNL     1       3.742   4.688  17.301  0.00  0.00    +0.000 OA
BRANCH  24  29
ATOM     25  C   UNL     1       7.829   5.715  19.085  0.00  0.00    +0.000 C 
ATOM     26  N   UNL     1       7.132   4.781  18.212  0.00  0.00    +0.000 NA
ATOM     27  C   UNL     1       6.992   5.257  16.842  0.00  0.00    +0.000 C 
ATOM     28  C   UNL     1       5.928   4.327  16.267  0.00  0.00    +0.000 C 
ATOM     29  C   UNL     1       4.994   3.989  17.443  0.00  0.00    +0.000 C 
ATOM     30  C   UNL     1       5.758   4.537  18.666  0.00  0.00    +0.000 C 
ENDBRANCH  24  29
ENDBRANCH   1  24
TORSDOF 6
ENDMDL
MODEL 2
REMARK VINA RESULT:      -8.5      2.248      2.854
REMARK  Name = 
REMARK  7 active torsions:
REMARK  status: ('A' for Active; 'I' for Inactive)
REMARK    1  A    between atoms: C_1  and  N_2
REMARK    2  A    between atoms: C_5  and  O_6
REMARK    3  A    between atoms: O_6  and  C_7
REMARK    4  A    between atoms: C_9  and  N_10
REMARK    5  A    between atoms: N_10  and  C_11
REMARK    6  A    between atoms: C_11  and  C_12
REMARK    7  A    between atoms: C_24  and  C_25
REMARK                            x       y       z     vdW  Elec       q    Type
REMARK                         _______ _______ _______ _____ _____    ______ ____
ROOT
ATOM      1  C   UNL     1       3.135   5.211  18.469  0.00  0.00    +0.000 A 
ATOM      2  C   UNL     1       2.714   6.548  18.647  0.00  0.00    +0.000 A 
ATOM      3  C   UNL     1       2.054   6.984  19.810  0.00  0.00    +0.000 A 
ATOM      4  C   UNL     1       1.671   6.019  20.735  0.00  0.00    +0.000 A 
ATOM      5  C   UNL     1       2.115   4.706  20.601  0.00  0.00    +0.000 A 
ATOM      6  C   UNL     1       2.935   4.310  19.520  0.00  0.00    +0.000 A 
ENDROOT
BRANCH   6   7
ATOM      7  C   UNL     1       3.619   2.981  19.687  0.00  0.00    +0.000 C 
ATOM      8  F   UNL     1       4.967   3.015  19.549  0.00  0.00    +0.000 F 
ATOM      9  F   UNL     1       3.425   2.456  20.935  0.00  0.00    +0.000 F 
ATOM     10  F   UNL     1       3.162   2.039  18.820  0.00  0.00    +0.000 F 
ENDBRANCH   6   7
BRANCH   3  11
ATOM     11  N   UNL     1       1.793   8.322  20.128  0.00  0.00    +0.000 N 
ATOM     12  H   UNL     1       1.452   8.436  21.079  0.00  0.00    +0.000 HD
BRANCH  11  13
ATOM     13  C   UNL     1       1.114   9.156  19.152  0.00  0.00    +0.000 C 
BRANCH  13  14
ATOM     14  C   UNL     1       0.137  10.105  19.821  0.00  0.00    +0.000 A 
ATOM     15  C   UNL     1       0.355  10.459  21.171  0.00  0.00    +0.000 A 
ATOM     16  C   UNL     1      -0.492  11.380  21.754  0.00  0.00    +0.000 A 
ATOM     17  C   UNL     1      -1.497  11.991  21.049  0.00  0.00    +0.000 A 
ATOM     18  C   UNL     1      -1.750  11.666  19.745  0.00  0.00    +0.000 A 
ATOM     19  C   UNL     1      -0.964  10.674  19.140  0.00  0.00    +0.000 A 
ATOM     20 BR   UNL     1      -1.488  10.086  17.410  0.00  0.00    +0.000 Br
ATOM     21  O   UNL     1      -2.199  12.877  21.803  0.00  0.00    +0.000 OA
ATOM     22  C   UNL     1      -1.711  12.521  23.110  0.00  0.00    +0.000 C 
ATOM     23  O   UNL     1      -0.464  11.794  23.054  0.00  0.00    +0.000 OA
ENDBRANCH  13  14
ENDBRANCH  11  13
ENDBRANCH   3  11
BRANCH   1  24
ATOM     24  O   UNL     1       3.838   5.011  17.307  0.00  0.00    +0.000 OA
BRANCH  24  29
ATOM     25  C   UNL     1       7.178   4.918  14.180  0.00  0.00    +0.000 C 
ATOM     26  N   UNL     1       6.767   5.522  15.440  0.00  0.00    +0.000 NA
ATOM     27  C   UNL     1       7.080   4.708  16.607  0.00  0.00    +0.000 C 
ATOM     28  C   UNL     1       6.227   5.343  17.701  0.00  0.00    +0.000 C 
ATOM     29  C   UNL     1       4.961   5.857  16.993  0.00  0.00    +0.000 C 
ATOM     30  C   UNL     1       5.314   5.718  15.499  0.00  0.00    +0.000 C 
ENDBRANCH  24  29
ENDBRANCH   1  24
TORSDOF 6
ENDMDL
MODEL 3
REMARK VINA RESULT:      -8.5      2.009      2.612
REMARK  Name = 
REMARK  7 active torsions:
REMARK  status: ('A' for Active; 'I' for Inactive)
REMARK    1  A    between atoms: C_1  and  N_2
REMARK    2  A    between atoms: C_5  and  O_6
REMARK    3  A    between atoms: O_6  and  C_7
REMARK    4  A    between atoms: C_9  and  N_10
REMARK    5  A    between atoms: N_10  and  C_11
REMARK    6  A    between atoms: C_11  and  C_12
REMARK    7  A    between atoms: C_24  and  C_25
REMARK                            x       y       z     vdW  Elec       q    Type
REMARK                         _______ _______ _______ _____ _____    ______ ____
ROOT
ATOM      1  C   UNL     1       4.417   4.496  18.858  0.00  0.00    +0.000 A 
ATOM      2  C   UNL     1       4.069   5.670  19.564  0.00  0.00    +0.000 A 
ATOM      3  C   UNL     1       2.736   6.083  19.733  0.00  0.00    +0.000 A 
ATOM      4  C   UNL     1       1.751   5.386  19.041  0.00  0.00    +0.000 A 
ATOM      5  C   UNL     1       2.066   4.202  18.379  0.00  0.00    +0.000 A 
ATOM      6  C   UNL     1       3.384   3.691  18.366  0.00  0.00    +0.000 A 
ENDROOT
BRANCH   6   7
ATOM      7  C   UNL     1       3.513   2.258  17.929  0.00  0.00    +0.000 C 
ATOM      8  F   UNL     1       2.398   1.735  17.363  0.00  0.00    +0.000 F 
ATOM      9  F   UNL     1       4.479   2.096  16.975  0.00  0.00    +0.000 F 
ATOM     10  F   UNL     1       3.861   1.425  18.945  0.00  0.00    +0.000 F 
ENDBRANCH   6   7
BRANCH   3  11
ATOM     11  N   UNL     1       2.319   7.115  20.581  0.00  0.00    +0.000 N 
ATOM     12  H   UNL     1       2.885   7.179  21.424  0.00  0.00    +0.000 HD
BRANCH  11  13
ATOM     13  C   UNL     1       0.897   7.308  20.808  0.00  0.00    +0.000 C 
BRANCH  13  14
ATOM     14  C   UNL     1       0.557   8.778  20.960  0.00  0.00    +0.000 A 
ATOM     15  C   UNL     1      -0.066   9.209  22.152  0.00  0.00    +0.000 A 
ATOM     16  C   UNL     1      -0.306  10.558  22.319  0.00  0.00    +0.000 A 
ATOM     17  C   UNL     1       0.085  11.486  21.388  0.00  0.00    +0.000 A 
ATOM     18  C   UNL     1       0.677  11.110  20.215  0.00  0.00    +0.000 A 
ATOM     19  C   UNL     1       0.864   9.741  19.970  0.00  0.00    +0.000 A 
ATOM     20 BR   UNL     1       1.477   9.243  18.241  0.00  0.00    +0.000 Br
ATOM     21  O   UNL     1      -0.228  12.756  21.754  0.00  0.00    +0.000 OA
ATOM     22  C   UNL     1      -1.114  12.478  22.856  0.00  0.00    +0.000 C 
ATOM     23  O   UNL     1      -0.944  11.141  23.376  0.00  0.00    +0.000 OA
ENDBRANCH  13  14
ENDBRANCH  11  13
ENDBRANCH   3  11
BRANCH   1  24
ATOM     24  O   UNL     1       5.762   4.223  18.883  0.00  0.00    +0.000 OA
BRANCH  24  29
ATOM     25  C   UNL     1       7.743   8.127  17.549  0.00  0.00    +0.000 C 
ATOM     26  N   UNL     1       7.361   6.794  17.105  0.00  0.00    +0.000 NA
ATOM     27  C   UNL     1       5.975   6.700  16.666  0.00  0.00    +0.000 C 
ATOM     28  C   UNL     1       5.729   5.195  16.640  0.00  0.00    +0.000 C 
ATOM     29  C   UNL     1       6.594   4.614  17.774  0.00  0.00    +0.000 C 
ATOM     30  C   UNL     1       7.480   5.807  18.184  0.00  0.00    +0.000 C 
ENDBRANCH  24  29
ENDBRANCH   1  24
TORSDOF 6
ENDMDL
MODEL 4
REMARK VINA RESULT:      -8.4      1.005      1.588
REMARK  Name = 
REMARK  7 active torsions:
REMARK  status: ('A' for Active; 'I' for Inactive)
REMARK    1  A    between atoms: C_1  and  N_2
REMARK    2  A    between atoms: C_5  and  O_6
REMARK    3  A    between atoms: O_6  and  C_7
REMARK    4  A    between atoms: C_9  and  N_10
REMARK    5  A    between atoms: N_10  and  C_11
REMARK    6  A    between atoms: C_11  and  C_12
REMARK    7  A    between atoms: C_24  and  C_25
REMARK                            x       y       z     vdW  Elec       q    Type
REMARK                         _______ _______ _______ _____ _____    ______ ____
ROOT
ATOM      1  C   UNL     1       3.013   4.987  18.296  0.00  0.00    +0.000 A 
ATOM      2  C   UNL     1       2.730   6.252  18.859  0.00  0.00    +0.000 A 
ATOM      3  C   UNL     1       2.138   6.400  20.126  0.00  0.00    +0.000 A 
ATOM      4  C   UNL     1       1.679   5.251  20.761  0.00  0.00    +0.000 A 
ATOM      5  C   UNL     1       1.987   3.995  20.246  0.00  0.00    +0.000 A 
ATOM      6  C   UNL     1       2.745   3.848  19.062  0.00  0.00    +0.000 A 
ENDROOT
BRANCH   6   7
ATOM      7  C   UNL     1       3.296   2.470  18.820  0.00  0.00    +0.000 C 
ATOM      8  F   UNL     1       4.311   2.112  19.644  0.00  0.00    +0.000 F 
ATOM      9  F   UNL     1       2.353   1.498  19.011  0.00  0.00    +0.000 F 
ATOM     10  F   UNL     1       3.746   2.296  17.549  0.00  0.00    +0.000 F 
ENDBRANCH   6   7
BRANCH   3  11
ATOM     11  N   UNL     1       2.017   7.611  20.816  0.00  0.00    +0.000 N 
ATOM     12  H   UNL     1       2.588   7.638  21.657  0.00  0.00    +0.000 HD
BRANCH  11  13
ATOM     13  C   UNL     1       0.699   8.200  20.976  0.00  0.00    +0.000 C 
BRANCH  13  14
ATOM     14  C   UNL     1       0.707   9.676  20.628  0.00  0.00    +0.000 A 
ATOM     15  C   UNL     1       1.402  10.095  19.472  0.00  0.00    +0.000 A 
ATOM     16  C   UNL     1       1.344  11.427  19.117  0.00  0.00    +0.000 A 
ATOM     17  C   UNL     1       0.596  12.336  19.822  0.00  0.00    +0.000 A 
ATOM     18  C   UNL     1      -0.079  11.975  20.954  0.00  0.00    +0.000 A 
ATOM     19  C   UNL     1       0.021  10.646  21.396  0.00  0.00    +0.000 A 
ATOM     20 BR   UNL     1      -0.738  10.234  23.089  0.00  0.00    +0.000 Br
ATOM     21  O   UNL     1       0.661  13.586  19.294  0.00  0.00    +0.000 OA
ATOM     22  C   UNL     1       1.758  13.405  18.378  0.00  0.00    +0.000 C 
ATOM     23  O   UNL     1       1.995  12.014  18.070  0.00  0.00    +0.000 OA
ENDBRANCH  13  14
ENDBRANCH  11  13
ENDBRANCH   3  11
BRANCH   1  24
ATOM     24  O   UNL     1       3.671   5.061  17.093  0.00  0.00    +0.000 OA
BRANCH  24  29
ATOM     25  C   UNL     1       7.215   5.033  14.197  0.00  0.00    +0.000 C 
ATOM     26  N   UNL     1       6.782   5.471  15.517  0.00  0.00    +0.000 NA
ATOM     27  C   UNL     1       6.897   4.440  16.540  0.00  0.00    +0.000 C 
ATOM     28  C   UNL     1       6.044   4.995  17.677  0.00  0.00    +0.000 C 
ATOM     29  C   UNL     1       4.912   5.786  16.997  0.00  0.00    +0.000 C 
ATOM     30  C   UNL     1       5.365   5.850  15.525  0.00  0.00    +0.000 C 
ENDBRANCH  24  29
ENDBRANCH   1  24
TORSDOF 6
ENDMDL
MODEL 5
REMARK VINA RESULT:      -8.4      1.881      2.365
REMARK  Name = 
REMARK  7 active torsions:
REMARK  status: ('A' for Active; 'I' for Inactive)
REMARK    1  A    between atoms: C_1  and  N_2
REMARK    2  A    between atoms: C_5  and  O_6
REMARK    3  A    between atoms: O_6  and  C_7
REMARK    4  A    between atoms: C_9  and  N_10
REMARK    5  A    between atoms: N_10  and  C_11
REMARK    6  A    between atoms: C_11  and  C_12
REMARK    7  A    between atoms: C_24  and  C_25
REMARK                            x       y       z     vdW  Elec       q    Type
REMARK                         _______ _______ _______ _____ _____    ______ ____
ROOT
ATOM      1  C   UNL     1       2.775   4.614  18.386  0.00  0.00    +0.000 A 
ATOM      2  C   UNL     1       2.607   5.847  19.056  0.00  0.00    +0.000 A 
ATOM      3  C   UNL     1       1.774   5.989  20.179  0.00  0.00    +0.000 A 
ATOM      4  C   UNL     1       0.975   4.906  20.531  0.00  0.00    +0.000 A 
ATOM      5  C   UNL     1       1.158   3.672  19.914  0.00  0.00    +0.000 A 
ATOM      6  C   UNL     1       2.130   3.487  18.905  0.00  0.00    +0.000 A 
ENDROOT
BRANCH   6   7
ATOM      7  C   UNL     1       2.458   2.055  18.584  0.00  0.00    +0.000 C 
ATOM      8  F   UNL     1       2.514   1.768  17.261  0.00  0.00    +0.000 F 
ATOM      9  F   UNL     1       3.690   1.692  19.056  0.00  0.00    +0.000 F 
ATOM     10  F   UNL     1       1.582   1.175  19.138  0.00  0.00    +0.000 F 
ENDBRANCH   6   7
BRANCH   3  11
ATOM     11  N   UNL     1       1.721   7.123  20.998  0.00  0.00    +0.000 N 
ATOM     12  H   UNL     1       0.926   7.108  21.632  0.00  0.00    +0.000 HD
BRANCH  11  13
ATOM     13  C   UNL     1       1.986   8.426  20.412  0.00  0.00    +0.000 C 
BRANCH  13  14
ATOM     14  C   UNL     1       0.861   9.401  20.703  0.00  0.00    +0.000 A 
ATOM     15  C   UNL     1       0.496   9.632  22.047  0.00  0.00    +0.000 A 
ATOM     16  C   UNL     1      -0.477  10.575  22.312  0.00  0.00    +0.000 A 
ATOM     17  C   UNL     1      -1.055  11.321  21.318  0.00  0.00    +0.000 A 
ATOM     18  C   UNL     1      -0.741  11.119  20.003  0.00  0.00    +0.000 A 
ATOM     19  C   UNL     1       0.183  10.111  19.685  0.00  0.00    +0.000 A 
ATOM     20 BR   UNL     1       0.424   9.703  17.844  0.00  0.00    +0.000 Br
ATOM     21  O   UNL     1      -1.971  12.204  21.794  0.00  0.00    +0.000 OA
ATOM     22  C   UNL     1      -2.106  11.710  23.140  0.00  0.00    +0.000 C 
ATOM     23  O   UNL     1      -0.989  10.885  23.539  0.00  0.00    +0.000 OA
ENDBRANCH  13  14
ENDBRANCH  11  13
ENDBRANCH   3  11
BRANCH   1  24
ATOM     24  O   UNL     1       3.697   4.667  17.369  0.00  0.00    +0.000 OA
BRANCH  24  29
ATOM     25  C   UNL     1       7.755   5.755  19.185  0.00  0.00    +0.000 C 
ATOM     26  N   UNL     1       7.079   4.816  18.300  0.00  0.00    +0.000 NA
ATOM     27  C   UNL     1       6.938   5.302  16.933  0.00  0.00    +0.000 C 
ATOM     28  C   UNL     1       5.895   4.357  16.345  0.00  0.00    +0.000 C 
ATOM     29  C   UNL     1       4.961   3.991  17.513  0.00  0.00    +0.000 C 
ATOM     30  C   UNL     1       5.709   4.542  18.744  0.00  0.00    +0.000 C 
ENDBRANCH  24  29
ENDBRANCH   1  24
TORSDOF 6
ENDMDL
MODEL 6
REMARK VINA RESULT:      -8.4      2.071      2.807
REMARK  Name = 
REMARK  7 active torsions:
REMARK  status: ('A' for Active; 'I' for Inactive)
REMARK    1  A    between atoms: C_1  and  N_2
REMARK    2  A    between atoms: C_5  and  O_6
REMARK    3  A    between atoms: O_6  and  C_7
REMARK    4  A    between atoms: C_9  and  N_10
REMARK    5  A    between atoms: N_10  and  C_11
REMARK    6  A    between atoms: C_11  and  C_12
REMARK    7  A    between atoms: C_24  and  C_25
REMARK                            x       y       z     vdW  Elec       q    Type
REMARK                         _______ _______ _______ _____ _____    ______ ____
ROOT
ATOM      1  C   UNL     1       3.296   4.568  18.920  0.00  0.00    +0.000 A 
ATOM      2  C   UNL     1       2.936   5.770  19.571  0.00  0.00    +0.000 A 
ATOM      3  C   UNL     1       1.775   5.886  20.356  0.00  0.00    +0.000 A 
ATOM      4  C   UNL     1       0.883   4.818  20.350  0.00  0.00    +0.000 A 
ATOM      5  C   UNL     1       1.239   3.612  19.754  0.00  0.00    +0.000 A 
ATOM      6  C   UNL     1       2.491   3.442  19.120  0.00  0.00    +0.000 A 
ENDROOT
BRANCH   6   7
ATOM      7  C   UNL     1       2.881   2.017  18.839  0.00  0.00    +0.000 C 
ATOM      8  F   UNL     1       4.049   1.626  19.404  0.00  0.00    +0.000 F 
ATOM      9  F   UNL     1       1.961   1.128  19.325  0.00  0.00    +0.000 F 
ATOM     10  F   UNL     1       2.980   1.748  17.510  0.00  0.00    +0.000 F 
ENDBRANCH   6   7
BRANCH   3  11
ATOM     11  N   UNL     1       1.471   6.976  21.179  0.00  0.00    +0.000 N 
ATOM     12  H   UNL     1       0.503   6.967  21.494  0.00  0.00    +0.000 HD
BRANCH  11  13
ATOM     13  C   UNL     1       1.961   8.293  20.811  0.00  0.00    +0.000 C 
BRANCH  13  14
ATOM     14  C   UNL     1       0.878   9.345  20.953  0.00  0.00    +0.000 A 
ATOM     15  C   UNL     1       0.366   9.620  22.240  0.00  0.00    +0.000 A 
ATOM     16  C   UNL     1      -0.565  10.630  22.376  0.00  0.00    +0.000 A 
ATOM     17  C   UNL     1      -0.963  11.398  21.312  0.00  0.00    +0.000 A 
ATOM     18  C   UNL     1      -0.504  11.156  20.048  0.00  0.00    +0.000 A 
ATOM     19  C   UNL     1       0.381  10.084  19.854  0.00  0.00    +0.000 A 
ATOM     20 BR   UNL     1       0.820   9.633  18.060  0.00  0.00    +0.000 Br
ATOM     21  O   UNL     1      -1.869  12.348  21.665  0.00  0.00    +0.000 OA
ATOM     22  C   UNL     1      -2.203  11.884  22.987  0.00  0.00    +0.000 C 
ATOM     23  O   UNL     1      -1.202  10.993  23.527  0.00  0.00    +0.000 OA
ENDBRANCH  13  14
ENDBRANCH  11  13
ENDBRANCH   3  11
BRANCH   1  24
ATOM     24  O   UNL     1       4.508   4.638  18.279  0.00  0.00    +0.000 OA
BRANCH  24  29
ATOM     25  C   UNL     1       6.993   4.799  14.439  0.00  0.00    +0.000 C 
ATOM     26  N   UNL     1       6.257   5.615  15.395  0.00  0.00    +0.000 NA
ATOM     27  C   UNL     1       7.035   5.979  16.572  0.00  0.00    +0.000 C 
ATOM     28  C   UNL     1       5.966   6.460  17.548  0.00  0.00    +0.000 C 
ATOM     29  C   UNL     1       4.715   5.617  17.242  0.00  0.00    +0.000 C 
ATOM     30  C   UNL     1       5.086   4.907  15.924  0.00  0.00    +0.000 C 
ENDBRANCH  24  29
ENDBRANCH   1  24
TORSDOF 6
ENDMDL
MODEL 7
REMARK VINA RESULT:      -8.4      2.525      2.956
REMARK  Name = 
REMARK  7 active torsions:
REMARK  status: ('A' for Active; 'I' for Inactive)
REMARK    1  A    between atoms: C_1  and  N_2
REMARK    2  A    between atoms: C_5  and  O_6
REMARK    3  A    between atoms: O_6  and  C_7
REMARK    4  A    between atoms: C_9  and  N_10
REMARK    5  A    between atoms: N_10  and  C_11
REMARK    6  A    between atoms: C_11  and  C_12
REMARK    7  A    between atoms: C_24  and  C_25
REMARK                            x       y       z     vdW  Elec       q    Type
REMARK                         _______ _______ _______ _____ _____    ______ ____
ROOT
ATOM      1  C   UNL     1       3.015   5.391  18.382  0.00  0.00    +0.000 A 
ATOM      2  C   UNL     1       2.617   6.745  18.460  0.00  0.00    +0.000 A 
ATOM      3  C   UNL     1       1.912   7.262  19.561  0.00  0.00    +0.000 A 
ATOM      4  C   UNL     1       1.462   6.361  20.521  0.00  0.00    +0.000 A 
ATOM      5  C   UNL     1       1.881   5.034  20.486  0.00  0.00    +0.000 A 
ATOM      6  C   UNL     1       2.744   4.558  19.472  0.00  0.00    +0.000 A 
ENDROOT
BRANCH   6   7
ATOM      7  C   UNL     1       3.387   3.228  19.750  0.00  0.00    +0.000 C 
ATOM      8  F   UNL     1       4.741   3.254  19.810  0.00  0.00    +0.000 F 
ATOM      9  F   UNL     1       3.009   2.717  20.961  0.00  0.00    +0.000 F 
ATOM     10  F   UNL     1       3.056   2.279  18.835  0.00  0.00    +0.000 F 
ENDBRANCH   6   7
BRANCH   3  11
ATOM     11  N   UNL     1       1.667   8.621  19.787  0.00  0.00    +0.000 N 
ATOM     12  H   UNL     1       0.959   8.775  20.502  0.00  0.00    +0.000 HD
BRANCH  11  13
ATOM     13  C   UNL     1       1.562   9.516  18.647  0.00  0.00    +0.000 C 
BRANCH  13  14
ATOM     14  C   UNL     1       0.191  10.162  18.577  0.00  0.00    +0.000 A 
ATOM     15  C   UNL     1      -0.764   9.628  17.685  0.00  0.00    +0.000 A 
ATOM     16  C   UNL     1      -2.033  10.170  17.677  0.00  0.00    +0.000 A 
ATOM     17  C   UNL     1      -2.401  11.170  18.541  0.00  0.00    +0.000 A 
ATOM     18  C   UNL     1      -1.503  11.725  19.410  0.00  0.00    +0.000 A 
ATOM     19  C   UNL     1      -0.180  11.258  19.391  0.00  0.00    +0.000 A 
ATOM     20 BR   UNL     1       1.090  12.202  20.444  0.00  0.00    +0.000 Br
ATOM     21  O   UNL     1      -3.697  11.546  18.383  0.00  0.00    +0.000 OA
ATOM     22  C   UNL     1      -3.990  10.883  17.138  0.00  0.00    +0.000 C 
ATOM     23  O   UNL     1      -3.058   9.818  16.848  0.00  0.00    +0.000 OA
ENDBRANCH  13  14
ENDBRANCH  11  13
ENDBRANCH   3  11
BRANCH   1  24
ATOM     24  O   UNL     1       3.769   5.108  17.269  0.00  0.00    +0.000 OA
BRANCH  24  29
ATOM     25  C   UNL     1       7.147   4.856  14.192  0.00  0.00    +0.000 C 
ATOM     26  N   UNL     1       6.748   5.477  15.448  0.00  0.00    +0.000 NA
ATOM     27  C   UNL     1       7.002   4.645  16.616  0.00  0.00    +0.000 C 
ATOM     28  C   UNL     1       6.166   5.318  17.700  0.00  0.00    +0.000 C 
ATOM     29  C   UNL     1       4.938   5.897  16.975  0.00  0.00    +0.000 C 
ATOM     30  C   UNL     1       5.306   5.745  15.486  0.00  0.00    +0.000 C 
ENDBRANCH  24  29
ENDBRANCH   1  24
TORSDOF 6
ENDMDL
MODEL 8
REMARK VINA RESULT:      -8.4      2.086      2.803
REMARK  Name = 
REMARK  7 active torsions:
REMARK  status: ('A' for Active; 'I' for Inactive)
REMARK    1  A    between atoms: C_1  and  N_2
REMARK    2  A    between atoms: C_5  and  O_6
REMARK    3  A    between atoms: O_6  and  C_7
REMARK    4  A    between atoms: C_9  and  N_10
REMARK    5  A    between atoms: N_10  and  C_11
REMARK    6  A    between atoms: C_11  and  C_12
REMARK    7  A    between atoms: C_24  and  C_25
REMARK                            x       y       z     vdW  Elec       q    Type
REMARK                         _______ _______ _______ _____ _____    ______ ____
ROOT
ATOM      1  C   UNL     1       3.093   5.066  18.301  0.00  0.00    +0.000 A 
ATOM      2  C   UNL     1       2.717   6.364  18.718  0.00  0.00    +0.000 A 
ATOM      3  C   UNL     1       2.096   6.609  19.956  0.00  0.00    +0.000 A 
ATOM      4  C   UNL     1       1.705   5.508  20.711  0.00  0.00    +0.000 A 
ATOM      5  C   UNL     1       2.105   4.227  20.341  0.00  0.00    +0.000 A 
ATOM      6  C   UNL     1       2.889   4.003  19.187  0.00  0.00    +0.000 A 
ENDROOT
BRANCH   6   7
ATOM      7  C   UNL     1       3.536   2.648  19.104  0.00  0.00    +0.000 C 
ATOM      8  F   UNL     1       3.874   2.256  17.851  0.00  0.00    +0.000 F 
ATOM      9  F   UNL     1       4.713   2.597  19.798  0.00  0.00    +0.000 F 
ATOM     10  F   UNL     1       2.762   1.660  19.625  0.00  0.00    +0.000 F 
ENDBRANCH   6   7
BRANCH   3  11
ATOM     11  N   UNL     1       1.883   7.878  20.506  0.00  0.00    +0.000 N 
ATOM     12  H   UNL     1       1.349   7.842  21.371  0.00  0.00    +0.000 HD
BRANCH  11  13
ATOM     13  C   UNL     1       1.512   8.972  19.626  0.00  0.00    +0.000 C 
BRANCH  13  14
ATOM     14  C   UNL     1       0.809  10.080  20.388  0.00  0.00    +0.000 A 
ATOM     15  C   UNL     1      -0.027   9.731  21.472  0.00  0.00    +0.000 A 
ATOM     16  C   UNL     1      -0.605  10.744  22.210  0.00  0.00    +0.000 A 
ATOM     17  C   UNL     1      -0.351  12.066  21.951  0.00  0.00    +0.000 A 
ATOM     18  C   UNL     1       0.439  12.447  20.903  0.00  0.00    +0.000 A 
ATOM     19  C   UNL     1       0.980  11.449  20.078  0.00  0.00    +0.000 A 
ATOM     20 BR   UNL     1       1.881  12.017  18.503  0.00  0.00    +0.000 Br
ATOM     21  O   UNL     1      -1.003  12.899  22.805  0.00  0.00    +0.000 OA
ATOM     22  C   UNL     1      -1.909  11.960  23.413  0.00  0.00    +0.000 C 
ATOM     23  O   UNL     1      -1.477  10.591  23.248  0.00  0.00    +0.000 OA
ENDBRANCH  13  14
ENDBRANCH  11  13
ENDBRANCH   3  11
BRANCH   1  24
ATOM     24  O   UNL     1       3.764   5.052  17.103  0.00  0.00    +0.000 OA
BRANCH  24  29
ATOM     25  C   UNL     1       7.220   5.010  14.103  0.00  0.00    +0.000 C 
ATOM     26  N   UNL     1       6.824   5.459  15.431  0.00  0.00    +0.000 NA
ATOM     27  C   UNL     1       6.974   4.439  16.461  0.00  0.00    +0.000 C 
ATOM     28  C   UNL     1       6.153   5.002  17.617  0.00  0.00    +0.000 C 
ATOM     29  C   UNL     1       4.998   5.782  16.963  0.00  0.00    +0.000 C 
ATOM     30  C   UNL     1       5.406   5.832  15.477  0.00  0.00    +0.000 C 
ENDBRANCH  24  29
ENDBRANCH   1  24
TORSDOF 6
ENDMDL
MODEL 9
REMARK VINA RESULT:      -8.3      2.055      2.831
REMARK  Name = 
REMARK  7 active torsions:
REMARK  status: ('A' for Active; 'I' for Inactive)
REMARK    1  A    between atoms: C_1  and  N_2
REMARK    2  A    between atoms: C_5  and  O_6
REMARK    3  A    between atoms: O_6  and  C_7
REMARK    4  A    between atoms: C_9  and  N_10
REMARK    5  A    between atoms: N_10  and  C_11
REMARK    6  A    between atoms: C_11  and  C_12
REMARK    7  A    between atoms: C_24  and  C_25
REMARK                            x       y       z     vdW  Elec       q    Type
REMARK                         _______ _______ _______ _____ _____    ______ ____
ROOT
ATOM      1  C   UNL     1       3.783   4.496  19.229  0.00  0.00    +0.000 A 
ATOM      2  C   UNL     1       3.239   5.648  19.841  0.00  0.00    +0.000 A 
ATOM      3  C   UNL     1       1.907   5.709  20.286  0.00  0.00    +0.000 A 
ATOM      4  C   UNL     1       1.068   4.648  19.960  0.00  0.00    +0.000 A 
ATOM      5  C   UNL     1       1.594   3.487  19.400  0.00  0.00    +0.000 A 
ATOM      6  C   UNL     1       2.974   3.361  19.121  0.00  0.00    +0.000 A 
ENDROOT
BRANCH   6   7
ATOM      7  C   UNL     1       3.449   1.959  18.856  0.00  0.00    +0.000 C 
ATOM      8  F   UNL     1       2.491   1.006  18.960  0.00  0.00    +0.000 F 
ATOM      9  F   UNL     1       3.930   1.811  17.584  0.00  0.00    +0.000 F 
ATOM     10  F   UNL     1       4.465   1.581  19.676  0.00  0.00    +0.000 F 
ENDBRANCH   6   7
BRANCH   3  11
ATOM     11  N   UNL     1       1.371   6.737  21.070  0.00  0.00    +0.000 N 
ATOM     12  H   UNL     1       0.355   6.764  21.035  0.00  0.00    +0.000 HD
BRANCH  11  13
ATOM     13  C   UNL     1       2.000   8.047  21.037  0.00  0.00    +0.000 C 
BRANCH  13  14
ATOM     14  C   UNL     1       0.967   9.156  21.091  0.00  0.00    +0.000 A 
ATOM     15  C   UNL     1       0.376   9.471  22.335  0.00  0.00    +0.000 A 
ATOM     16  C   UNL     1      -0.507  10.530  22.394  0.00  0.00    +0.000 A 
ATOM     17  C   UNL     1      -0.784  11.308  21.299  0.00  0.00    +0.000 A 
ATOM     18  C   UNL     1      -0.245  11.029  20.074  0.00  0.00    +0.000 A 
ATOM     19  C   UNL     1       0.594   9.910  19.953  0.00  0.00    +0.000 A 
ATOM     20 BR   UNL     1       1.140   9.419  18.200  0.00  0.00    +0.000 Br
ATOM     21  O   UNL     1      -1.661  12.307  21.578  0.00  0.00    +0.000 OA
ATOM     22  C   UNL     1      -2.117  11.874  22.874  0.00  0.00    +0.000 C 
ATOM     23  O   UNL     1      -1.208  10.937  23.493  0.00  0.00    +0.000 OA
ENDBRANCH  13  14
ENDBRANCH  11  13
ENDBRANCH   3  11
BRANCH   1  24
ATOM     24  O   UNL     1       5.123   4.609  18.949  0.00  0.00    +0.000 OA
BRANCH  24  29
ATOM     25  C   UNL     1       5.612   4.333  14.407  0.00  0.00    +0.000 C 
ATOM     26  N   UNL     1       5.980   5.112  15.581  0.00  0.00    +0.000 NA
ATOM     27  C   UNL     1       7.135   4.581  16.294  0.00  0.00    +0.000 C 
ATOM     28  C   UNL     1       7.065   5.303  17.636  0.00  0.00    +0.000 C 
ATOM     29  C   UNL     1       5.566   5.512  17.917  0.00  0.00    +0.000 C 
ATOM     30  C   UNL     1       4.903   5.135  16.577  0.00  0.00    +0.000 C 
ENDBRANCH  24  29
ENDBRANCH   1  24
TORSDOF 6
ENDMDL
