MODEL 1
REMARK VINA RESULT:      -6.2      0.000      0.000
REMARK  Name = 
REMARK  7 active torsions:
REMARK  status: ('A' for Active; 'I' for Inactive)
REMARK    1  A    between atoms: C_1  and  C_2
REMARK    2  A    between atoms: C_2  and  O_3
REMARK    3  A    between atoms: O_3  and  C_4
REMARK    4  A    between atoms: C_4  and  C_6
REMARK    5  A    between atoms: C_6  and  C_7
REMARK    6  A    between atoms: C_23  and  C_25
REMARK    7  A    between atoms: C_28  and  C_29
REMARK                            x       y       z     vdW  Elec       q    Type
REMARK                         _______ _______ _______ _____ _____    ______ ____
ROOT
ATOM      1  C   UNL     1      -4.325  12.382  19.597  0.00  0.00    +0.000 C 
ATOM      2  C   UNL     1      -3.670  11.560  18.495  0.00  0.00    +0.000 A 
ATOM      3  C   UNL     1      -4.332  10.750  17.566  0.00  0.00    +0.000 A 
ATOM      4  C   UNL     1      -3.424  10.371  16.556  0.00  0.00    +0.000 A 
ATOM      5  C   UNL     1      -2.197  10.879  16.915  0.00  0.00    +0.000 A 
ATOM      6  N   UNL     1      -2.347  11.554  18.101  0.00  0.00    +0.000 N 
ATOM      7  S   UNL     1      -1.018  12.228  18.916  0.00  0.00    +0.000 S 
ATOM      8  O   UNL     1       0.135  11.468  18.466  0.00  0.00    +0.000 OA
ATOM      9  O   UNL     1      -1.089  13.662  18.763  0.00  0.00    +0.000 OA
ATOM     10  C   UNL     1      -1.301  11.826  20.604  0.00  0.00    +0.000 A 
ATOM     11  C   UNL     1      -0.275  11.197  21.326  0.00  0.00    +0.000 A 
ATOM     12  C   UNL     1      -0.417  10.997  22.696  0.00  0.00    +0.000 A 
ATOM     13  C   UNL     1      -1.598  11.375  23.330  0.00  0.00    +0.000 A 
ATOM     14  C   UNL     1      -2.637  11.967  22.599  0.00  0.00    +0.000 A 
ATOM     15  C   UNL     1      -2.477  12.246  21.233  0.00  0.00    +0.000 A 
ATOM     16  N   UNL     1      -3.399  13.092  20.541  0.00  0.00    +0.000 N 
ATOM     17  C   UNL     1      -3.702  14.410  21.010  0.00  0.00    +0.000 C 
ATOM     18  O   UNL     1      -4.561  15.128  20.484  0.00  0.00    +0.000 OA
ENDROOT
BRANCH  17  19
ATOM     19  C   UNL     1      -3.081  14.993  22.237  0.00  0.00    +0.000 A 
ATOM     20  C   UNL     1      -1.744  15.379  22.340  0.00  0.00    +0.000 A 
ATOM     21  C   UNL     1      -1.169  15.559  23.603  0.00  0.00    +0.000 A 
ATOM     22  C   UNL     1      -1.948  15.464  24.763  0.00  0.00    +0.000 A 
ATOM     23  C   UNL     1      -1.323  15.529  26.124  0.00  0.00    +0.000 C 
ATOM     24  C   UNL     1      -3.329  15.299  24.637  0.00  0.00    +0.000 A 
ATOM     25  C   UNL     1      -3.890  15.052  23.383  0.00  0.00    +0.000 A 
ENDBRANCH  17  19
BRANCH   1  26
ATOM     26  C   UNL     1      -5.508  13.178  18.982  0.00  0.00    +0.000 C 
BRANCH  26  27
ATOM     27  C   UNL     1      -6.829  12.792  19.603  0.00  0.00    +0.000 C 
ATOM     28  O   UNL     1      -7.915  13.277  19.320  0.00  0.00    +0.000 OA
BRANCH  27  29
ATOM     29  O   UNL     1      -6.644  11.798  20.519  0.00  0.00    +0.000 OA
BRANCH  29  31
ATOM     30  C   UNL     1      -7.078   9.587  19.587  0.00  0.00    +0.000 C 
ATOM     31  C   UNL     1      -7.602  10.736  20.425  0.00  0.00    +0.000 C 
ENDBRANCH  29  31
ENDBRANCH  27  29
ENDBRANCH  26  27
ENDBRANCH   1  26
TORSDOF 5
ENDMDL
MODEL 2
REMARK VINA RESULT:      -6.1      0.715      1.130
REMARK  Name = 
REMARK  7 active torsions:
REMARK  status: ('A' for Active; 'I' for Inactive)
REMARK    1  A    between atoms: C_1  and  C_2
REMARK    2  A    between atoms: C_2  and  O_3
REMARK    3  A    between atoms: O_3  and  C_4
REMARK    4  A    between atoms: C_4  and  C_6
REMARK    5  A    between atoms: C_6  and  C_7
REMARK    6  A    between atoms: C_23  and  C_25
REMARK    7  A    between atoms: C_28  and  C_29
REMARK                            x       y       z     vdW  Elec       q    Type
REMARK                         _______ _______ _______ _____ _____    ______ ____
ROOT
ATOM      1  C   UNL     1      -4.167  12.475  20.131  0.00  0.00    +0.000 C 
ATOM      2  C   UNL     1      -3.630  11.880  18.836  0.00  0.00    +0.000 A 
ATOM      3  C   UNL     1      -4.389  11.274  17.830  0.00  0.00    +0.000 A 
ATOM      4  C   UNL     1      -3.581  11.094  16.688  0.00  0.00    +0.000 A 
ATOM      5  C   UNL     1      -2.315  11.513  17.028  0.00  0.00    +0.000 A 
ATOM      6  N   UNL     1      -2.346  11.943  18.331  0.00  0.00    +0.000 N 
ATOM      7  S   UNL     1      -0.936  12.435  19.140  0.00  0.00    +0.000 S 
ATOM      8  O   UNL     1       0.155  11.769  18.448  0.00  0.00    +0.000 OA
ATOM      9  O   UNL     1      -0.985  13.871  19.277  0.00  0.00    +0.000 OA
ATOM     10  C   UNL     1      -1.082  11.710  20.735  0.00  0.00    +0.000 A 
ATOM     11  C   UNL     1      -0.013  10.945  21.226  0.00  0.00    +0.000 A 
ATOM     12  C   UNL     1      -0.041  10.480  22.538  0.00  0.00    +0.000 A 
ATOM     13  C   UNL     1      -1.153  10.735  23.336  0.00  0.00    +0.000 A 
ATOM     14  C   UNL     1      -2.236  11.466  22.832  0.00  0.00    +0.000 A 
ATOM     15  C   UNL     1      -2.188  12.007  21.537  0.00  0.00    +0.000 A 
ATOM     16  N   UNL     1      -3.146  12.978  21.108  0.00  0.00    +0.000 N 
ATOM     17  C   UNL     1      -3.375  14.181  21.851  0.00  0.00    +0.000 C 
ATOM     18  O   UNL     1      -4.258  14.994  21.555  0.00  0.00    +0.000 OA
ENDROOT
BRANCH  17  19
ATOM     19  C   UNL     1      -2.636  14.508  23.108  0.00  0.00    +0.000 A 
ATOM     20  C   UNL     1      -3.165  14.379  24.393  0.00  0.00    +0.000 A 
ATOM     21  C   UNL     1      -2.557  15.044  25.463  0.00  0.00    +0.000 A 
ATOM     22  C   UNL     1      -1.360  15.747  25.280  0.00  0.00    +0.000 A 
ATOM     23  C   UNL     1      -0.766  16.566  26.386  0.00  0.00    +0.000 C 
ATOM     24  C   UNL     1      -0.722  15.683  24.040  0.00  0.00    +0.000 A 
ATOM     25  C   UNL     1      -1.362  15.079  22.957  0.00  0.00    +0.000 A 
ENDBRANCH  17  19
BRANCH   1  26
ATOM     26  C   UNL     1      -5.378  13.383  19.792  0.00  0.00    +0.000 C 
BRANCH  26  27
ATOM     27  C   UNL     1      -6.674  12.816  20.321  0.00  0.00    +0.000 C 
ATOM     28  O   UNL     1      -7.777  13.332  20.202  0.00  0.00    +0.000 OA
BRANCH  27  29
ATOM     29  O   UNL     1      -6.444  11.622  20.939  0.00  0.00    +0.000 OA
BRANCH  29  31
ATOM     30  C   UNL     1      -7.073   9.714  19.557  0.00  0.00    +0.000 C 
ATOM     31  C   UNL     1      -7.457  10.638  20.695  0.00  0.00    +0.000 C 
ENDBRANCH  29  31
ENDBRANCH  27  29
ENDBRANCH  26  27
ENDBRANCH   1  26
TORSDOF 5
ENDMDL
MODEL 3
REMARK VINA RESULT:      -6.0      1.123      1.623
REMARK  Name = 
REMARK  7 active torsions:
REMARK  status: ('A' for Active; 'I' for Inactive)
REMARK    1  A    between atoms: C_1  and  C_2
REMARK    2  A    between atoms: C_2  and  O_3
REMARK    3  A    between atoms: O_3  and  C_4
REMARK    4  A    between atoms: C_4  and  C_6
REMARK    5  A    between atoms: C_6  and  C_7
REMARK    6  A    between atoms: C_23  and  C_25
REMARK    7  A    between atoms: C_28  and  C_29
REMARK                            x       y       z     vdW  Elec       q    Type
REMARK                         _______ _______ _______ _____ _____    ______ ____
ROOT
ATOM      1  C   UNL     1      -4.137  12.413  20.191  0.00  0.00    +0.000 C 
ATOM      2  C   UNL     1      -3.618  11.834  18.881  0.00  0.00    +0.000 A 
ATOM      3  C   UNL     1      -4.388  11.218  17.889  0.00  0.00    +0.000 A 
ATOM      4  C   UNL     1      -3.602  11.059  16.730  0.00  0.00    +0.000 A 
ATOM      5  C   UNL     1      -2.337  11.499  17.044  0.00  0.00    +0.000 A 
ATOM      6  N   UNL     1      -2.347  11.922  18.350  0.00  0.00    +0.000 N 
ATOM      7  S   UNL     1      -0.929  12.435  19.130  0.00  0.00    +0.000 S 
ATOM      8  O   UNL     1       0.158  11.793  18.412  0.00  0.00    +0.000 OA
ATOM      9  O   UNL     1      -1.000  13.870  19.275  0.00  0.00    +0.000 OA
ATOM     10  C   UNL     1      -1.027  11.701  20.725  0.00  0.00    +0.000 A 
ATOM     11  C   UNL     1       0.066  10.953  21.189  0.00  0.00    +0.000 A 
ATOM     12  C   UNL     1       0.075  10.482  22.498  0.00  0.00    +0.000 A 
ATOM     13  C   UNL     1      -1.025  10.713  23.322  0.00  0.00    +0.000 A 
ATOM     14  C   UNL     1      -2.131  11.428  22.844  0.00  0.00    +0.000 A 
ATOM     15  C   UNL     1      -2.121  11.975  21.551  0.00  0.00    +0.000 A 
ATOM     16  N   UNL     1      -3.105  12.931  21.148  0.00  0.00    +0.000 N 
ATOM     17  C   UNL     1      -3.339  14.126  21.902  0.00  0.00    +0.000 C 
ATOM     18  O   UNL     1      -4.243  14.924  21.628  0.00  0.00    +0.000 OA
ENDROOT
BRANCH  17  19
ATOM     19  C   UNL     1      -2.579  14.460  23.144  0.00  0.00    +0.000 A 
ATOM     20  C   UNL     1      -3.085  14.335  24.438  0.00  0.00    +0.000 A 
ATOM     21  C   UNL     1      -2.460  15.006  25.495  0.00  0.00    +0.000 A 
ATOM     22  C   UNL     1      -1.269  15.712  25.288  0.00  0.00    +0.000 A 
ATOM     23  C   UNL     1      -0.657  16.538  26.380  0.00  0.00    +0.000 C 
ATOM     24  C   UNL     1      -0.652  15.645  24.036  0.00  0.00    +0.000 A 
ATOM     25  C   UNL     1      -1.310  15.034  22.968  0.00  0.00    +0.000 A 
ENDBRANCH  17  19
BRANCH   1  26
ATOM     26  C   UNL     1      -5.372  13.302  19.882  0.00  0.00    +0.000 C 
BRANCH  26  27
ATOM     27  C   UNL     1      -6.659  12.658  20.342  0.00  0.00    +0.000 C 
ATOM     28  O   UNL     1      -7.695  12.600  19.695  0.00  0.00    +0.000 OA
BRANCH  27  29
ATOM     29  O   UNL     1      -6.496  12.125  21.587  0.00  0.00    +0.000 OA
BRANCH  29  31
ATOM     30  C   UNL     1      -6.337  12.722  23.946  0.00  0.00    +0.000 C 
ATOM     31  C   UNL     1      -7.075  12.911  22.636  0.00  0.00    +0.000 C 
ENDBRANCH  29  31
ENDBRANCH  27  29
ENDBRANCH  26  27
ENDBRANCH   1  26
TORSDOF 5
ENDMDL
MODEL 4
REMARK VINA RESULT:      -6.0      0.820      1.070
REMARK  Name = 
REMARK  7 active torsions:
REMARK  status: ('A' for Active; 'I' for Inactive)
REMARK    1  A    between atoms: C_1  and  C_2
REMARK    2  A    between atoms: C_2  and  O_3
REMARK    3  A    between atoms: O_3  and  C_4
REMARK    4  A    between atoms: C_4  and  C_6
REMARK    5  A    between atoms: C_6  and  C_7
REMARK    6  A    between atoms: C_23  and  C_25
REMARK    7  A    between atoms: C_28  and  C_29
REMARK                            x       y       z     vdW  Elec       q    Type
REMARK                         _______ _______ _______ _____ _____    ______ ____
ROOT
ATOM      1  C   UNL     1      -4.442  12.510  19.624  0.00  0.00    +0.000 C 
ATOM      2  C   UNL     1      -3.816  11.687  18.506  0.00  0.00    +0.000 A 
ATOM      3  C   UNL     1      -4.505  10.897  17.579  0.00  0.00    +0.000 A 
ATOM      4  C   UNL     1      -3.618  10.513  16.553  0.00  0.00    +0.000 A 
ATOM      5  C   UNL     1      -2.377  10.996  16.899  0.00  0.00    +0.000 A 
ATOM      6  N   UNL     1      -2.500  11.662  18.093  0.00  0.00    +0.000 N 
ATOM      7  S   UNL     1      -1.148  12.307  18.895  0.00  0.00    +0.000 S 
ATOM      8  O   UNL     1      -0.015  11.531  18.421  0.00  0.00    +0.000 OA
ATOM      9  O   UNL     1      -1.197  13.743  18.756  0.00  0.00    +0.000 OA
ATOM     10  C   UNL     1      -1.414  11.893  20.583  0.00  0.00    +0.000 A 
ATOM     11  C   UNL     1      -0.389  11.241  21.285  0.00  0.00    +0.000 A 
ATOM     12  C   UNL     1      -0.515  11.030  22.655  0.00  0.00    +0.000 A 
ATOM     13  C   UNL     1      -1.681  11.422  23.309  0.00  0.00    +0.000 A 
ATOM     14  C   UNL     1      -2.719  12.038  22.598  0.00  0.00    +0.000 A 
ATOM     15  C   UNL     1      -2.574  12.327  21.232  0.00  0.00    +0.000 A 
ATOM     16  N   UNL     1      -3.491  13.194  20.561  0.00  0.00    +0.000 N 
ATOM     17  C   UNL     1      -3.765  14.514  21.047  0.00  0.00    +0.000 C 
ATOM     18  O   UNL     1      -4.619  15.251  20.540  0.00  0.00    +0.000 OA
ENDROOT
BRANCH  17  19
ATOM     19  C   UNL     1      -3.117  15.075  22.270  0.00  0.00    +0.000 A 
ATOM     20  C   UNL     1      -1.768  15.416  22.365  0.00  0.00    +0.000 A 
ATOM     21  C   UNL     1      -1.179  15.575  23.624  0.00  0.00    +0.000 A 
ATOM     22  C   UNL     1      -1.953  15.505  24.788  0.00  0.00    +0.000 A 
ATOM     23  C   UNL     1      -1.317  15.548  26.146  0.00  0.00    +0.000 C 
ATOM     24  C   UNL     1      -3.340  15.386  24.672  0.00  0.00    +0.000 A 
ATOM     25  C   UNL     1      -3.917  15.158  23.422  0.00  0.00    +0.000 A 
ENDBRANCH  17  19
BRANCH   1  26
ATOM     26  C   UNL     1      -5.619  13.330  19.034  0.00  0.00    +0.000 C 
BRANCH  26  27
ATOM     27  C   UNL     1      -6.956  12.846  19.544  0.00  0.00    +0.000 C 
ATOM     28  O   UNL     1      -7.491  11.789  19.242  0.00  0.00    +0.000 OA
BRANCH  27  29
ATOM     29  O   UNL     1      -7.480  13.755  20.416  0.00  0.00    +0.000 OA
BRANCH  29  31
ATOM     30  C   UNL     1      -6.752  12.941  22.596  0.00  0.00    +0.000 C 
ATOM     31  C   UNL     1      -7.916  13.184  21.656  0.00  0.00    +0.000 C 
ENDBRANCH  29  31
ENDBRANCH  27  29
ENDBRANCH  26  27
ENDBRANCH   1  26
TORSDOF 5
ENDMDL
MODEL 5
REMARK VINA RESULT:      -5.9      3.042      6.050
REMARK  Name = 
REMARK  7 active torsions:
REMARK  status: ('A' for Active; 'I' for Inactive)
REMARK    1  A    between atoms: C_1  and  C_2
REMARK    2  A    between atoms: C_2  and  O_3
REMARK    3  A    between atoms: O_3  and  C_4
REMARK    4  A    between atoms: C_4  and  C_6
REMARK    5  A    between atoms: C_6  and  C_7
REMARK    6  A    between atoms: C_23  and  C_25
REMARK    7  A    between atoms: C_28  and  C_29
REMARK                            x       y       z     vdW  Elec       q    Type
REMARK                         _______ _______ _______ _____ _____    ______ ____
ROOT
ATOM      1  C   UNL     1      -2.676  12.424  19.549  0.00  0.00    +0.000 C 
ATOM      2  C   UNL     1      -3.095  13.358  20.678  0.00  0.00    +0.000 A 
ATOM      3  C   UNL     1      -4.227  14.180  20.691  0.00  0.00    +0.000 A 
ATOM      4  C   UNL     1      -4.416  14.682  21.994  0.00  0.00    +0.000 A 
ATOM      5  C   UNL     1      -3.357  14.234  22.750  0.00  0.00    +0.000 A 
ATOM      6  N   UNL     1      -2.549  13.476  21.940  0.00  0.00    +0.000 N 
ATOM      7  S   UNL     1      -1.075  12.840  22.496  0.00  0.00    +0.000 S 
ATOM      8  O   UNL     1      -0.676  13.703  23.595  0.00  0.00    +0.000 OA
ATOM      9  O   UNL     1      -1.248  11.417  22.672  0.00  0.00    +0.000 OA
ATOM     10  C   UNL     1       0.040  13.114  21.166  0.00  0.00    +0.000 A 
ATOM     11  C   UNL     1       1.257  13.761  21.431  0.00  0.00    +0.000 A 
ATOM     12  C   UNL     1       2.218  13.863  20.429  0.00  0.00    +0.000 A 
ATOM     13  C   UNL     1       1.943  13.368  19.156  0.00  0.00    +0.000 A 
ATOM     14  C   UNL     1       0.713  12.756  18.884  0.00  0.00    +0.000 A 
ATOM     15  C   UNL     1      -0.235  12.577  19.904  0.00  0.00    +0.000 A 
ATOM     16  N   UNL     1      -1.363  11.719  19.719  0.00  0.00    +0.000 N 
ATOM     17  C   UNL     1      -1.207  10.356  19.309  0.00  0.00    +0.000 C 
ATOM     18  O   UNL     1      -2.166   9.618  19.055  0.00  0.00    +0.000 OA
ENDROOT
BRANCH  17  19
ATOM     19  C   UNL     1       0.129   9.737  19.054  0.00  0.00    +0.000 A 
ATOM     20  C   UNL     1       0.735   9.654  17.800  0.00  0.00    +0.000 A 
ATOM     21  C   UNL     1       1.784   8.750  17.595  0.00  0.00    +0.000 A 
ATOM     22  C   UNL     1       2.305   8.008  18.661  0.00  0.00    +0.000 A 
ATOM     23  C   UNL     1       3.341   6.947  18.433  0.00  0.00    +0.000 C 
ATOM     24  C   UNL     1       1.841   8.263  19.953  0.00  0.00    +0.000 A 
ATOM     25  C   UNL     1       0.750   9.112  20.147  0.00  0.00    +0.000 A 
ENDBRANCH  17  19
BRANCH   1  26
ATOM     26  C   UNL     1      -3.912  11.594  19.111  0.00  0.00    +0.000 C 
BRANCH  26  27
ATOM     27  C   UNL     1      -4.372  11.958  17.719  0.00  0.00    +0.000 C 
ATOM     28  O   UNL     1      -5.441  12.480  17.438  0.00  0.00    +0.000 OA
BRANCH  27  29
ATOM     29  O   UNL     1      -3.405  11.641  16.810  0.00  0.00    +0.000 OA
BRANCH  29  31
ATOM     30  C   UNL     1      -2.693   9.822  15.351  0.00  0.00    +0.000 C 
ATOM     31  C   UNL     1      -3.834  10.708  15.809  0.00  0.00    +0.000 C 
ENDBRANCH  29  31
ENDBRANCH  27  29
ENDBRANCH  26  27
ENDBRANCH   1  26
TORSDOF 5
ENDMDL
MODEL 6
REMARK VINA RESULT:      -5.8      2.739      5.209
REMARK  Name = 
REMARK  7 active torsions:
REMARK  status: ('A' for Active; 'I' for Inactive)
REMARK    1  A    between atoms: C_1  and  C_2
REMARK    2  A    between atoms: C_2  and  O_3
REMARK    3  A    between atoms: O_3  and  C_4
REMARK    4  A    between atoms: C_4  and  C_6
REMARK    5  A    between atoms: C_6  and  C_7
REMARK    6  A    between atoms: C_23  and  C_25
REMARK    7  A    between atoms: C_28  and  C_29
REMARK                            x       y       z     vdW  Elec       q    Type
REMARK                         _______ _______ _______ _____ _____    ______ ____
ROOT
ATOM      1  C   UNL     1      -3.671  12.577  19.600  0.00  0.00    +0.000 C 
ATOM      2  C   UNL     1      -4.760  12.723  20.655  0.00  0.00    +0.000 A 
ATOM      3  C   UNL     1      -6.139  12.640  20.433  0.00  0.00    +0.000 A 
ATOM      4  C   UNL     1      -6.800  12.559  21.675  0.00  0.00    +0.000 A 
ATOM      5  C   UNL     1      -5.835  12.676  22.648  0.00  0.00    +0.000 A 
ATOM      6  N   UNL     1      -4.620  12.817  22.025  0.00  0.00    +0.000 N 
ATOM      7  S   UNL     1      -3.195  13.098  22.905  0.00  0.00    +0.000 S 
ATOM      8  O   UNL     1      -3.628  13.700  24.154  0.00  0.00    +0.000 OA
ATOM      9  O   UNL     1      -2.413  11.884  22.878  0.00  0.00    +0.000 OA
ATOM     10  C   UNL     1      -2.354  14.332  21.977  0.00  0.00    +0.000 A 
ATOM     11  C   UNL     1      -1.919  15.491  22.639  0.00  0.00    +0.000 A 
ATOM     12  C   UNL     1      -1.129  16.417  21.964  0.00  0.00    +0.000 A 
ATOM     13  C   UNL     1      -0.819  16.210  20.622  0.00  0.00    +0.000 A 
ATOM     14  C   UNL     1      -1.286  15.072  19.953  0.00  0.00    +0.000 A 
ATOM     15  C   UNL     1      -2.019  14.092  20.641  0.00  0.00    +0.000 A 
ATOM     16  N   UNL     1      -2.262  12.809  20.059  0.00  0.00    +0.000 N 
ATOM     17  C   UNL     1      -1.189  11.994  19.572  0.00  0.00    +0.000 C 
ATOM     18  O   UNL     1      -1.376  10.922  18.984  0.00  0.00    +0.000 OA
ENDROOT
BRANCH  17  19
ATOM     19  C   UNL     1       0.242  12.416  19.641  0.00  0.00    +0.000 A 
ATOM     20  C   UNL     1       0.985  12.502  20.818  0.00  0.00    +0.000 A 
ATOM     21  C   UNL     1       2.171  13.246  20.838  0.00  0.00    +0.000 A 
ATOM     22  C   UNL     1       2.678  13.812  19.662  0.00  0.00    +0.000 A 
ATOM     23  C   UNL     1       3.875  14.714  19.690  0.00  0.00    +0.000 C 
ATOM     24  C   UNL     1       2.044  13.532  18.449  0.00  0.00    +0.000 A 
ATOM     25  C   UNL     1       0.827  12.850  18.440  0.00  0.00    +0.000 A 
ENDBRANCH  17  19
BRANCH   1  26
ATOM     26  C   UNL     1      -3.974  11.314  18.749  0.00  0.00    +0.000 C 
BRANCH  26  27
ATOM     27  C   UNL     1      -4.365  11.669  17.334  0.00  0.00    +0.000 C 
ATOM     28  O   UNL     1      -5.459  12.088  16.984  0.00  0.00    +0.000 OA
BRANCH  27  29
ATOM     29  O   UNL     1      -3.308  11.475  16.494  0.00  0.00    +0.000 OA
BRANCH  29  31
ATOM     30  C   UNL     1      -3.076  10.056  14.526  0.00  0.00    +0.000 C 
ATOM     31  C   UNL     1      -3.169  10.125  16.037  0.00  0.00    +0.000 C 
ENDBRANCH  29  31
ENDBRANCH  27  29
ENDBRANCH  26  27
ENDBRANCH   1  26
TORSDOF 5
ENDMDL
MODEL 7
REMARK VINA RESULT:      -5.7      2.016      5.070
REMARK  Name = 
REMARK  7 active torsions:
REMARK  status: ('A' for Active; 'I' for Inactive)
REMARK    1  A    between atoms: C_1  and  C_2
REMARK    2  A    between atoms: C_2  and  O_3
REMARK    3  A    between atoms: O_3  and  C_4
REMARK    4  A    between atoms: C_4  and  C_6
REMARK    5  A    between atoms: C_6  and  C_7
REMARK    6  A    between atoms: C_23  and  C_25
REMARK    7  A    between atoms: C_28  and  C_29
REMARK                            x       y       z     vdW  Elec       q    Type
REMARK                         _______ _______ _______ _____ _____    ______ ____
ROOT
ATOM      1  C   UNL     1      -1.947  12.488  20.259  0.00  0.00    +0.000 C 
ATOM      2  C   UNL     1      -2.980  12.004  19.249  0.00  0.00    +0.000 A 
ATOM      3  C   UNL     1      -2.716  11.276  18.084  0.00  0.00    +0.000 A 
ATOM      4  C   UNL     1      -3.931  10.790  17.561  0.00  0.00    +0.000 A 
ATOM      5  C   UNL     1      -4.935  11.290  18.357  0.00  0.00    +0.000 A 
ATOM      6  N   UNL     1      -4.356  12.051  19.341  0.00  0.00    +0.000 N 
ATOM      7  S   UNL     1      -5.292  12.925  20.457  0.00  0.00    +0.000 S 
ATOM      8  O   UNL     1      -6.569  13.143  19.799  0.00  0.00    +0.000 OA
ATOM      9  O   UNL     1      -5.200  12.253  21.732  0.00  0.00    +0.000 OA
ATOM     10  C   UNL     1      -4.477  14.478  20.577  0.00  0.00    +0.000 A 
ATOM     11  C   UNL     1      -5.231  15.648  20.398  0.00  0.00    +0.000 A 
ATOM     12  C   UNL     1      -4.645  16.890  20.627  0.00  0.00    +0.000 A 
ATOM     13  C   UNL     1      -3.301  16.963  20.983  0.00  0.00    +0.000 A 
ATOM     14  C   UNL     1      -2.540  15.795  21.124  0.00  0.00    +0.000 A 
ATOM     15  C   UNL     1      -3.137  14.533  20.972  0.00  0.00    +0.000 A 
ATOM     16  N   UNL     1      -2.459  13.343  21.380  0.00  0.00    +0.000 N 
ATOM     17  C   UNL     1      -1.944  13.194  22.708  0.00  0.00    +0.000 C 
ATOM     18  O   UNL     1      -1.276  12.215  23.062  0.00  0.00    +0.000 OA
ENDROOT
BRANCH  17  19
ATOM     19  C   UNL     1      -2.081  14.254  23.751  0.00  0.00    +0.000 A 
ATOM     20  C   UNL     1      -3.278  14.591  24.385  0.00  0.00    +0.000 A 
ATOM     21  C   UNL     1      -3.387  15.814  25.055  0.00  0.00    +0.000 A 
ATOM     22  C   UNL     1      -2.277  16.656  25.193  0.00  0.00    +0.000 A 
ATOM     23  C   UNL     1      -2.410  18.022  25.797  0.00  0.00    +0.000 C 
ATOM     24  C   UNL     1      -1.031  16.208  24.749  0.00  0.00    +0.000 A 
ATOM     25  C   UNL     1      -0.936  15.021  24.021  0.00  0.00    +0.000 A 
ENDBRANCH  17  19
BRANCH   1  26
ATOM     26  C   UNL     1      -1.001  11.306  20.602  0.00  0.00    +0.000 C 
BRANCH  26  27
ATOM     27  C   UNL     1       0.395  11.530  20.070  0.00  0.00    +0.000 C 
ATOM     28  O   UNL     1       0.753  11.349  18.915  0.00  0.00    +0.000 OA
BRANCH  27  29
ATOM     29  O   UNL     1       1.207  11.989  21.066  0.00  0.00    +0.000 OA
BRANCH  29  31
ATOM     30  C   UNL     1       1.163  14.426  20.998  0.00  0.00    +0.000 C 
ATOM     31  C   UNL     1       1.950  13.162  20.715  0.00  0.00    +0.000 C 
ENDBRANCH  29  31
ENDBRANCH  27  29
ENDBRANCH  26  27
ENDBRANCH   1  26
TORSDOF 5
ENDMDL
MODEL 8
REMARK VINA RESULT:      -5.7      2.143      5.036
REMARK  Name = 
REMARK  7 active torsions:
REMARK  status: ('A' for Active; 'I' for Inactive)
REMARK    1  A    between atoms: C_1  and  C_2
REMARK    2  A    between atoms: C_2  and  O_3
REMARK    3  A    between atoms: O_3  and  C_4
REMARK    4  A    between atoms: C_4  and  C_6
REMARK    5  A    between atoms: C_6  and  C_7
REMARK    6  A    between atoms: C_23  and  C_25
REMARK    7  A    between atoms: C_28  and  C_29
REMARK                            x       y       z     vdW  Elec       q    Type
REMARK                         _______ _______ _______ _____ _____    ______ ____
ROOT
ATOM      1  C   UNL     1      -2.550  12.628  20.384  0.00  0.00    +0.000 C 
ATOM      2  C   UNL     1      -3.221  11.949  19.198  0.00  0.00    +0.000 A 
ATOM      3  C   UNL     1      -2.573  11.253  18.171  0.00  0.00    +0.000 A 
ATOM      4  C   UNL     1      -3.533  10.549  17.415  0.00  0.00    +0.000 A 
ATOM      5  C   UNL     1      -4.765  10.882  17.929  0.00  0.00    +0.000 A 
ATOM      6  N   UNL     1      -4.568  11.755  18.970  0.00  0.00    +0.000 N 
ATOM      7  S   UNL     1      -5.872  12.476  19.786  0.00  0.00    +0.000 S 
ATOM      8  O   UNL     1      -6.976  12.452  18.842  0.00  0.00    +0.000 OA
ATOM      9  O   UNL     1      -5.973  11.859  21.088  0.00  0.00    +0.000 OA
ATOM     10  C   UNL     1      -5.377  14.150  19.991  0.00  0.00    +0.000 A 
ATOM     11  C   UNL     1      -6.251  15.166  19.572  0.00  0.00    +0.000 A 
ATOM     12  C   UNL     1      -5.949  16.495  19.851  0.00  0.00    +0.000 A 
ATOM     13  C   UNL     1      -4.757  16.811  20.499  0.00  0.00    +0.000 A 
ATOM     14  C   UNL     1      -3.869  15.798  20.883  0.00  0.00    +0.000 A 
ATOM     15  C   UNL     1      -4.196  14.448  20.677  0.00  0.00    +0.000 A 
ATOM     16  N   UNL     1      -3.446  13.405  21.303  0.00  0.00    +0.000 N 
ATOM     17  C   UNL     1      -3.240  13.378  22.720  0.00  0.00    +0.000 C 
ATOM     18  O   UNL     1      -2.523  12.540  23.278  0.00  0.00    +0.000 OA
ENDROOT
BRANCH  17  19
ATOM     19  C   UNL     1      -3.793  14.421  23.636  0.00  0.00    +0.000 A 
ATOM     20  C   UNL     1      -5.149  14.724  23.763  0.00  0.00    +0.000 A 
ATOM     21  C   UNL     1      -5.537  15.935  24.347  0.00  0.00    +0.000 A 
ATOM     22  C   UNL     1      -4.586  16.797  24.904  0.00  0.00    +0.000 A 
ATOM     23  C   UNL     1      -4.973  18.152  25.417  0.00  0.00    +0.000 C 
ATOM     24  C   UNL     1      -3.254  16.381  24.970  0.00  0.00    +0.000 A 
ATOM     25  C   UNL     1      -2.858  15.207  24.329  0.00  0.00    +0.000 A 
ENDBRANCH  17  19
BRANCH   1  26
ATOM     26  C   UNL     1      -1.528  11.639  21.006  0.00  0.00    +0.000 C 
BRANCH  26  27
ATOM     27  C   UNL     1      -0.110  12.146  20.892  0.00  0.00    +0.000 C 
ATOM     28  O   UNL     1       0.487  12.786  21.746  0.00  0.00    +0.000 OA
BRANCH  27  29
ATOM     29  O   UNL     1       0.427  11.766  19.696  0.00  0.00    +0.000 OA
BRANCH  29  31
ATOM     30  C   UNL     1       1.428  10.028  18.311  0.00  0.00    +0.000 C 
ATOM     31  C   UNL     1       0.758  10.374  19.625  0.00  0.00    +0.000 C 
ENDBRANCH  29  31
ENDBRANCH  27  29
ENDBRANCH  26  27
ENDBRANCH   1  26
TORSDOF 5
ENDMDL
MODEL 9
REMARK VINA RESULT:      -5.7      2.085      4.946
REMARK  Name = 
REMARK  7 active torsions:
REMARK  status: ('A' for Active; 'I' for Inactive)
REMARK    1  A    between atoms: C_1  and  C_2
REMARK    2  A    between atoms: C_2  and  O_3
REMARK    3  A    between atoms: O_3  and  C_4
REMARK    4  A    between atoms: C_4  and  C_6
REMARK    5  A    between atoms: C_6  and  C_7
REMARK    6  A    between atoms: C_23  and  C_25
REMARK    7  A    between atoms: C_28  and  C_29
REMARK                            x       y       z     vdW  Elec       q    Type
REMARK                         _______ _______ _______ _____ _____    ______ ____
ROOT
ATOM      1  C   UNL     1      -2.054  12.403  20.075  0.00  0.00    +0.000 C 
ATOM      2  C   UNL     1      -3.140  11.957  19.105  0.00  0.00    +0.000 A 
ATOM      3  C   UNL     1      -2.941  11.259  17.909  0.00  0.00    +0.000 A 
ATOM      4  C   UNL     1      -4.186  10.799  17.432  0.00  0.00    +0.000 A 
ATOM      5  C   UNL     1      -5.145  11.286  18.290  0.00  0.00    +0.000 A 
ATOM      6  N   UNL     1      -4.510  12.015  19.265  0.00  0.00    +0.000 N 
ATOM      7  S   UNL     1      -5.381  12.867  20.449  0.00  0.00    +0.000 S 
ATOM      8  O   UNL     1      -6.686  13.115  19.860  0.00  0.00    +0.000 OA
ATOM      9  O   UNL     1      -5.234  12.160  21.699  0.00  0.00    +0.000 OA
ATOM     10  C   UNL     1      -4.544  14.409  20.570  0.00  0.00    +0.000 A 
ATOM     11  C   UNL     1      -5.293  15.590  20.460  0.00  0.00    +0.000 A 
ATOM     12  C   UNL     1      -4.683  16.819  20.693  0.00  0.00    +0.000 A 
ATOM     13  C   UNL     1      -3.322  16.869  20.985  0.00  0.00    +0.000 A 
ATOM     14  C   UNL     1      -2.568  15.691  21.057  0.00  0.00    +0.000 A 
ATOM     15  C   UNL     1      -3.185  14.440  20.900  0.00  0.00    +0.000 A 
ATOM     16  N   UNL     1      -2.501  13.232  21.242  0.00  0.00    +0.000 N 
ATOM     17  C   UNL     1      -1.924  13.042  22.539  0.00  0.00    +0.000 C 
ATOM     18  O   UNL     1      -1.251  12.048  22.834  0.00  0.00    +0.000 OA
ENDROOT
BRANCH  17  19
ATOM     19  C   UNL     1      -1.998  14.075  23.616  0.00  0.00    +0.000 A 
ATOM     20  C   UNL     1      -3.139  14.350  24.370  0.00  0.00    +0.000 A 
ATOM     21  C   UNL     1      -3.229  15.555  25.077  0.00  0.00    +0.000 A 
ATOM     22  C   UNL     1      -2.144  16.437  25.127  0.00  0.00    +0.000 A 
ATOM     23  C   UNL     1      -2.268  17.784  25.773  0.00  0.00    +0.000 C 
ATOM     24  C   UNL     1      -0.930  16.048  24.554  0.00  0.00    +0.000 A 
ATOM     25  C   UNL     1      -0.862  14.881  23.792  0.00  0.00    +0.000 A 
ENDBRANCH  17  19
BRANCH   1  26
ATOM     26  C   UNL     1      -1.105  11.204  20.339  0.00  0.00    +0.000 C 
BRANCH  26  27
ATOM     27  C   UNL     1       0.205  11.348  19.601  0.00  0.00    +0.000 C 
ATOM     28  O   UNL     1       0.694  12.402  19.222  0.00  0.00    +0.000 OA
BRANCH  27  29
ATOM     29  O   UNL     1       0.785  10.124  19.435  0.00  0.00    +0.000 OA
BRANCH  29  31
ATOM     30  C   UNL     1       2.051   8.769  17.853  0.00  0.00    +0.000 C 
ATOM     31  C   UNL     1       0.881   9.708  18.067  0.00  0.00    +0.000 C 
ENDBRANCH  29  31
ENDBRANCH  27  29
ENDBRANCH  26  27
ENDBRANCH   1  26
TORSDOF 5
ENDMDL
