MODEL 1
REMARK VINA RESULT:      -8.4      0.000      0.000
REMARK  Name = 
REMARK  5 active torsions:
REMARK  status: ('A' for Active; 'I' for Inactive)
REMARK    1  A    between atoms: C_2  and  C_12
REMARK    2  A    between atoms: N_3  and  C_4
REMARK    3  A    between atoms: C_4  and  C_5
REMARK    4  A    between atoms: C_5  and  N_6
REMARK    5  A    between atoms: N_16  and  C_17
REMARK                            x       y       z     vdW  Elec       q    Type
REMARK                         _______ _______ _______ _____ _____    ______ ____
ROOT
ATOM      1  C   UNL     1       7.378   5.559  17.813  0.00  0.00    +0.000 C 
ATOM      2  C   UNL     1       7.438   4.716  16.548  0.00  0.00    +0.000 C 
ATOM      3  C   UNL     1       6.115   3.998  16.491  0.00  0.00    +0.000 C 
ATOM      4  O   UNL     1       5.795   3.298  15.542  0.00  0.00    +0.000 OA
ATOM      5  N   UNL     1       5.391   4.300  17.641  0.00  0.00    +0.000 N 
ATOM      6  C   UNL     1       6.155   5.083  18.577  0.00  0.00    +0.000 C 
ENDROOT
BRANCH   5   7
ATOM      7  C   UNL     1       4.093   3.825  17.941  0.00  0.00    +0.000 A 
ATOM      8  C   UNL     1       3.909   2.599  18.586  0.00  0.00    +0.000 A 
ATOM      9  C   UNL     1       2.629   2.120  18.872  0.00  0.00    +0.000 A 
ATOM     10  C   UNL     1       1.524   2.868  18.487  0.00  0.00    +0.000 A 
ATOM     11  F   UNL     1       0.296   2.395  18.744  0.00  0.00    +0.000 F 
ATOM     12  C   UNL     1       1.670   4.081  17.842  0.00  0.00    +0.000 A 
ATOM     13  C   UNL     1       2.949   4.575  17.583  0.00  0.00    +0.000 A 
ENDBRANCH   5   7
BRANCH   1  15
ATOM     14  O   UNL     1       6.349   7.487  16.829  0.00  0.00    +0.000 OA
ATOM     15  C   UNL     1       7.251   7.041  17.525  0.00  0.00    +0.000 C 
ATOM     16  N   UNL     1       8.164   7.838  18.177  0.00  0.00    +0.000 N 
ATOM     17  H   UNL     1       8.983   7.409  18.589  0.00  0.00    +0.000 HD
BRANCH  16  18
ATOM     18  C   UNL     1       8.163   9.294  18.059  0.00  0.00    +0.000 C 
BRANCH  18  19
ATOM     19  C   UNL     1       9.204  10.034  18.940  0.00  0.00    +0.000 C 
BRANCH  19  20
ATOM     20  N   UNL     1       9.423  11.453  18.617  0.00  0.00    +0.000 NA
ATOM     21  C   UNL     1      10.745  11.719  18.019  0.00  0.00    +0.000 C 
ATOM     22  C   UNL     1      11.885  11.439  19.003  0.00  0.00    +0.000 C 
ATOM     23  O   UNL     1      11.790  12.321  20.128  0.00  0.00    +0.000 OA
ATOM     24  C   UNL     1      10.528  12.176  20.800  0.00  0.00    +0.000 C 
ATOM     25  C   UNL     1       9.321  12.291  19.841  0.00  0.00    +0.000 C 
ENDBRANCH  19  20
ENDBRANCH  18  19
ENDBRANCH  16  18
ENDBRANCH   1  15
TORSDOF 5
ENDMDL
MODEL 2
REMARK VINA RESULT:      -8.2      1.482      1.996
REMARK  Name = 
REMARK  5 active torsions:
REMARK  status: ('A' for Active; 'I' for Inactive)
REMARK    1  A    between atoms: C_2  and  C_12
REMARK    2  A    between atoms: N_3  and  C_4
REMARK    3  A    between atoms: C_4  and  C_5
REMARK    4  A    between atoms: C_5  and  N_6
REMARK    5  A    between atoms: N_16  and  C_17
REMARK                            x       y       z     vdW  Elec       q    Type
REMARK                         _______ _______ _______ _____ _____    ______ ____
ROOT
ATOM      1  C   UNL     1       7.672   5.768  18.164  0.00  0.00    +0.000 C 
ATOM      2  C   UNL     1       7.308   4.870  16.992  0.00  0.00    +0.000 C 
ATOM      3  C   UNL     1       5.947   4.317  17.327  0.00  0.00    +0.000 C 
ATOM      4  O   UNL     1       5.317   3.622  16.546  0.00  0.00    +0.000 OA
ATOM      5  N   UNL     1       5.587   4.755  18.599  0.00  0.00    +0.000 N 
ATOM      6  C   UNL     1       6.649   5.478  19.248  0.00  0.00    +0.000 C 
ENDROOT
BRANCH   5   7
ATOM      7  C   UNL     1       4.369   4.456  19.254  0.00  0.00    +0.000 A 
ATOM      8  C   UNL     1       3.440   5.462  19.531  0.00  0.00    +0.000 A 
ATOM      9  C   UNL     1       2.242   5.174  20.189  0.00  0.00    +0.000 A 
ATOM     10  C   UNL     1       1.987   3.870  20.592  0.00  0.00    +0.000 A 
ATOM     11  F   UNL     1       0.845   3.601  21.243  0.00  0.00    +0.000 F 
ATOM     12  C   UNL     1       2.887   2.853  20.339  0.00  0.00    +0.000 A 
ATOM     13  C   UNL     1       4.071   3.133  19.655  0.00  0.00    +0.000 A 
ENDBRANCH   5   7
BRANCH   1  15
ATOM     14  O   UNL     1       6.846   7.684  16.986  0.00  0.00    +0.000 OA
ATOM     15  C   UNL     1       7.634   7.240  17.810  0.00  0.00    +0.000 C 
ATOM     16  N   UNL     1       8.481   8.036  18.548  0.00  0.00    +0.000 N 
ATOM     17  H   UNL     1       9.224   7.600  19.079  0.00  0.00    +0.000 HD
BRANCH  16  18
ATOM     18  C   UNL     1       8.545   9.485  18.380  0.00  0.00    +0.000 C 
BRANCH  18  19
ATOM     19  C   UNL     1       9.261  10.257  19.519  0.00  0.00    +0.000 C 
BRANCH  19  20
ATOM     20  N   UNL     1      10.472  10.997  19.128  0.00  0.00    +0.000 NA
ATOM     21  C   UNL     1      10.940  11.939  20.161  0.00  0.00    +0.000 C 
ATOM     22  C   UNL     1       9.938  13.074  20.397  0.00  0.00    +0.000 C 
ATOM     23  O   UNL     1       9.792  13.855  19.204  0.00  0.00    +0.000 OA
ATOM     24  C   UNL     1       9.353  13.047  18.101  0.00  0.00    +0.000 C 
ATOM     25  C   UNL     1      10.227  11.789  17.894  0.00  0.00    +0.000 C 
ENDBRANCH  19  20
ENDBRANCH  18  19
ENDBRANCH  16  18
ENDBRANCH   1  15
TORSDOF 5
ENDMDL
MODEL 3
REMARK VINA RESULT:      -8.2      0.808      1.592
REMARK  Name = 
REMARK  5 active torsions:
REMARK  status: ('A' for Active; 'I' for Inactive)
REMARK    1  A    between atoms: C_2  and  C_12
REMARK    2  A    between atoms: N_3  and  C_4
REMARK    3  A    between atoms: C_4  and  C_5
REMARK    4  A    between atoms: C_5  and  N_6
REMARK    5  A    between atoms: N_16  and  C_17
REMARK                            x       y       z     vdW  Elec       q    Type
REMARK                         _______ _______ _______ _____ _____    ______ ____
ROOT
ATOM      1  C   UNL     1       7.413   5.614  17.855  0.00  0.00    +0.000 C 
ATOM      2  C   UNL     1       7.483   4.812  16.565  0.00  0.00    +0.000 C 
ATOM      3  C   UNL     1       6.150   4.117  16.459  0.00  0.00    +0.000 C 
ATOM      4  O   UNL     1       5.837   3.454  15.483  0.00  0.00    +0.000 OA
ATOM      5  N   UNL     1       5.410   4.393  17.606  0.00  0.00    +0.000 N 
ATOM      6  C   UNL     1       6.168   5.133  18.580  0.00  0.00    +0.000 C 
ENDROOT
BRANCH   5   7
ATOM      7  C   UNL     1       4.099   3.930  17.866  0.00  0.00    +0.000 A 
ATOM      8  C   UNL     1       2.991   4.752  17.643  0.00  0.00    +0.000 A 
ATOM      9  C   UNL     1       1.696   4.304  17.911  0.00  0.00    +0.000 A 
ATOM     10  C   UNL     1       1.514   3.028  18.428  0.00  0.00    +0.000 A 
ATOM     11  F   UNL     1       0.270   2.609  18.703  0.00  0.00    +0.000 F 
ATOM     12  C   UNL     1       2.588   2.191  18.666  0.00  0.00    +0.000 A 
ATOM     13  C   UNL     1       3.880   2.627  18.370  0.00  0.00    +0.000 A 
ENDBRANCH   5   7
BRANCH   1  15
ATOM     14  O   UNL     1       6.393   7.596  16.975  0.00  0.00    +0.000 OA
ATOM     15  C   UNL     1       7.314   7.106  17.614  0.00  0.00    +0.000 C 
ATOM     16  N   UNL     1       8.281   7.860  18.240  0.00  0.00    +0.000 N 
ATOM     17  H   UNL     1       9.106   7.397  18.600  0.00  0.00    +0.000 HD
BRANCH  16  18
ATOM     18  C   UNL     1       8.316   9.317  18.162  0.00  0.00    +0.000 C 
BRANCH  18  19
ATOM     19  C   UNL     1       9.046  10.030  19.331  0.00  0.00    +0.000 C 
BRANCH  19  20
ATOM     20  N   UNL     1      10.171  10.898  18.948  0.00  0.00    +0.000 NA
ATOM     21  C   UNL     1      10.659  11.743  20.055  0.00  0.00    +0.000 C 
ATOM     22  C   UNL     1       9.609  12.764  20.502  0.00  0.00    +0.000 C 
ATOM     23  O   UNL     1       9.316  13.669  19.430  0.00  0.00    +0.000 OA
ATOM     24  C   UNL     1       8.843  12.968  18.269  0.00  0.00    +0.000 C 
ATOM     25  C   UNL     1       9.776  11.812  17.844  0.00  0.00    +0.000 C 
ENDBRANCH  19  20
ENDBRANCH  18  19
ENDBRANCH  16  18
ENDBRANCH   1  15
TORSDOF 5
ENDMDL
MODEL 4
REMARK VINA RESULT:      -7.9      1.393      1.794
REMARK  Name = 
REMARK  5 active torsions:
REMARK  status: ('A' for Active; 'I' for Inactive)
REMARK    1  A    between atoms: C_2  and  C_12
REMARK    2  A    between atoms: N_3  and  C_4
REMARK    3  A    between atoms: C_4  and  C_5
REMARK    4  A    between atoms: C_5  and  N_6
REMARK    5  A    between atoms: N_16  and  C_17
REMARK                            x       y       z     vdW  Elec       q    Type
REMARK                         _______ _______ _______ _____ _____    ______ ____
ROOT
ATOM      1  C   UNL     1       7.580   5.883  17.888  0.00  0.00    +0.000 C 
ATOM      2  C   UNL     1       7.189   4.966  16.739  0.00  0.00    +0.000 C 
ATOM      3  C   UNL     1       5.859   4.381  17.136  0.00  0.00    +0.000 C 
ATOM      4  O   UNL     1       5.214   3.664  16.388  0.00  0.00    +0.000 OA
ATOM      5  N   UNL     1       5.543   4.820  18.419  0.00  0.00    +0.000 N 
ATOM      6  C   UNL     1       6.611   5.576  19.017  0.00  0.00    +0.000 C 
ENDROOT
BRANCH   5   7
ATOM      7  C   UNL     1       4.362   4.496  19.128  0.00  0.00    +0.000 A 
ATOM      8  C   UNL     1       3.451   5.489  19.495  0.00  0.00    +0.000 A 
ATOM      9  C   UNL     1       2.291   5.176  20.206  0.00  0.00    +0.000 A 
ATOM     10  C   UNL     1       2.055   3.857  20.571  0.00  0.00    +0.000 A 
ATOM     11  F   UNL     1       0.951   3.562  21.272  0.00  0.00    +0.000 F 
ATOM     12  C   UNL     1       2.939   2.851  20.229  0.00  0.00    +0.000 A 
ATOM     13  C   UNL     1       4.083   3.158  19.492  0.00  0.00    +0.000 A 
ENDBRANCH   5   7
BRANCH   1  15
ATOM     14  O   UNL     1       6.699   7.759  16.685  0.00  0.00    +0.000 OA
ATOM     15  C   UNL     1       7.488   7.351  17.526  0.00  0.00    +0.000 C 
ATOM     16  N   UNL     1       8.288   8.184  18.275  0.00  0.00    +0.000 N 
ATOM     17  H   UNL     1       9.038   7.781  18.822  0.00  0.00    +0.000 HD
BRANCH  16  18
ATOM     18  C   UNL     1       8.296   9.633  18.100  0.00  0.00    +0.000 C 
BRANCH  18  19
ATOM     19  C   UNL     1       9.571  10.359  18.606  0.00  0.00    +0.000 C 
BRANCH  19  20
ATOM     20  N   UNL     1       9.345  11.612  19.343  0.00  0.00    +0.000 NA
ATOM     21  C   UNL     1       9.132  12.777  18.462  0.00  0.00    +0.000 C 
ATOM     22  C   UNL     1      10.383  13.112  17.644  0.00  0.00    +0.000 C 
ATOM     23  O   UNL     1      11.456  13.483  18.519  0.00  0.00    +0.000 OA
ATOM     24  C   UNL     1      11.758  12.433  19.451  0.00  0.00    +0.000 C 
ATOM     25  C   UNL     1      10.510  11.928  20.211  0.00  0.00    +0.000 C 
ENDBRANCH  19  20
ENDBRANCH  18  19
ENDBRANCH  16  18
ENDBRANCH   1  15
TORSDOF 5
ENDMDL
MODEL 5
REMARK VINA RESULT:      -7.7      1.331      1.629
REMARK  Name = 
REMARK  5 active torsions:
REMARK  status: ('A' for Active; 'I' for Inactive)
REMARK    1  A    between atoms: C_2  and  C_12
REMARK    2  A    between atoms: N_3  and  C_4
REMARK    3  A    between atoms: C_4  and  C_5
REMARK    4  A    between atoms: C_5  and  N_6
REMARK    5  A    between atoms: N_16  and  C_17
REMARK                            x       y       z     vdW  Elec       q    Type
REMARK                         _______ _______ _______ _____ _____    ______ ____
ROOT
ATOM      1  C   UNL     1       7.617   5.843  17.988  0.00  0.00    +0.000 C 
ATOM      2  C   UNL     1       7.204   4.946  16.831  0.00  0.00    +0.000 C 
ATOM      3  C   UNL     1       5.884   4.350  17.245  0.00  0.00    +0.000 C 
ATOM      4  O   UNL     1       5.225   3.644  16.497  0.00  0.00    +0.000 OA
ATOM      5  N   UNL     1       5.593   4.765  18.541  0.00  0.00    +0.000 N 
ATOM      6  C   UNL     1       6.673   5.512  19.131  0.00  0.00    +0.000 C 
ENDROOT
BRANCH   5   7
ATOM      7  C   UNL     1       4.429   4.424  19.269  0.00  0.00    +0.000 A 
ATOM      8  C   UNL     1       3.487   5.398  19.612  0.00  0.00    +0.000 A 
ATOM      9  C   UNL     1       2.343   5.069  20.341  0.00  0.00    +0.000 A 
ATOM     10  C   UNL     1       2.154   3.754  20.749  0.00  0.00    +0.000 A 
ATOM     11  F   UNL     1       1.064   3.446  21.467  0.00  0.00    +0.000 F 
ATOM     12  C   UNL     1       3.068   2.768  20.432  0.00  0.00    +0.000 A 
ATOM     13  C   UNL     1       4.197   3.090  19.677  0.00  0.00    +0.000 A 
ENDBRANCH   5   7
BRANCH   1  15
ATOM     14  O   UNL     1       6.731   7.733  16.811  0.00  0.00    +0.000 OA
ATOM     15  C   UNL     1       7.513   7.316  17.655  0.00  0.00    +0.000 C 
ATOM     16  N   UNL     1       8.293   8.142  18.431  0.00  0.00    +0.000 N 
ATOM     17  H   UNL     1       9.040   7.736  18.981  0.00  0.00    +0.000 HD
BRANCH  16  18
ATOM     18  C   UNL     1       8.287   9.595  18.287  0.00  0.00    +0.000 C 
BRANCH  18  19
ATOM     19  C   UNL     1       9.667  10.241  17.993  0.00  0.00    +0.000 C 
BRANCH  19  20
ATOM     20  N   UNL     1       9.741  11.701  18.168  0.00  0.00    +0.000 NA
ATOM     21  C   UNL     1      11.103  12.241  18.001  0.00  0.00    +0.000 C 
ATOM     22  C   UNL     1      12.054  11.743  19.094  0.00  0.00    +0.000 C 
ATOM     23  O   UNL     1      11.613  12.206  20.376  0.00  0.00    +0.000 OA
ATOM     24  C   UNL     1      10.277  11.762  20.661  0.00  0.00    +0.000 C 
ATOM     25  C   UNL     1       9.281  12.091  19.527  0.00  0.00    +0.000 C 
ENDBRANCH  19  20
ENDBRANCH  18  19
ENDBRANCH  16  18
ENDBRANCH   1  15
TORSDOF 5
ENDMDL
MODEL 6
REMARK VINA RESULT:      -7.7      1.099      1.114
REMARK  Name = 
REMARK  5 active torsions:
REMARK  status: ('A' for Active; 'I' for Inactive)
REMARK    1  A    between atoms: C_2  and  C_12
REMARK    2  A    between atoms: N_3  and  C_4
REMARK    3  A    between atoms: C_4  and  C_5
REMARK    4  A    between atoms: C_5  and  N_6
REMARK    5  A    between atoms: N_16  and  C_17
REMARK                            x       y       z     vdW  Elec       q    Type
REMARK                         _______ _______ _______ _____ _____    ______ ____
ROOT
ATOM      1  C   UNL     1       7.479   5.806  18.038  0.00  0.00    +0.000 C 
ATOM      2  C   UNL     1       7.291   4.814  16.901  0.00  0.00    +0.000 C 
ATOM      3  C   UNL     1       5.913   4.240  17.102  0.00  0.00    +0.000 C 
ATOM      4  O   UNL     1       5.406   3.469  16.302  0.00  0.00    +0.000 OA
ATOM      5  N   UNL     1       5.382   4.756  18.281  0.00  0.00    +0.000 N 
ATOM      6  C   UNL     1       6.332   5.560  19.003  0.00  0.00    +0.000 C 
ENDROOT
BRANCH   5   7
ATOM      7  C   UNL     1       4.097   4.463  18.798  0.00  0.00    +0.000 A 
ATOM      8  C   UNL     1       3.397   3.329  18.377  0.00  0.00    +0.000 A 
ATOM      9  C   UNL     1       2.125   3.043  18.874  0.00  0.00    +0.000 A 
ATOM     10  C   UNL     1       1.540   3.915  19.784  0.00  0.00    +0.000 A 
ATOM     11  F   UNL     1       0.309   3.648  20.243  0.00  0.00    +0.000 F 
ATOM     12  C   UNL     1       2.202   5.049  20.216  0.00  0.00    +0.000 A 
ATOM     13  C   UNL     1       3.487   5.319  19.743  0.00  0.00    +0.000 A 
ENDBRANCH   5   7
BRANCH   1  15
ATOM     14  O   UNL     1       6.687   7.624  16.694  0.00  0.00    +0.000 OA
ATOM     15  C   UNL     1       7.450   7.247  17.572  0.00  0.00    +0.000 C 
ATOM     16  N   UNL     1       8.274   8.099  18.271  0.00  0.00    +0.000 N 
ATOM     17  H   UNL     1       9.001   7.707  18.856  0.00  0.00    +0.000 HD
BRANCH  16  18
ATOM     18  C   UNL     1       8.341   9.531  17.995  0.00  0.00    +0.000 C 
BRANCH  18  19
ATOM     19  C   UNL     1       9.337  10.333  18.874  0.00  0.00    +0.000 C 
BRANCH  19  20
ATOM     20  N   UNL     1       9.834  11.591  18.294  0.00  0.00    +0.000 NA
ATOM     21  C   UNL     1      11.301  11.728  18.365  0.00  0.00    +0.000 C 
ATOM     22  C   UNL     1      11.797  11.829  19.811  0.00  0.00    +0.000 C 
ATOM     23  O   UNL     1      11.271  13.011  20.429  0.00  0.00    +0.000 OA
ATOM     24  C   UNL     1       9.835  13.015  20.410  0.00  0.00    +0.000 C 
ATOM     25  C   UNL     1       9.251  12.762  19.002  0.00  0.00    +0.000 C 
ENDBRANCH  19  20
ENDBRANCH  18  19
ENDBRANCH  16  18
ENDBRANCH   1  15
TORSDOF 5
ENDMDL
MODEL 7
REMARK VINA RESULT:      -7.7      1.525      1.835
REMARK  Name = 
REMARK  5 active torsions:
REMARK  status: ('A' for Active; 'I' for Inactive)
REMARK    1  A    between atoms: C_2  and  C_12
REMARK    2  A    between atoms: N_3  and  C_4
REMARK    3  A    between atoms: C_4  and  C_5
REMARK    4  A    between atoms: C_5  and  N_6
REMARK    5  A    between atoms: N_16  and  C_17
REMARK                            x       y       z     vdW  Elec       q    Type
REMARK                         _______ _______ _______ _____ _____    ______ ____
ROOT
ATOM      1  C   UNL     1       7.674   5.854  18.096  0.00  0.00    +0.000 C 
ATOM      2  C   UNL     1       7.278   4.976  16.920  0.00  0.00    +0.000 C 
ATOM      3  C   UNL     1       5.944   4.387  17.298  0.00  0.00    +0.000 C 
ATOM      4  O   UNL     1       5.295   3.697  16.527  0.00  0.00    +0.000 OA
ATOM      5  N   UNL     1       5.629   4.788  18.593  0.00  0.00    +0.000 N 
ATOM      6  C   UNL     1       6.703   5.518  19.215  0.00  0.00    +0.000 C 
ENDROOT
BRANCH   5   7
ATOM      7  C   UNL     1       4.446   4.450  19.292  0.00  0.00    +0.000 A 
ATOM      8  C   UNL     1       4.175   3.124  19.640  0.00  0.00    +0.000 A 
ATOM      9  C   UNL     1       3.003   2.783  20.317  0.00  0.00    +0.000 A 
ATOM     10  C   UNL     1       2.085   3.778  20.628  0.00  0.00    +0.000 A 
ATOM     11  F   UNL     1       0.951   3.444  21.260  0.00  0.00    +0.000 F 
ATOM     12  C   UNL     1       2.320   5.098  20.293  0.00  0.00    +0.000 A 
ATOM     13  C   UNL     1       3.505   5.445  19.643  0.00  0.00    +0.000 A 
ENDBRANCH   5   7
BRANCH   1  15
ATOM     14  O   UNL     1       6.811   7.771  16.945  0.00  0.00    +0.000 OA
ATOM     15  C   UNL     1       7.591   7.333  17.780  0.00  0.00    +0.000 C 
ATOM     16  N   UNL     1       8.388   8.138  18.561  0.00  0.00    +0.000 N 
ATOM     17  H   UNL     1       9.131   7.716  19.102  0.00  0.00    +0.000 HD
BRANCH  16  18
ATOM     18  C   UNL     1       8.403   9.593  18.432  0.00  0.00    +0.000 C 
BRANCH  18  19
ATOM     19  C   UNL     1       9.804  10.229  18.231  0.00  0.00    +0.000 C 
BRANCH  19  20
ATOM     20  N   UNL     1      10.190  11.252  19.217  0.00  0.00    +0.000 NA
ATOM     21  C   UNL     1       9.328  12.449  19.184  0.00  0.00    +0.000 C 
ATOM     22  C   UNL     1       9.463  13.215  17.864  0.00  0.00    +0.000 C 
ATOM     23  O   UNL     1      10.803  13.702  17.714  0.00  0.00    +0.000 OA
ATOM     24  C   UNL     1      11.756  12.629  17.747  0.00  0.00    +0.000 C 
ATOM     25  C   UNL     1      11.584  11.711  18.979  0.00  0.00    +0.000 C 
ENDBRANCH  19  20
ENDBRANCH  18  19
ENDBRANCH  16  18
ENDBRANCH   1  15
TORSDOF 5
ENDMDL
MODEL 8
REMARK VINA RESULT:      -7.5      1.876      2.201
REMARK  Name = 
REMARK  5 active torsions:
REMARK  status: ('A' for Active; 'I' for Inactive)
REMARK    1  A    between atoms: C_2  and  C_12
REMARK    2  A    between atoms: N_3  and  C_4
REMARK    3  A    between atoms: C_4  and  C_5
REMARK    4  A    between atoms: C_5  and  N_6
REMARK    5  A    between atoms: N_16  and  C_17
REMARK                            x       y       z     vdW  Elec       q    Type
REMARK                         _______ _______ _______ _____ _____    ______ ____
ROOT
ATOM      1  C   UNL     1       6.818   6.120  17.320  0.00  0.00    +0.000 C 
ATOM      2  C   UNL     1       5.646   6.925  16.780  0.00  0.00    +0.000 C 
ATOM      3  C   UNL     1       4.438   6.403  17.514  0.00  0.00    +0.000 C 
ATOM      4  O   UNL     1       3.331   6.901  17.383  0.00  0.00    +0.000 OA
ATOM      5  N   UNL     1       4.831   5.340  18.323  0.00  0.00    +0.000 N 
ATOM      6  C   UNL     1       6.211   4.984  18.124  0.00  0.00    +0.000 C 
ENDROOT
BRANCH   5   7
ATOM      7  C   UNL     1       3.979   4.602  19.178  0.00  0.00    +0.000 A 
ATOM      8  C   UNL     1       3.972   3.205  19.150  0.00  0.00    +0.000 A 
ATOM      9  C   UNL     1       3.124   2.472  19.982  0.00  0.00    +0.000 A 
ATOM     10  C   UNL     1       2.259   3.148  20.833  0.00  0.00    +0.000 A 
ATOM     11  F   UNL     1       1.430   2.441  21.615  0.00  0.00    +0.000 F 
ATOM     12  C   UNL     1       2.235   4.529  20.881  0.00  0.00    +0.000 A 
ATOM     13  C   UNL     1       3.104   5.262  20.072  0.00  0.00    +0.000 A 
ENDBRANCH   5   7
BRANCH   1  15
ATOM     14  O   UNL     1       8.355   6.432  19.131  0.00  0.00    +0.000 OA
ATOM     15  C   UNL     1       7.733   6.938  18.208  0.00  0.00    +0.000 C 
ATOM     16  N   UNL     1       7.873   8.256  17.838  0.00  0.00    +0.000 N 
ATOM     17  H   UNL     1       7.208   8.656  17.188  0.00  0.00    +0.000 HD
BRANCH  16  18
ATOM     18  C   UNL     1       8.751   9.183  18.546  0.00  0.00    +0.000 C 
BRANCH  18  19
ATOM     19  C   UNL     1       8.884  10.592  17.910  0.00  0.00    +0.000 C 
BRANCH  19  20
ATOM     20  N   UNL     1       9.175  11.691  18.845  0.00  0.00    +0.000 NA
ATOM     21  C   UNL     1       9.366  12.992  18.176  0.00  0.00    +0.000 C 
ATOM     22  C   UNL     1      10.611  12.999  17.283  0.00  0.00    +0.000 C 
ATOM     23  O   UNL     1      11.786  12.801  18.079  0.00  0.00    +0.000 OA
ATOM     24  C   UNL     1      11.722  11.564  18.807  0.00  0.00    +0.000 C 
ATOM     25  C   UNL     1      10.415  11.411  19.616  0.00  0.00    +0.000 C 
ENDBRANCH  19  20
ENDBRANCH  18  19
ENDBRANCH  16  18
ENDBRANCH   1  15
TORSDOF 5
ENDMDL
MODEL 9
REMARK VINA RESULT:      -7.3      1.932      2.521
REMARK  Name = 
REMARK  5 active torsions:
REMARK  status: ('A' for Active; 'I' for Inactive)
REMARK    1  A    between atoms: C_2  and  C_12
REMARK    2  A    between atoms: N_3  and  C_4
REMARK    3  A    between atoms: C_4  and  C_5
REMARK    4  A    between atoms: C_5  and  N_6
REMARK    5  A    between atoms: N_16  and  C_17
REMARK                            x       y       z     vdW  Elec       q    Type
REMARK                         _______ _______ _______ _____ _____    ______ ____
ROOT
ATOM      1  C   UNL     1       6.522   6.079  17.259  0.00  0.00    +0.000 C 
ATOM      2  C   UNL     1       5.401   6.998  16.800  0.00  0.00    +0.000 C 
ATOM      3  C   UNL     1       4.181   6.539  17.554  0.00  0.00    +0.000 C 
ATOM      4  O   UNL     1       3.114   7.129  17.486  0.00  0.00    +0.000 OA
ATOM      5  N   UNL     1       4.514   5.412  18.300  0.00  0.00    +0.000 N 
ATOM      6  C   UNL     1       5.853   4.957  18.034  0.00  0.00    +0.000 C 
ENDROOT
BRANCH   5   7
ATOM      7  C   UNL     1       3.634   4.704  19.152  0.00  0.00    +0.000 A 
ATOM      8  C   UNL     1       2.939   5.361  20.170  0.00  0.00    +0.000 A 
ATOM      9  C   UNL     1       2.080   4.664  21.022  0.00  0.00    +0.000 A 
ATOM     10  C   UNL     1       1.935   3.292  20.864  0.00  0.00    +0.000 A 
ATOM     11  F   UNL     1       1.125   2.623  21.697  0.00  0.00    +0.000 F 
ATOM     12  C   UNL     1       2.612   2.610  19.871  0.00  0.00    +0.000 A 
ATOM     13  C   UNL     1       3.448   3.310  19.000  0.00  0.00    +0.000 A 
ENDBRANCH   5   7
BRANCH   1  15
ATOM     14  O   UNL     1       8.145   6.181  19.019  0.00  0.00    +0.000 OA
ATOM     15  C   UNL     1       7.529   6.779  18.147  0.00  0.00    +0.000 C 
ATOM     16  N   UNL     1       7.756   8.100  17.837  0.00  0.00    +0.000 N 
ATOM     17  H   UNL     1       7.100   8.582  17.235  0.00  0.00    +0.000 HD
BRANCH  16  18
ATOM     18  C   UNL     1       8.728   8.921  18.553  0.00  0.00    +0.000 C 
BRANCH  18  19
ATOM     19  C   UNL     1       8.789  10.411  18.122  0.00  0.00    +0.000 C 
BRANCH  19  20
ATOM     20  N   UNL     1      10.044  11.115  18.429  0.00  0.00    +0.000 NA
ATOM     21  C   UNL     1      10.200  11.432  19.861  0.00  0.00    +0.000 C 
ATOM     22  C   UNL     1       9.148  12.435  20.344  0.00  0.00    +0.000 C 
ATOM     23  O   UNL     1       9.307  13.682  19.656  0.00  0.00    +0.000 OA
ATOM     24  C   UNL     1       9.195  13.513  18.234  0.00  0.00    +0.000 C 
ATOM     25  C   UNL     1      10.119  12.402  17.687  0.00  0.00    +0.000 C 
ENDBRANCH  19  20
ENDBRANCH  18  19
ENDBRANCH  16  18
ENDBRANCH   1  15
TORSDOF 5
ENDMDL
