MODEL 1
REMARK VINA RESULT:      -7.5      0.000      0.000
REMARK  Name = 
REMARK  2 active torsions:
REMARK  status: ('A' for Active; 'I' for Inactive)
REMARK    1  A    between atoms: C_1  and  C_2
REMARK    2  A    between atoms: C_2  and  C_3
REMARK                            x       y       z     vdW  Elec       q    Type
REMARK                         _______ _______ _______ _____ _____    ______ ____
ROOT
ATOM      1  C   UNL     1       1.918   2.781  21.944  0.00  0.00    +0.000 C 
ATOM      2  C   UNL     1       2.360   3.048  20.499  0.00  0.00    +0.000 C 
ATOM      3  C   UNL     1       1.318   2.431  19.551  0.00  0.00    +0.000 C 
ATOM      4  C   UNL     1       3.767   2.470  20.294  0.00  0.00    +0.000 C 
ATOM      5  C   UNL     1       4.300   2.814  18.910  0.00  0.00    +0.000 C 
ATOM      6  C   UNL     1       3.971   4.232  18.553  0.00  0.00    +0.000 C 
ATOM      7  C   UNL     1       3.095   4.976  19.249  0.00  0.00    +0.000 C 
ATOM      8  O   UNL     1       2.368   4.481  20.320  0.00  0.00    +0.000 OA
ATOM      9  C   UNL     1       2.819   6.388  18.911  0.00  0.00    +0.000 A 
ATOM     10  C   UNL     1       1.926   7.164  19.672  0.00  0.00    +0.000 A 
ATOM     11  C   UNL     1       1.670   8.496  19.335  0.00  0.00    +0.000 A 
ATOM     12 CL   UNL     1       0.572   9.421  20.286  0.00  0.00    +0.000 Cl
ATOM     13  C   UNL     1       2.292   9.085  18.239  0.00  0.00    +0.000 A 
ATOM     14  C   UNL     1       3.181   8.336  17.476  0.00  0.00    +0.000 A 
ATOM     15  C   UNL     1       3.442   6.998  17.812  0.00  0.00    +0.000 A 
ATOM     16  C   UNL     1       4.394   6.230  16.990  0.00  0.00    +0.000 C 
ATOM     17  O   UNL     1       4.946   6.736  16.024  0.00  0.00    +0.000 OA
ATOM     18  C   UNL     1       4.671   4.788  17.371  0.00  0.00    +0.000 C 
ATOM     19  O   UNL     1       5.443   4.110  16.706  0.00  0.00    +0.000 OA
ENDROOT
TORSDOF 0
ENDMDL
MODEL 2
REMARK VINA RESULT:      -7.2      3.800      4.834
REMARK  Name = 
REMARK  2 active torsions:
REMARK  status: ('A' for Active; 'I' for Inactive)
REMARK    1  A    between atoms: C_1  and  C_2
REMARK    2  A    between atoms: C_2  and  C_3
REMARK                            x       y       z     vdW  Elec       q    Type
REMARK                         _______ _______ _______ _____ _____    ______ ____
ROOT
ATOM      1  C   UNL     1       1.275   2.481  18.133  0.00  0.00    +0.000 C 
ATOM      2  C   UNL     1       2.734   2.785  18.503  0.00  0.00    +0.000 C 
ATOM      3  C   UNL     1       3.418   1.467  18.905  0.00  0.00    +0.000 C 
ATOM      4  C   UNL     1       2.754   3.832  19.624  0.00  0.00    +0.000 C 
ATOM      5  C   UNL     1       4.180   4.257  19.945  0.00  0.00    +0.000 C 
ATOM      6  C   UNL     1       4.977   4.434  18.688  0.00  0.00    +0.000 C 
ATOM      7  C   UNL     1       4.551   4.004  17.488  0.00  0.00    +0.000 C 
ATOM      8  O   UNL     1       3.370   3.301  17.314  0.00  0.00    +0.000 OA
ATOM      9  C   UNL     1       5.329   4.229  16.251  0.00  0.00    +0.000 A 
ATOM     10  C   UNL     1       4.853   3.805  14.998  0.00  0.00    +0.000 A 
ATOM     11  C   UNL     1       5.602   4.018  13.838  0.00  0.00    +0.000 A 
ATOM     12 CL   UNL     1       4.993   3.488  12.317  0.00  0.00    +0.000 Cl
ATOM     13  C   UNL     1       6.837   4.656  13.896  0.00  0.00    +0.000 A 
ATOM     14  C   UNL     1       7.324   5.087  15.126  0.00  0.00    +0.000 A 
ATOM     15  C   UNL     1       6.573   4.875  16.293  0.00  0.00    +0.000 A 
ATOM     16  C   UNL     1       7.110   5.349  17.581  0.00  0.00    +0.000 C 
ATOM     17  O   UNL     1       8.194   5.909  17.646  0.00  0.00    +0.000 OA
ATOM     18  C   UNL     1       6.283   5.119  18.832  0.00  0.00    +0.000 C 
ATOM     19  O   UNL     1       6.698   5.482  19.924  0.00  0.00    +0.000 OA
ENDROOT
TORSDOF 0
ENDMDL
MODEL 3
REMARK VINA RESULT:      -7.2      1.334      1.819
REMARK  Name = 
REMARK  2 active torsions:
REMARK  status: ('A' for Active; 'I' for Inactive)
REMARK    1  A    between atoms: C_1  and  C_2
REMARK    2  A    between atoms: C_2  and  C_3
REMARK                            x       y       z     vdW  Elec       q    Type
REMARK                         _______ _______ _______ _____ _____    ______ ____
ROOT
ATOM      1  C   UNL     1       1.877   2.518  21.926  0.00  0.00    +0.000 C 
ATOM      2  C   UNL     1       2.003   3.259  20.588  0.00  0.00    +0.000 C 
ATOM      3  C   UNL     1       0.876   2.777  19.659  0.00  0.00    +0.000 C 
ATOM      4  C   UNL     1       3.401   3.006  20.008  0.00  0.00    +0.000 C 
ATOM      5  C   UNL     1       3.617   3.817  18.738  0.00  0.00    +0.000 C 
ATOM      6  C   UNL     1       3.068   5.202  18.893  0.00  0.00    +0.000 C 
ATOM      7  C   UNL     1       2.262   5.559  19.908  0.00  0.00    +0.000 C 
ATOM      8  O   UNL     1       1.814   4.664  20.865  0.00  0.00    +0.000 OA
ATOM      9  C   UNL     1       1.769   6.943  20.070  0.00  0.00    +0.000 A 
ATOM     10  C   UNL     1       0.955   7.308  21.158  0.00  0.00    +0.000 A 
ATOM     11  C   UNL     1       0.489   8.619  21.295  0.00  0.00    +0.000 A 
ATOM     12 CL   UNL     1      -0.504   9.036  22.638  0.00  0.00    +0.000 Cl
ATOM     13  C   UNL     1       0.820   9.592  20.358  0.00  0.00    +0.000 A 
ATOM     14  C   UNL     1       1.627   9.252  19.277  0.00  0.00    +0.000 A 
ATOM     15  C   UNL     1       2.097   7.936  19.138  0.00  0.00    +0.000 A 
ATOM     16  C   UNL     1       2.956   7.607  17.987  0.00  0.00    +0.000 C 
ATOM     17  O   UNL     1       3.252   8.452  17.156  0.00  0.00    +0.000 OA
ATOM     18  C   UNL     1       3.462   6.183  17.853  0.00  0.00    +0.000 C 
ATOM     19  O   UNL     1       4.165   5.862  16.905  0.00  0.00    +0.000 OA
ENDROOT
TORSDOF 0
ENDMDL
MODEL 4
REMARK VINA RESULT:      -7.2      1.979      2.962
REMARK  Name = 
REMARK  2 active torsions:
REMARK  status: ('A' for Active; 'I' for Inactive)
REMARK    1  A    between atoms: C_1  and  C_2
REMARK    2  A    between atoms: C_2  and  C_3
REMARK                            x       y       z     vdW  Elec       q    Type
REMARK                         _______ _______ _______ _____ _____    ______ ____
ROOT
ATOM      1  C   UNL     1       2.363   3.603  21.728  0.00  0.00    +0.000 C 
ATOM      2  C   UNL     1       2.191   4.443  20.455  0.00  0.00    +0.000 C 
ATOM      3  C   UNL     1       1.011   3.871  19.651  0.00  0.00    +0.000 C 
ATOM      4  C   UNL     1       3.509   4.430  19.669  0.00  0.00    +0.000 C 
ATOM      5  C   UNL     1       3.428   5.348  18.457  0.00  0.00    +0.000 C 
ATOM      6  C   UNL     1       2.733   6.628  18.806  0.00  0.00    +0.000 C 
ATOM      7  C   UNL     1       2.047   6.798  19.950  0.00  0.00    +0.000 C 
ATOM      8  O   UNL     1       1.865   5.785  20.877  0.00  0.00    +0.000 OA
ATOM      9  C   UNL     1       1.408   8.084  20.300  0.00  0.00    +0.000 A 
ATOM     10  C   UNL     1       0.724   8.256  21.517  0.00  0.00    +0.000 A 
ATOM     11  C   UNL     1       0.118   9.476  21.831  0.00  0.00    +0.000 A 
ATOM     12 CL   UNL     1      -0.711   9.657  23.329  0.00  0.00    +0.000 Cl
ATOM     13  C   UNL     1       0.178  10.548  20.946  0.00  0.00    +0.000 A 
ATOM     14  C   UNL     1       0.853  10.399  19.739  0.00  0.00    +0.000 A 
ATOM     15  C   UNL     1       1.463   9.175  19.421  0.00  0.00    +0.000 A 
ATOM     16  C   UNL     1       2.178   9.049  18.139  0.00  0.00    +0.000 C 
ATOM     17  O   UNL     1       2.236   9.983  17.352  0.00  0.00    +0.000 OA
ATOM     18  C   UNL     1       2.839   7.723  17.813  0.00  0.00    +0.000 C 
ATOM     19  O   UNL     1       3.428   7.569  16.752  0.00  0.00    +0.000 OA
ENDROOT
TORSDOF 0
ENDMDL
MODEL 5
REMARK VINA RESULT:      -7.2      1.523      4.092
REMARK  Name = 
REMARK  2 active torsions:
REMARK  status: ('A' for Active; 'I' for Inactive)
REMARK    1  A    between atoms: C_1  and  C_2
REMARK    2  A    between atoms: C_2  and  C_3
REMARK                            x       y       z     vdW  Elec       q    Type
REMARK                         _______ _______ _______ _____ _____    ______ ____
ROOT
ATOM      1  C   UNL     1       5.553   5.842  14.770  0.00  0.00    +0.000 C 
ATOM      2  C   UNL     1       5.416   5.367  16.223  0.00  0.00    +0.000 C 
ATOM      3  C   UNL     1       6.724   5.690  16.964  0.00  0.00    +0.000 C 
ATOM      4  C   UNL     1       5.084   3.869  16.228  0.00  0.00    +0.000 C 
ATOM      5  C   UNL     1       4.821   3.375  17.643  0.00  0.00    +0.000 C 
ATOM      6  C   UNL     1       3.996   4.366  18.406  0.00  0.00    +0.000 C 
ATOM      7  C   UNL     1       3.774   5.619  17.972  0.00  0.00    +0.000 C 
ATOM      8  O   UNL     1       4.340   6.127  16.815  0.00  0.00    +0.000 OA
ATOM      9  C   UNL     1       2.917   6.568  18.714  0.00  0.00    +0.000 A 
ATOM     10  C   UNL     1       2.666   7.863  18.229  0.00  0.00    +0.000 A 
ATOM     11  C   UNL     1       1.860   8.753  18.945  0.00  0.00    +0.000 A 
ATOM     12 CL   UNL     1       1.570  10.332  18.324  0.00  0.00    +0.000 Cl
ATOM     13  C   UNL     1       1.289   8.376  20.156  0.00  0.00    +0.000 A 
ATOM     14  C   UNL     1       1.522   7.097  20.652  0.00  0.00    +0.000 A 
ATOM     15  C   UNL     1       2.330   6.202  19.934  0.00  0.00    +0.000 A 
ATOM     16  C   UNL     1       2.554   4.851  20.480  0.00  0.00    +0.000 C 
ATOM     17  O   UNL     1       2.059   4.509  21.543  0.00  0.00    +0.000 OA
ATOM     18  C   UNL     1       3.423   3.892  19.688  0.00  0.00    +0.000 C 
ATOM     19  O   UNL     1       3.648   2.767  20.112  0.00  0.00    +0.000 OA
ENDROOT
TORSDOF 0
ENDMDL
MODEL 6
REMARK VINA RESULT:      -6.9      2.781      4.089
REMARK  Name = 
REMARK  2 active torsions:
REMARK  status: ('A' for Active; 'I' for Inactive)
REMARK    1  A    between atoms: C_1  and  C_2
REMARK    2  A    between atoms: C_2  and  C_3
REMARK                            x       y       z     vdW  Elec       q    Type
REMARK                         _______ _______ _______ _____ _____    ______ ____
ROOT
ATOM      1  C   UNL     1       1.977   1.176  19.455  0.00  0.00    +0.000 C 
ATOM      2  C   UNL     1       2.336   2.637  19.760  0.00  0.00    +0.000 C 
ATOM      3  C   UNL     1       3.397   2.654  20.873  0.00  0.00    +0.000 C 
ATOM      4  C   UNL     1       1.058   3.394  20.143  0.00  0.00    +0.000 C 
ATOM      5  C   UNL     1       1.343   4.877  20.339  0.00  0.00    +0.000 C 
ATOM      6  C   UNL     1       2.269   5.384  19.276  0.00  0.00    +0.000 C 
ATOM      7  C   UNL     1       2.952   4.569  18.453  0.00  0.00    +0.000 C 
ATOM      8  O   UNL     1       2.912   3.188  18.555  0.00  0.00    +0.000 OA
ATOM      9  C   UNL     1       3.824   5.088  17.379  0.00  0.00    +0.000 A 
ATOM     10  C   UNL     1       4.504   4.222  16.503  0.00  0.00    +0.000 A 
ATOM     11  C   UNL     1       5.331   4.727  15.496  0.00  0.00    +0.000 A 
ATOM     12 CL   UNL     1       6.149   3.642  14.438  0.00  0.00    +0.000 Cl
ATOM     13  C   UNL     1       5.502   6.099  15.338  0.00  0.00    +0.000 A 
ATOM     14  C   UNL     1       4.836   6.972  16.191  0.00  0.00    +0.000 A 
ATOM     15  C   UNL     1       4.003   6.467  17.203  0.00  0.00    +0.000 A 
ATOM     16  C   UNL     1       3.304   7.416  18.088  0.00  0.00    +0.000 C 
ATOM     17  O   UNL     1       3.448   8.623  17.960  0.00  0.00    +0.000 OA
ATOM     18  C   UNL     1       2.402   6.856  19.171  0.00  0.00    +0.000 C 
ATOM     19  O   UNL     1       1.815   7.608  19.938  0.00  0.00    +0.000 OA
ENDROOT
TORSDOF 0
ENDMDL
MODEL 7
REMARK VINA RESULT:      -6.8      1.944      4.302
REMARK  Name = 
REMARK  2 active torsions:
REMARK  status: ('A' for Active; 'I' for Inactive)
REMARK    1  A    between atoms: C_1  and  C_2
REMARK    2  A    between atoms: C_2  and  C_3
REMARK                            x       y       z     vdW  Elec       q    Type
REMARK                         _______ _______ _______ _____ _____    ______ ____
ROOT
ATOM      1  C   UNL     1       7.009   7.382  17.068  0.00  0.00    +0.000 C 
ATOM      2  C   UNL     1       6.497   6.008  17.521  0.00  0.00    +0.000 C 
ATOM      3  C   UNL     1       7.436   5.478  18.618  0.00  0.00    +0.000 C 
ATOM      4  C   UNL     1       6.421   5.078  16.303  0.00  0.00    +0.000 C 
ATOM      5  C   UNL     1       5.805   3.738  16.680  0.00  0.00    +0.000 C 
ATOM      6  C   UNL     1       4.636   3.931  17.597  0.00  0.00    +0.000 C 
ATOM      7  C   UNL     1       4.368   5.101  18.202  0.00  0.00    +0.000 C 
ATOM      8  O   UNL     1       5.184   6.214  18.086  0.00  0.00    +0.000 OA
ATOM      9  C   UNL     1       3.183   5.285  19.066  0.00  0.00    +0.000 A 
ATOM     10  C   UNL     1       2.897   6.526  19.664  0.00  0.00    +0.000 A 
ATOM     11  C   UNL     1       1.777   6.684  20.484  0.00  0.00    +0.000 A 
ATOM     12 CL   UNL     1       1.453   8.216  21.201  0.00  0.00    +0.000 Cl
ATOM     13  C   UNL     1       0.918   5.617  20.729  0.00  0.00    +0.000 A 
ATOM     14  C   UNL     1       1.182   4.383  20.144  0.00  0.00    +0.000 A 
ATOM     15  C   UNL     1       2.306   4.221  19.318  0.00  0.00    +0.000 A 
ATOM     16  C   UNL     1       2.555   2.904  18.706  0.00  0.00    +0.000 C 
ATOM     17  O   UNL     1       1.810   1.958  18.915  0.00  0.00    +0.000 OA
ATOM     18  C   UNL     1       3.769   2.747  17.811  0.00  0.00    +0.000 C 
ATOM     19  O   UNL     1       4.023   1.667  17.295  0.00  0.00    +0.000 OA
ENDROOT
TORSDOF 0
ENDMDL
MODEL 8
REMARK VINA RESULT:      -6.7      5.592      8.210
REMARK  Name = 
REMARK  2 active torsions:
REMARK  status: ('A' for Active; 'I' for Inactive)
REMARK    1  A    between atoms: C_1  and  C_2
REMARK    2  A    between atoms: C_2  and  C_3
REMARK                            x       y       z     vdW  Elec       q    Type
REMARK                         _______ _______ _______ _____ _____    ______ ____
ROOT
ATOM      1  C   UNL     1       2.048   8.349  17.823  0.00  0.00    +0.000 C 
ATOM      2  C   UNL     1       1.364   9.570  18.453  0.00  0.00    +0.000 C 
ATOM      3  C   UNL     1       2.157  10.827  18.060  0.00  0.00    +0.000 C 
ATOM      4  C   UNL     1       1.284   9.367  19.972  0.00  0.00    +0.000 C 
ATOM      5  C   UNL     1       0.506  10.498  20.631  0.00  0.00    +0.000 C 
ATOM      6  C   UNL     1      -0.703  10.853  19.820  0.00  0.00    +0.000 C 
ATOM      7  C   UNL     1      -0.893  10.416  18.563  0.00  0.00    +0.000 C 
ATOM      8  O   UNL     1       0.040   9.652  17.881  0.00  0.00    +0.000 OA
ATOM      9  C   UNL     1      -2.114  10.738  17.795  0.00  0.00    +0.000 A 
ATOM     10  C   UNL     1      -2.315  10.243  16.494  0.00  0.00    +0.000 A 
ATOM     11  C   UNL     1      -3.471  10.562  15.777  0.00  0.00    +0.000 A 
ATOM     12 CL   UNL     1      -3.688   9.939  14.186  0.00  0.00    +0.000 Cl
ATOM     13  C   UNL     1      -4.451  11.377  16.334  0.00  0.00    +0.000 A 
ATOM     14  C   UNL     1      -4.273  11.873  17.621  0.00  0.00    +0.000 A 
ATOM     15  C   UNL     1      -3.113  11.554  18.345  0.00  0.00    +0.000 A 
ATOM     16  C   UNL     1      -2.956  12.088  19.709  0.00  0.00    +0.000 C 
ATOM     17  O   UNL     1      -3.809  12.807  20.209  0.00  0.00    +0.000 OA
ATOM     18  C   UNL     1      -1.701  11.728  20.480  0.00  0.00    +0.000 C 
ATOM     19  O   UNL     1      -1.521  12.163  21.610  0.00  0.00    +0.000 OA
ENDROOT
TORSDOF 0
ENDMDL
MODEL 9
REMARK VINA RESULT:      -6.6      1.704      4.340
REMARK  Name = 
REMARK  2 active torsions:
REMARK  status: ('A' for Active; 'I' for Inactive)
REMARK    1  A    between atoms: C_1  and  C_2
REMARK    2  A    between atoms: C_2  and  C_3
REMARK                            x       y       z     vdW  Elec       q    Type
REMARK                         _______ _______ _______ _____ _____    ______ ____
ROOT
ATOM      1  C   UNL     1       5.616   6.658  15.122  0.00  0.00    +0.000 C 
ATOM      2  C   UNL     1       5.456   5.547  16.168  0.00  0.00    +0.000 C 
ATOM      3  C   UNL     1       6.745   5.476  17.003  0.00  0.00    +0.000 C 
ATOM      4  C   UNL     1       5.139   4.229  15.449  0.00  0.00    +0.000 C 
ATOM      5  C   UNL     1       4.852   3.118  16.450  0.00  0.00    +0.000 C 
ATOM      6  C   UNL     1       4.002   3.625  17.575  0.00  0.00    +0.000 C 
ATOM      7  C   UNL     1       3.776   4.933  17.788  0.00  0.00    +0.000 C 
ATOM      8  O   UNL     1       4.361   5.933  17.027  0.00  0.00    +0.000 OA
ATOM      9  C   UNL     1       2.896   5.412  18.874  0.00  0.00    +0.000 A 
ATOM     10  C   UNL     1       2.641   6.783  19.061  0.00  0.00    +0.000 A 
ATOM     11  C   UNL     1       1.812   7.222  20.097  0.00  0.00    +0.000 A 
ATOM     12 CL   UNL     1       1.518   8.907  20.300  0.00  0.00    +0.000 Cl
ATOM     13  C   UNL     1       1.220   6.313  20.968  0.00  0.00    +0.000 A 
ATOM     14  C   UNL     1       1.457   4.953  20.797  0.00  0.00    +0.000 A 
ATOM     15  C   UNL     1       2.288   4.509  19.756  0.00  0.00    +0.000 A 
ATOM     16  C   UNL     1       2.514   3.062  19.596  0.00  0.00    +0.000 C 
ATOM     17  O   UNL     1       2.002   2.253  20.355  0.00  0.00    +0.000 OA
ATOM     18  C   UNL     1       3.409   2.597  18.462  0.00  0.00    +0.000 C 
ATOM     19  O   UNL     1       3.637   1.405  18.302  0.00  0.00    +0.000 OA
ENDROOT
TORSDOF 0
ENDMDL
