MODEL 1
REMARK VINA RESULT:      -5.6      0.000      0.000
REMARK  Name = 
REMARK  3 active torsions:
REMARK  status: ('A' for Active; 'I' for Inactive)
REMARK    1  A    between atoms: N_1  and  C_2
REMARK    2  A    between atoms: C_2  and  C_3
REMARK    3  A    between atoms: N_8  and  C_9
REMARK                            x       y       z     vdW  Elec       q    Type
REMARK                         _______ _______ _______ _____ _____    ______ ____
ROOT
ATOM      1  C   UNL     1       2.388   3.309  19.872  0.00  0.00    +0.000 A 
ATOM      2  C   UNL     1       1.902   2.538  18.817  0.00  0.00    +0.000 A 
ATOM      3  C   UNL     1       2.739   2.288  17.744  0.00  0.00    +0.000 A 
ATOM      4  N   UNL     1       4.003   2.757  17.649  0.00  0.00    +0.000 NA
ATOM      5  C   UNL     1       4.468   3.509  18.664  0.00  0.00    +0.000 A 
ATOM      6  N   UNL     1       5.789   3.961  18.526  0.00  0.00    +0.000 N 
ATOM      7  C   UNL     1       3.700   3.792  19.790  0.00  0.00    +0.000 A 
ATOM      8  H   UNL     1       6.064   3.695  17.582  0.00  0.00    +0.000 HD
ENDROOT
BRANCH   6   9
ATOM      9  C   UNL     1       6.188   5.283  18.998  0.00  0.00    +0.000 C 
ATOM     10  C   UNL     1       7.631   5.653  19.194  0.00  0.00    +0.000 C 
ATOM     11  C   UNL     1       6.866   6.221  18.036  0.00  0.00    +0.000 C 
ENDBRANCH   6   9
BRANCH   1  12
ATOM     12  C   UNL     1       1.517   3.639  21.054  0.00  0.00    +0.000 C 
BRANCH  12  13
ATOM     13  N   UNL     1       1.626   2.636  22.106  0.00  0.00    +0.000 NA
ATOM     14  H   UNL     1       2.238   2.990  22.839  0.00  0.00    +0.000 HD
ATOM     15  H   UNL     1       2.086   1.809  21.725  0.00  0.00    +0.000 HD
ENDBRANCH  12  13
ENDBRANCH   1  12
TORSDOF 3
ENDMDL
MODEL 2
REMARK VINA RESULT:      -5.6      1.946      4.861
REMARK  Name = 
REMARK  3 active torsions:
REMARK  status: ('A' for Active; 'I' for Inactive)
REMARK    1  A    between atoms: N_1  and  C_2
REMARK    2  A    between atoms: C_2  and  C_3
REMARK    3  A    between atoms: N_8  and  C_9
REMARK                            x       y       z     vdW  Elec       q    Type
REMARK                         _______ _______ _______ _____ _____    ______ ____
ROOT
ATOM      1  C   UNL     1       6.822   5.319  18.343  0.00  0.00    +0.000 A 
ATOM      2  C   UNL     1       7.082   4.718  17.112  0.00  0.00    +0.000 A 
ATOM      3  C   UNL     1       6.031   4.131  16.431  0.00  0.00    +0.000 A 
ATOM      4  N   UNL     1       4.762   4.092  16.892  0.00  0.00    +0.000 NA
ATOM      5  C   UNL     1       4.513   4.664  18.086  0.00  0.00    +0.000 A 
ATOM      6  N   UNL     1       3.178   4.611  18.515  0.00  0.00    +0.000 N 
ATOM      7  C   UNL     1       5.507   5.295  18.827  0.00  0.00    +0.000 A 
ATOM      8  H   UNL     1       2.704   4.016  17.838  0.00  0.00    +0.000 HD
ENDROOT
BRANCH   6   9
ATOM      9  C   UNL     1       2.846   4.427  19.925  0.00  0.00    +0.000 C 
ATOM     10  C   UNL     1       1.864   5.320  20.630  0.00  0.00    +0.000 C 
ATOM     11  C   UNL     1       1.478   3.912  20.285  0.00  0.00    +0.000 C 
ENDBRANCH   6   9
BRANCH   1  12
ATOM     12  C   UNL     1       7.927   5.950  19.146  0.00  0.00    +0.000 C 
BRANCH  12  13
ATOM     13  N   UNL     1       8.022   5.378  20.483  0.00  0.00    +0.000 NA
ATOM     14  H   UNL     1       8.629   4.560  20.451  0.00  0.00    +0.000 HD
ATOM     15  H   UNL     1       7.101   5.038  20.761  0.00  0.00    +0.000 HD
ENDBRANCH  12  13
ENDBRANCH   1  12
TORSDOF 3
ENDMDL
MODEL 3
REMARK VINA RESULT:      -5.6      2.401      5.509
REMARK  Name = 
REMARK  3 active torsions:
REMARK  status: ('A' for Active; 'I' for Inactive)
REMARK    1  A    between atoms: N_1  and  C_2
REMARK    2  A    between atoms: C_2  and  C_3
REMARK    3  A    between atoms: N_8  and  C_9
REMARK                            x       y       z     vdW  Elec       q    Type
REMARK                         _______ _______ _______ _____ _____    ______ ____
ROOT
ATOM      1  C   UNL     1       5.829   4.430  15.895  0.00  0.00    +0.000 A 
ATOM      2  C   UNL     1       7.077   4.667  16.470  0.00  0.00    +0.000 A 
ATOM      3  C   UNL     1       7.185   4.631  17.848  0.00  0.00    +0.000 A 
ATOM      4  N   UNL     1       6.147   4.392  18.679  0.00  0.00    +0.000 NA
ATOM      5  C   UNL     1       4.939   4.173  18.124  0.00  0.00    +0.000 A 
ATOM      6  N   UNL     1       3.897   3.915  19.026  0.00  0.00    +0.000 N 
ATOM      7  C   UNL     1       4.747   4.170  16.746  0.00  0.00    +0.000 A 
ATOM      8  H   UNL     1       4.297   4.077  19.949  0.00  0.00    +0.000 HD
ENDROOT
BRANCH   6   9
ATOM      9  C   UNL     1       2.545   4.409  18.780  0.00  0.00    +0.000 C 
ATOM     10  C   UNL     1       1.441   3.500  18.321  0.00  0.00    +0.000 C 
ATOM     11  C   UNL     1       1.446   4.016  19.730  0.00  0.00    +0.000 C 
ENDBRANCH   6   9
BRANCH   1  12
ATOM     12  C   UNL     1       5.642   4.483  14.403  0.00  0.00    +0.000 C 
BRANCH  12  13
ATOM     13  N   UNL     1       6.314   3.379  13.732  0.00  0.00    +0.000 NA
ATOM     14  H   UNL     1       5.786   3.127  12.898  0.00  0.00    +0.000 HD
ATOM     15  H   UNL     1       6.291   2.560  14.341  0.00  0.00    +0.000 HD
ENDBRANCH  12  13
ENDBRANCH   1  12
TORSDOF 3
ENDMDL
MODEL 4
REMARK VINA RESULT:      -5.5      4.782      6.902
REMARK  Name = 
REMARK  3 active torsions:
REMARK  status: ('A' for Active; 'I' for Inactive)
REMARK    1  A    between atoms: N_1  and  C_2
REMARK    2  A    between atoms: C_2  and  C_3
REMARK    3  A    between atoms: N_8  and  C_9
REMARK                            x       y       z     vdW  Elec       q    Type
REMARK                         _______ _______ _______ _____ _____    ______ ____
ROOT
ATOM      1  C   UNL     1       6.169   3.630  12.603  0.00  0.00    +0.000 A 
ATOM      2  C   UNL     1       7.243   4.310  12.029  0.00  0.00    +0.000 A 
ATOM      3  C   UNL     1       7.950   5.204  12.811  0.00  0.00    +0.000 A 
ATOM      4  N   UNL     1       7.657   5.471  14.103  0.00  0.00    +0.000 NA
ATOM      5  C   UNL     1       6.614   4.822  14.654  0.00  0.00    +0.000 A 
ATOM      6  N   UNL     1       6.357   5.122  16.000  0.00  0.00    +0.000 N 
ATOM      7  C   UNL     1       5.861   3.891  13.944  0.00  0.00    +0.000 A 
ATOM      8  H   UNL     1       6.985   5.892  16.226  0.00  0.00    +0.000 HD
ENDROOT
BRANCH   6   9
ATOM      9  C   UNL     1       4.992   5.193  16.511  0.00  0.00    +0.000 C 
ATOM     10  C   UNL     1       4.409   4.107  17.369  0.00  0.00    +0.000 C 
ATOM     11  C   UNL     1       4.781   5.424  17.984  0.00  0.00    +0.000 C 
ENDBRANCH   6   9
BRANCH   1  12
ATOM     12  C   UNL     1       5.342   2.666  11.796  0.00  0.00    +0.000 C 
BRANCH  12  13
ATOM     13  N   UNL     1       6.080   1.450  11.481  0.00  0.00    +0.000 NA
ATOM     14  H   UNL     1       6.771   1.658  10.762  0.00  0.00    +0.000 HD
ATOM     15  H   UNL     1       5.437   0.772  11.071  0.00  0.00    +0.000 HD
ENDBRANCH  12  13
ENDBRANCH   1  12
TORSDOF 3
ENDMDL
MODEL 5
REMARK VINA RESULT:      -5.5      2.096      5.087
REMARK  Name = 
REMARK  3 active torsions:
REMARK  status: ('A' for Active; 'I' for Inactive)
REMARK    1  A    between atoms: N_1  and  C_2
REMARK    2  A    between atoms: C_2  and  C_3
REMARK    3  A    between atoms: N_8  and  C_9
REMARK                            x       y       z     vdW  Elec       q    Type
REMARK                         _______ _______ _______ _____ _____    ______ ____
ROOT
ATOM      1  C   UNL     1       6.195   5.748  18.486  0.00  0.00    +0.000 A 
ATOM      2  C   UNL     1       5.865   6.510  17.366  0.00  0.00    +0.000 A 
ATOM      3  C   UNL     1       4.528   6.739  17.095  0.00  0.00    +0.000 A 
ATOM      4  N   UNL     1       3.514   6.256  17.847  0.00  0.00    +0.000 NA
ATOM      5  C   UNL     1       3.833   5.512  18.923  0.00  0.00    +0.000 A 
ATOM      6  N   UNL     1       2.748   5.045  19.680  0.00  0.00    +0.000 N 
ATOM      7  C   UNL     1       5.153   5.251  19.279  0.00  0.00    +0.000 A 
ATOM      8  H   UNL     1       1.920   5.297  19.141  0.00  0.00    +0.000 HD
ENDROOT
BRANCH   6   9
ATOM      9  C   UNL     1       2.773   3.725  20.302  0.00  0.00    +0.000 C 
ATOM     10  C   UNL     1       2.142   3.468  21.641  0.00  0.00    +0.000 C 
ATOM     11  C   UNL     1       1.489   2.945  20.396  0.00  0.00    +0.000 C 
ENDBRANCH   6   9
BRANCH   1  12
ATOM     12  C   UNL     1       7.630   5.441  18.817  0.00  0.00    +0.000 C 
BRANCH  12  13
ATOM     13  N   UNL     1       7.872   5.460  20.254  0.00  0.00    +0.000 NA
ATOM     14  H   UNL     1       7.903   6.427  20.571  0.00  0.00    +0.000 HD
ATOM     15  H   UNL     1       8.798   5.071  20.436  0.00  0.00    +0.000 HD
ENDBRANCH  12  13
ENDBRANCH   1  12
TORSDOF 3
ENDMDL
MODEL 6
REMARK VINA RESULT:      -5.4      1.876      1.976
REMARK  Name = 
REMARK  3 active torsions:
REMARK  status: ('A' for Active; 'I' for Inactive)
REMARK    1  A    between atoms: N_1  and  C_2
REMARK    2  A    between atoms: C_2  and  C_3
REMARK    3  A    between atoms: N_8  and  C_9
REMARK                            x       y       z     vdW  Elec       q    Type
REMARK                         _______ _______ _______ _____ _____    ______ ____
ROOT
ATOM      1  C   UNL     1       2.378   4.719  20.165  0.00  0.00    +0.000 A 
ATOM      2  C   UNL     1       1.734   3.486  20.062  0.00  0.00    +0.000 A 
ATOM      3  C   UNL     1       2.454   2.404  19.591  0.00  0.00    +0.000 A 
ATOM      4  N   UNL     1       3.749   2.468  19.209  0.00  0.00    +0.000 NA
ATOM      5  C   UNL     1       4.368   3.661  19.300  0.00  0.00    +0.000 A 
ATOM      6  N   UNL     1       5.714   3.675  18.906  0.00  0.00    +0.000 N 
ATOM      7  C   UNL     1       3.723   4.796  19.783  0.00  0.00    +0.000 A 
ATOM      8  H   UNL     1       5.886   2.752  18.511  0.00  0.00    +0.000 HD
ENDROOT
BRANCH   6   9
ATOM      9  C   UNL     1       6.285   4.824  18.208  0.00  0.00    +0.000 C 
ATOM     10  C   UNL     1       7.547   5.490  18.679  0.00  0.00    +0.000 C 
ATOM     11  C   UNL     1       7.567   4.641  17.442  0.00  0.00    +0.000 C 
ENDBRANCH   6   9
BRANCH   1  12
ATOM     12  C   UNL     1       1.641   5.940  20.644  0.00  0.00    +0.000 C 
BRANCH  12  13
ATOM     13  N   UNL     1       2.295   7.170  20.220  0.00  0.00    +0.000 NA
ATOM     14  H   UNL     1       1.782   7.965  20.598  0.00  0.00    +0.000 HD
ATOM     15  H   UNL     1       2.227   7.245  19.204  0.00  0.00    +0.000 HD
ENDBRANCH  12  13
ENDBRANCH   1  12
TORSDOF 3
ENDMDL
MODEL 7
REMARK VINA RESULT:      -5.4      1.193      1.193
REMARK  Name = 
REMARK  3 active torsions:
REMARK  status: ('A' for Active; 'I' for Inactive)
REMARK    1  A    between atoms: N_1  and  C_2
REMARK    2  A    between atoms: C_2  and  C_3
REMARK    3  A    between atoms: N_8  and  C_9
REMARK                            x       y       z     vdW  Elec       q    Type
REMARK                         _______ _______ _______ _____ _____    ______ ____
ROOT
ATOM      1  C   UNL     1       2.296   4.085  19.539  0.00  0.00    +0.000 A 
ATOM      2  C   UNL     1       1.847   3.192  18.567  0.00  0.00    +0.000 A 
ATOM      3  C   UNL     1       2.771   2.652  17.691  0.00  0.00    +0.000 A 
ATOM      4  N   UNL     1       4.090   2.948  17.710  0.00  0.00    +0.000 NA
ATOM      5  C   UNL     1       4.522   3.819  18.642  0.00  0.00    +0.000 A 
ATOM      6  N   UNL     1       5.899   4.083  18.631  0.00  0.00    +0.000 N 
ATOM      7  C   UNL     1       3.663   4.392  19.575  0.00  0.00    +0.000 A 
ATOM      8  H   UNL     1       6.253   3.616  17.798  0.00  0.00    +0.000 HD
ENDROOT
BRANCH   6   9
ATOM      9  C   UNL     1       6.415   5.416  18.928  0.00  0.00    +0.000 C 
ATOM     10  C   UNL     1       7.824   5.633  19.402  0.00  0.00    +0.000 C 
ATOM     11  C   UNL     1       7.439   6.018  18.004  0.00  0.00    +0.000 C 
ENDBRANCH   6   9
BRANCH   1  12
ATOM     12  C   UNL     1       1.336   4.728  20.502  0.00  0.00    +0.000 C 
BRANCH  12  13
ATOM     13  N   UNL     1       1.787   6.049  20.920  0.00  0.00    +0.000 NA
ATOM     14  H   UNL     1       0.974   6.640  21.084  0.00  0.00    +0.000 HD
ATOM     15  H   UNL     1       2.301   6.479  20.150  0.00  0.00    +0.000 HD
ENDBRANCH  12  13
ENDBRANCH   1  12
TORSDOF 3
ENDMDL
MODEL 8
REMARK VINA RESULT:      -5.4      3.688      5.212
REMARK  Name = 
REMARK  3 active torsions:
REMARK  status: ('A' for Active; 'I' for Inactive)
REMARK    1  A    between atoms: N_1  and  C_2
REMARK    2  A    between atoms: C_2  and  C_3
REMARK    3  A    between atoms: N_8  and  C_9
REMARK                            x       y       z     vdW  Elec       q    Type
REMARK                         _______ _______ _______ _____ _____    ______ ____
ROOT
ATOM      1  C   UNL     1       5.366   4.427  17.599  0.00  0.00    +0.000 A 
ATOM      2  C   UNL     1       6.322   5.222  18.231  0.00  0.00    +0.000 A 
ATOM      3  C   UNL     1       7.278   5.847  17.452  0.00  0.00    +0.000 A 
ATOM      4  N   UNL     1       7.352   5.726  16.108  0.00  0.00    +0.000 NA
ATOM      5  C   UNL     1       6.434   4.951  15.499  0.00  0.00    +0.000 A 
ATOM      6  N   UNL     1       6.544   4.868  14.103  0.00  0.00    +0.000 N 
ATOM      7  C   UNL     1       5.426   4.302  16.205  0.00  0.00    +0.000 A 
ATOM      8  H   UNL     1       7.413   5.349  13.875  0.00  0.00    +0.000 HD
ENDROOT
BRANCH   6   9
ATOM      9  C   UNL     1       6.255   3.624  13.395  0.00  0.00    +0.000 C 
ATOM     10  C   UNL     1       5.227   3.555  12.303  0.00  0.00    +0.000 C 
ATOM     11  C   UNL     1       6.686   3.492  11.959  0.00  0.00    +0.000 C 
ENDBRANCH   6   9
BRANCH   1  12
ATOM     12  C   UNL     1       4.317   3.698  18.394  0.00  0.00    +0.000 C 
BRANCH  12  13
ATOM     13  N   UNL     1       4.186   2.309  17.975  0.00  0.00    +0.000 NA
ATOM     14  H   UNL     1       3.198   2.062  17.948  0.00  0.00    +0.000 HD
ATOM     15  H   UNL     1       4.609   1.710  18.685  0.00  0.00    +0.000 HD
ENDBRANCH  12  13
ENDBRANCH   1  12
TORSDOF 3
ENDMDL
MODEL 9
REMARK VINA RESULT:      -5.4      2.065      5.234
REMARK  Name = 
REMARK  3 active torsions:
REMARK  status: ('A' for Active; 'I' for Inactive)
REMARK    1  A    between atoms: N_1  and  C_2
REMARK    2  A    between atoms: C_2  and  C_3
REMARK    3  A    between atoms: N_8  and  C_9
REMARK                            x       y       z     vdW  Elec       q    Type
REMARK                         _______ _______ _______ _____ _____    ______ ____
ROOT
ATOM      1  C   UNL     1       6.151   5.509  18.217  0.00  0.00    +0.000 A 
ATOM      2  C   UNL     1       5.758   6.443  17.260  0.00  0.00    +0.000 A 
ATOM      3  C   UNL     1       4.443   6.870  17.256  0.00  0.00    +0.000 A 
ATOM      4  N   UNL     1       3.504   6.427  18.121  0.00  0.00    +0.000 NA
ATOM      5  C   UNL     1       3.881   5.517  19.040  0.00  0.00    +0.000 A 
ATOM      6  N   UNL     1       2.876   5.098  19.924  0.00  0.00    +0.000 N 
ATOM      7  C   UNL     1       5.189   5.049  19.127  0.00  0.00    +0.000 A 
ATOM      8  H   UNL     1       2.018   5.518  19.570  0.00  0.00    +0.000 HD
ENDROOT
BRANCH   6   9
ATOM      9  C   UNL     1       2.809   3.716  20.391  0.00  0.00    +0.000 C 
ATOM     10  C   UNL     1       2.098   3.343  21.660  0.00  0.00    +0.000 C 
ATOM     11  C   UNL     1       1.488   2.997  20.334  0.00  0.00    +0.000 C 
ENDBRANCH   6   9
BRANCH   1  12
ATOM     12  C   UNL     1       7.560   4.984  18.255  0.00  0.00    +0.000 C 
BRANCH  12  13
ATOM     13  N   UNL     1       7.890   4.227  17.054  0.00  0.00    +0.000 NA
ATOM     14  H   UNL     1       7.037   4.060  16.523  0.00  0.00    +0.000 HD
ATOM     15  H   UNL     1       8.238   3.308  17.330  0.00  0.00    +0.000 HD
ENDBRANCH  12  13
ENDBRANCH   1  12
TORSDOF 3
ENDMDL
