MODEL 1
REMARK VINA RESULT:      -8.4      0.000      0.000
REMARK  Name = 
REMARK  10 active torsions:
REMARK  status: ('A' for Active; 'I' for Inactive)
REMARK    1  A    between atoms: C_1  and  C_2
REMARK    2  A    between atoms: C_2  and  C_3
REMARK    3  A    between atoms: C_3  and  C_4
REMARK    4  A    between atoms: C_5  and  C_6
REMARK    5  A    between atoms: N_8  and  C_9
REMARK    6  A    between atoms: C_9  and  C_10
REMARK    7  A    between atoms: C_9  and  C_11
REMARK    8  A    between atoms: C_9  and  C_12
REMARK    9  A    between atoms: C_24  and  C_25
REMARK   10  A    between atoms: C_26  and  C_27
REMARK                            x       y       z     vdW  Elec       q    Type
REMARK                         _______ _______ _______ _____ _____    ______ ____
ROOT
ATOM      1  C   UNL     1       1.467   8.989  19.797  0.00  0.00    +0.000 A 
ATOM      2  C   UNL     1       1.055  10.199  19.244  0.00  0.00    +0.000 A 
ATOM      3  C   UNL     1       1.643  10.206  17.969  0.00  0.00    +0.000 A 
ATOM      4  N   UNL     1       2.345   9.103  17.703  0.00  0.00    +0.000 NA
ATOM      5  N   UNL     1       2.193   8.310  18.809  0.00  0.00    +0.000 N 
ATOM      6  C   UNL     1       2.753   6.968  18.873  0.00  0.00    +0.000 A 
ATOM      7  N   UNL     1       2.474   6.229  19.962  0.00  0.00    +0.000 NA
ATOM      8  C   UNL     1       3.007   5.004  20.041  0.00  0.00    +0.000 A 
ATOM      9  C   UNL     1       3.843   4.461  19.090  0.00  0.00    +0.000 A 
ATOM     10  C   UNL     1       4.413   3.100  19.326  0.00  0.00    +0.000 C 
ATOM     11  C   UNL     1       4.087   5.280  17.994  0.00  0.00    +0.000 A 
ATOM     12  N   UNL     1       3.535   6.517  17.870  0.00  0.00    +0.000 NA
ENDROOT
BRANCH  11  13
ATOM     13  C   UNL     1       5.002   4.908  16.890  0.00  0.00    +0.000 A 
ATOM     14  C   UNL     1       4.827   4.038  15.823  0.00  0.00    +0.000 A 
ATOM     15  C   UNL     1       5.993   3.887  15.015  0.00  0.00    +0.000 A 
ATOM     16  C   UNL     1       7.022   4.684  15.452  0.00  0.00    +0.000 A 
ATOM     17  S   UNL     1       6.591   5.586  16.835  0.00  0.00    +0.000 S 
ENDBRANCH  11  13
BRANCH   2  18
ATOM     18  C   UNL     1       0.183  11.167  19.894  0.00  0.00    +0.000 C 
ATOM     19  O   UNL     1       0.618  11.901  20.774  0.00  0.00    +0.000 OA
ATOM     20  N   UNL     1      -1.124  11.238  19.442  0.00  0.00    +0.000 N 
ATOM     21  H   UNL     1      -1.369  10.731  18.601  0.00  0.00    +0.000 HD
BRANCH  20  22
ATOM     22  C   UNL     1      -2.055  12.295  19.904  0.00  0.00    +0.000 C 
ATOM     23  C   UNL     1      -2.318  12.180  21.425  0.00  0.00    +0.000 C 
ATOM     24  C   UNL     1      -1.431  13.686  19.623  0.00  0.00    +0.000 C 
BRANCH  22  25
ATOM     25  C   UNL     1      -3.419  12.130  19.195  0.00  0.00    +0.000 A 
ATOM     26  C   UNL     1      -3.498  11.483  17.947  0.00  0.00    +0.000 A 
ATOM     27  C   UNL     1      -4.740  11.265  17.370  0.00  0.00    +0.000 A 
ATOM     28  N   UNL     1      -5.908  11.650  17.924  0.00  0.00    +0.000 NA
ATOM     29  C   UNL     1      -5.829  12.276  19.112  0.00  0.00    +0.000 A 
ATOM     30  C   UNL     1      -4.633  12.536  19.770  0.00  0.00    +0.000 A 
ENDBRANCH  22  25
ENDBRANCH  20  22
ENDBRANCH   2  18
BRANCH   1  31
ATOM     31  C   UNL     1       1.266   8.484  21.199  0.00  0.00    +0.000 C 
BRANCH  31  33
ATOM     32  C   UNL     1      -0.508   9.224  22.839  0.00  0.00    +0.000 C 
ATOM     33  C   UNL     1      -0.226   8.470  21.552  0.00  0.00    +0.000 C 
ENDBRANCH  31  33
ENDBRANCH   1  31
TORSDOF 6
ENDMDL
MODEL 2
REMARK VINA RESULT:      -8.0      2.713      4.304
REMARK  Name = 
REMARK  10 active torsions:
REMARK  status: ('A' for Active; 'I' for Inactive)
REMARK    1  A    between atoms: C_1  and  C_2
REMARK    2  A    between atoms: C_2  and  C_3
REMARK    3  A    between atoms: C_3  and  C_4
REMARK    4  A    between atoms: C_5  and  C_6
REMARK    5  A    between atoms: N_8  and  C_9
REMARK    6  A    between atoms: C_9  and  C_10
REMARK    7  A    between atoms: C_9  and  C_11
REMARK    8  A    between atoms: C_9  and  C_12
REMARK    9  A    between atoms: C_24  and  C_25
REMARK   10  A    between atoms: C_26  and  C_27
REMARK                            x       y       z     vdW  Elec       q    Type
REMARK                         _______ _______ _______ _____ _____    ______ ____
ROOT
ATOM      1  C   UNL     1      -0.179  10.738  21.123  0.00  0.00    +0.000 A 
ATOM      2  C   UNL     1      -0.720  10.981  22.383  0.00  0.00    +0.000 A 
ATOM      3  C   UNL     1      -0.396   9.830  23.119  0.00  0.00    +0.000 A 
ATOM      4  N   UNL     1       0.309   8.937  22.422  0.00  0.00    +0.000 NA
ATOM      5  N   UNL     1       0.504   9.517  21.196  0.00  0.00    +0.000 N 
ATOM      6  C   UNL     1       1.309   8.878  20.165  0.00  0.00    +0.000 A 
ATOM      7  N   UNL     1       1.521   9.565  19.028  0.00  0.00    +0.000 NA
ATOM      8  C   UNL     1       2.238   8.974  18.064  0.00  0.00    +0.000 A 
ATOM      9  C   UNL     1       2.752   7.699  18.153  0.00  0.00    +0.000 A 
ATOM     10  C   UNL     1       3.490   7.137  16.982  0.00  0.00    +0.000 C 
ATOM     11  C   UNL     1       2.494   7.050  19.355  0.00  0.00    +0.000 A 
ATOM     12  N   UNL     1       1.795   7.636  20.365  0.00  0.00    +0.000 NA
ENDROOT
BRANCH  11  13
ATOM     13  C   UNL     1       2.907   5.654  19.630  0.00  0.00    +0.000 A 
ATOM     14  C   UNL     1       4.136   5.027  19.477  0.00  0.00    +0.000 A 
ATOM     15  C   UNL     1       4.103   3.633  19.775  0.00  0.00    +0.000 A 
ATOM     16  C   UNL     1       2.860   3.231  20.198  0.00  0.00    +0.000 A 
ATOM     17  S   UNL     1       1.741   4.519  20.213  0.00  0.00    +0.000 S 
ENDBRANCH  11  13
BRANCH   2  18
ATOM     18  C   UNL     1      -1.421  12.195  22.777  0.00  0.00    +0.000 C 
ATOM     19  O   UNL     1      -0.793  13.210  23.057  0.00  0.00    +0.000 OA
ATOM     20  N   UNL     1      -2.805  12.150  22.779  0.00  0.00    +0.000 N 
ATOM     21  H   UNL     1      -3.259  11.343  22.373  0.00  0.00    +0.000 HD
BRANCH  20  22
ATOM     22  C   UNL     1      -3.626  13.365  22.995  0.00  0.00    +0.000 C 
ATOM     23  C   UNL     1      -3.412  13.938  24.417  0.00  0.00    +0.000 C 
ATOM     24  C   UNL     1      -3.216  14.451  21.967  0.00  0.00    +0.000 C 
BRANCH  22  25
ATOM     25  C   UNL     1      -5.125  13.005  22.874  0.00  0.00    +0.000 A 
ATOM     26  C   UNL     1      -5.945  12.983  24.018  0.00  0.00    +0.000 A 
ATOM     27  C   UNL     1      -7.305  12.747  23.877  0.00  0.00    +0.000 A 
ATOM     28  N   UNL     1      -7.913  12.516  22.696  0.00  0.00    +0.000 NA
ATOM     29  C   UNL     1      -7.125  12.527  21.606  0.00  0.00    +0.000 A 
ATOM     30  C   UNL     1      -5.756  12.758  21.645  0.00  0.00    +0.000 A 
ENDBRANCH  22  25
ENDBRANCH  20  22
ENDBRANCH   2  18
BRANCH   1  31
ATOM     31  C   UNL     1      -0.325  11.555  19.868  0.00  0.00    +0.000 C 
BRANCH  31  33
ATOM     32  C   UNL     1      -1.808  10.322  18.235  0.00  0.00    +0.000 C 
ATOM     33  C   UNL     1      -1.739  11.406  19.297  0.00  0.00    +0.000 C 
ENDBRANCH  31  33
ENDBRANCH   1  31
TORSDOF 6
ENDMDL
MODEL 3
REMARK VINA RESULT:      -8.0      0.793      1.259
REMARK  Name = 
REMARK  10 active torsions:
REMARK  status: ('A' for Active; 'I' for Inactive)
REMARK    1  A    between atoms: C_1  and  C_2
REMARK    2  A    between atoms: C_2  and  C_3
REMARK    3  A    between atoms: C_3  and  C_4
REMARK    4  A    between atoms: C_5  and  C_6
REMARK    5  A    between atoms: N_8  and  C_9
REMARK    6  A    between atoms: C_9  and  C_10
REMARK    7  A    between atoms: C_9  and  C_11
REMARK    8  A    between atoms: C_9  and  C_12
REMARK    9  A    between atoms: C_24  and  C_25
REMARK   10  A    between atoms: C_26  and  C_27
REMARK                            x       y       z     vdW  Elec       q    Type
REMARK                         _______ _______ _______ _____ _____    ______ ____
ROOT
ATOM      1  C   UNL     1       1.225   8.910  19.979  0.00  0.00    +0.000 A 
ATOM      2  C   UNL     1       1.017  10.172  19.427  0.00  0.00    +0.000 A 
ATOM      3  C   UNL     1       1.876  10.203  18.317  0.00  0.00    +0.000 A 
ATOM      4  N   UNL     1       2.557   9.069  18.143  0.00  0.00    +0.000 NA
ATOM      5  N   UNL     1       2.116   8.234  19.134  0.00  0.00    +0.000 N 
ATOM      6  C   UNL     1       2.571   6.854  19.234  0.00  0.00    +0.000 A 
ATOM      7  N   UNL     1       2.012   6.083  20.185  0.00  0.00    +0.000 NA
ATOM      8  C   UNL     1       2.444   4.821  20.301  0.00  0.00    +0.000 A 
ATOM      9  C   UNL     1       3.441   4.270  19.526  0.00  0.00    +0.000 A 
ATOM     10  C   UNL     1       3.866   2.864  19.794  0.00  0.00    +0.000 C 
ATOM     11  C   UNL     1       3.972   5.125  18.566  0.00  0.00    +0.000 A 
ATOM     12  N   UNL     1       3.532   6.402  18.403  0.00  0.00    +0.000 NA
ENDROOT
BRANCH  11  13
ATOM     13  C   UNL     1       5.090   4.747  17.671  0.00  0.00    +0.000 A 
ATOM     14  C   UNL     1       6.463   4.822  17.857  0.00  0.00    +0.000 A 
ATOM     15  C   UNL     1       7.214   4.435  16.707  0.00  0.00    +0.000 A 
ATOM     16  C   UNL     1       6.399   4.025  15.681  0.00  0.00    +0.000 A 
ATOM     17  S   UNL     1       4.747   4.127  16.094  0.00  0.00    +0.000 S 
ENDBRANCH  11  13
BRANCH   2  18
ATOM     18  C   UNL     1       0.076  11.164  19.928  0.00  0.00    +0.000 C 
ATOM     19  O   UNL     1       0.440  12.012  20.736  0.00  0.00    +0.000 OA
ATOM     20  N   UNL     1      -1.212  11.122  19.421  0.00  0.00    +0.000 N 
ATOM     21  H   UNL     1      -1.397  10.515  18.634  0.00  0.00    +0.000 HD
BRANCH  20  22
ATOM     22  C   UNL     1      -2.206  12.179  19.723  0.00  0.00    +0.000 C 
ATOM     23  C   UNL     1      -2.624  12.142  21.214  0.00  0.00    +0.000 C 
ATOM     24  C   UNL     1      -1.584  13.568  19.428  0.00  0.00    +0.000 C 
BRANCH  22  25
ATOM     25  C   UNL     1      -3.485  11.941  18.889  0.00  0.00    +0.000 A 
ATOM     26  C   UNL     1      -4.745  12.308  19.399  0.00  0.00    +0.000 A 
ATOM     27  C   UNL     1      -5.871  12.170  18.599  0.00  0.00    +0.000 A 
ATOM     28  N   UNL     1      -5.849  11.682  17.343  0.00  0.00    +0.000 NA
ATOM     29  C   UNL     1      -4.645  11.322  16.862  0.00  0.00    +0.000 A 
ATOM     30  C   UNL     1      -3.463  11.427  17.583  0.00  0.00    +0.000 A 
ENDBRANCH  22  25
ENDBRANCH  20  22
ENDBRANCH   2  18
BRANCH   1  31
ATOM     31  C   UNL     1       0.684   8.351  21.266  0.00  0.00    +0.000 C 
BRANCH  31  33
ATOM     32  C   UNL     1       0.038   9.577  23.379  0.00  0.00    +0.000 C 
ATOM     33  C   UNL     1       1.177   9.180  22.457  0.00  0.00    +0.000 C 
ENDBRANCH  31  33
ENDBRANCH   1  31
TORSDOF 6
ENDMDL
MODEL 4
REMARK VINA RESULT:      -7.9      2.212      3.691
REMARK  Name = 
REMARK  10 active torsions:
REMARK  status: ('A' for Active; 'I' for Inactive)
REMARK    1  A    between atoms: C_1  and  C_2
REMARK    2  A    between atoms: C_2  and  C_3
REMARK    3  A    between atoms: C_3  and  C_4
REMARK    4  A    between atoms: C_5  and  C_6
REMARK    5  A    between atoms: N_8  and  C_9
REMARK    6  A    between atoms: C_9  and  C_10
REMARK    7  A    between atoms: C_9  and  C_11
REMARK    8  A    between atoms: C_9  and  C_12
REMARK    9  A    between atoms: C_24  and  C_25
REMARK   10  A    between atoms: C_26  and  C_27
REMARK                            x       y       z     vdW  Elec       q    Type
REMARK                         _______ _______ _______ _____ _____    ______ ____
ROOT
ATOM      1  C   UNL     1       1.043   8.965  19.876  0.00  0.00    +0.000 A 
ATOM      2  C   UNL     1       0.765  10.203  19.300  0.00  0.00    +0.000 A 
ATOM      3  C   UNL     1       1.598  10.245  18.170  0.00  0.00    +0.000 A 
ATOM      4  N   UNL     1       2.326   9.139  18.007  0.00  0.00    +0.000 NA
ATOM      5  N   UNL     1       1.945   8.309  19.027  0.00  0.00    +0.000 N 
ATOM      6  C   UNL     1       2.465   6.954  19.149  0.00  0.00    +0.000 A 
ATOM      7  N   UNL     1       1.962   6.182  20.130  0.00  0.00    +0.000 NA
ATOM      8  C   UNL     1       2.454   4.944  20.266  0.00  0.00    +0.000 A 
ATOM      9  C   UNL     1       3.457   4.420  19.481  0.00  0.00    +0.000 A 
ATOM     10  C   UNL     1       3.952   3.041  19.772  0.00  0.00    +0.000 C 
ATOM     11  C   UNL     1       3.928   5.274  18.490  0.00  0.00    +0.000 A 
ATOM     12  N   UNL     1       3.427   6.526  18.307  0.00  0.00    +0.000 NA
ENDROOT
BRANCH  11  13
ATOM     13  C   UNL     1       5.042   4.925  17.578  0.00  0.00    +0.000 A 
ATOM     14  C   UNL     1       5.031   4.359  16.311  0.00  0.00    +0.000 A 
ATOM     15  C   UNL     1       6.335   4.098  15.794  0.00  0.00    +0.000 A 
ATOM     16  C   UNL     1       7.318   4.517  16.657  0.00  0.00    +0.000 A 
ATOM     17  S   UNL     1       6.673   5.195  18.083  0.00  0.00    +0.000 S 
ENDBRANCH  11  13
BRANCH   2  18
ATOM     18  C   UNL     1      -0.208  11.163  19.799  0.00  0.00    +0.000 C 
ATOM     19  O   UNL     1      -1.402  11.018  19.561  0.00  0.00    +0.000 OA
ATOM     20  N   UNL     1       0.275  12.203  20.576  0.00  0.00    +0.000 N 
ATOM     21  H   UNL     1       1.240  12.167  20.878  0.00  0.00    +0.000 HD
BRANCH  20  22
ATOM     22  C   UNL     1      -0.631  13.141  21.279  0.00  0.00    +0.000 C 
ATOM     23  C   UNL     1      -1.674  13.744  20.306  0.00  0.00    +0.000 C 
ATOM     24  C   UNL     1      -1.392  12.379  22.395  0.00  0.00    +0.000 C 
BRANCH  22  25
ATOM     25  C   UNL     1       0.187  14.320  21.852  0.00  0.00    +0.000 A 
ATOM     26  C   UNL     1      -0.398  15.209  22.776  0.00  0.00    +0.000 A 
ATOM     27  C   UNL     1       0.379  16.206  23.347  0.00  0.00    +0.000 A 
ATOM     28  N   UNL     1       1.683  16.403  23.064  0.00  0.00    +0.000 NA
ATOM     29  C   UNL     1       2.236  15.559  22.175  0.00  0.00    +0.000 A 
ATOM     30  C   UNL     1       1.542  14.528  21.554  0.00  0.00    +0.000 A 
ENDBRANCH  22  25
ENDBRANCH  20  22
ENDBRANCH   2  18
BRANCH   1  31
ATOM     31  C   UNL     1       0.557   8.413  21.188  0.00  0.00    +0.000 C 
BRANCH  31  33
ATOM     32  C   UNL     1       0.180   9.462  23.456  0.00  0.00    +0.000 C 
ATOM     33  C   UNL     1       1.188   9.180  22.355  0.00  0.00    +0.000 C 
ENDBRANCH  31  33
ENDBRANCH   1  31
TORSDOF 6
ENDMDL
MODEL 5
REMARK VINA RESULT:      -7.9      2.580      4.027
REMARK  Name = 
REMARK  10 active torsions:
REMARK  status: ('A' for Active; 'I' for Inactive)
REMARK    1  A    between atoms: C_1  and  C_2
REMARK    2  A    between atoms: C_2  and  C_3
REMARK    3  A    between atoms: C_3  and  C_4
REMARK    4  A    between atoms: C_5  and  C_6
REMARK    5  A    between atoms: N_8  and  C_9
REMARK    6  A    between atoms: C_9  and  C_10
REMARK    7  A    between atoms: C_9  and  C_11
REMARK    8  A    between atoms: C_9  and  C_12
REMARK    9  A    between atoms: C_24  and  C_25
REMARK   10  A    between atoms: C_26  and  C_27
REMARK                            x       y       z     vdW  Elec       q    Type
REMARK                         _______ _______ _______ _____ _____    ______ ____
ROOT
ATOM      1  C   UNL     1       0.190  10.366  20.906  0.00  0.00    +0.000 A 
ATOM      2  C   UNL     1      -0.372  10.731  22.127  0.00  0.00    +0.000 A 
ATOM      3  C   UNL     1      -0.147   9.616  22.951  0.00  0.00    +0.000 A 
ATOM      4  N   UNL     1       0.518   8.633  22.341  0.00  0.00    +0.000 NA
ATOM      5  N   UNL     1       0.789   9.111  21.087  0.00  0.00    +0.000 N 
ATOM      6  C   UNL     1       1.581   8.351  20.131  0.00  0.00    +0.000 A 
ATOM      7  N   UNL     1       1.872   8.942  18.957  0.00  0.00    +0.000 NA
ATOM      8  C   UNL     1       2.577   8.239  18.062  0.00  0.00    +0.000 A 
ATOM      9  C   UNL     1       3.002   6.944  18.255  0.00  0.00    +0.000 A 
ATOM     10  C   UNL     1       3.737   6.254  17.152  0.00  0.00    +0.000 C 
ATOM     11  C   UNL     1       2.665   6.399  19.489  0.00  0.00    +0.000 A 
ATOM     12  N   UNL     1       1.976   7.098  20.432  0.00  0.00    +0.000 NA
ENDROOT
BRANCH  11  13
ATOM     13  C   UNL     1       2.977   5.002  19.873  0.00  0.00    +0.000 A 
ATOM     14  C   UNL     1       4.003   4.160  19.469  0.00  0.00    +0.000 A 
ATOM     15  C   UNL     1       3.904   2.844  20.011  0.00  0.00    +0.000 A 
ATOM     16  C   UNL     1       2.830   2.721  20.858  0.00  0.00    +0.000 A 
ATOM     17  S   UNL     1       1.941   4.171  20.979  0.00  0.00    +0.000 S 
ENDBRANCH  11  13
BRANCH   2  18
ATOM     18  C   UNL     1      -1.002  12.012  22.413  0.00  0.00    +0.000 C 
ATOM     19  O   UNL     1      -0.322  13.025  22.531  0.00  0.00    +0.000 OA
ATOM     20  N   UNL     1      -2.384  12.027  22.500  0.00  0.00    +0.000 N 
ATOM     21  H   UNL     1      -2.891  11.198  22.220  0.00  0.00    +0.000 HD
BRANCH  20  22
ATOM     22  C   UNL     1      -3.146  13.293  22.615  0.00  0.00    +0.000 C 
ATOM     23  C   UNL     1      -2.755  14.064  23.901  0.00  0.00    +0.000 C 
ATOM     24  C   UNL     1      -2.832  14.195  21.394  0.00  0.00    +0.000 C 
BRANCH  22  25
ATOM     25  C   UNL     1      -4.657  12.981  22.717  0.00  0.00    +0.000 A 
ATOM     26  C   UNL     1      -5.389  12.631  21.567  0.00  0.00    +0.000 A 
ATOM     27  C   UNL     1      -6.722  12.266  21.693  0.00  0.00    +0.000 A 
ATOM     28  N   UNL     1      -7.389  12.237  22.865  0.00  0.00    +0.000 NA
ATOM     29  C   UNL     1      -6.690  12.582  23.960  0.00  0.00    +0.000 A 
ATOM     30  C   UNL     1      -5.352  12.957  23.936  0.00  0.00    +0.000 A 
ENDBRANCH  22  25
ENDBRANCH  20  22
ENDBRANCH   2  18
BRANCH   1  31
ATOM     31  C   UNL     1       0.137  11.100  19.595  0.00  0.00    +0.000 C 
BRANCH  31  33
ATOM     32  C   UNL     1      -1.301  10.128  17.758  0.00  0.00    +0.000 C 
ATOM     33  C   UNL     1      -1.269  11.013  18.992  0.00  0.00    +0.000 C 
ENDBRANCH  31  33
ENDBRANCH   1  31
TORSDOF 6
ENDMDL
MODEL 6
REMARK VINA RESULT:      -7.8      1.917      3.024
REMARK  Name = 
REMARK  10 active torsions:
REMARK  status: ('A' for Active; 'I' for Inactive)
REMARK    1  A    between atoms: C_1  and  C_2
REMARK    2  A    between atoms: C_2  and  C_3
REMARK    3  A    between atoms: C_3  and  C_4
REMARK    4  A    between atoms: C_5  and  C_6
REMARK    5  A    between atoms: N_8  and  C_9
REMARK    6  A    between atoms: C_9  and  C_10
REMARK    7  A    between atoms: C_9  and  C_11
REMARK    8  A    between atoms: C_9  and  C_12
REMARK    9  A    between atoms: C_24  and  C_25
REMARK   10  A    between atoms: C_26  and  C_27
REMARK                            x       y       z     vdW  Elec       q    Type
REMARK                         _______ _______ _______ _____ _____    ______ ____
ROOT
ATOM      1  C   UNL     1       1.212   8.824  19.717  0.00  0.00    +0.000 A 
ATOM      2  C   UNL     1       0.868  10.037  19.125  0.00  0.00    +0.000 A 
ATOM      3  C   UNL     1       1.621  10.061  17.940  0.00  0.00    +0.000 A 
ATOM      4  N   UNL     1       2.360   8.965  17.760  0.00  0.00    +0.000 NA
ATOM      5  N   UNL     1       2.068   8.160  18.828  0.00  0.00    +0.000 N 
ATOM      6  C   UNL     1       2.625   6.820  18.953  0.00  0.00    +0.000 A 
ATOM      7  N   UNL     1       2.207   6.069  19.989  0.00  0.00    +0.000 NA
ATOM      8  C   UNL     1       2.735   4.846  20.127  0.00  0.00    +0.000 A 
ATOM      9  C   UNL     1       3.694   4.318  19.291  0.00  0.00    +0.000 A 
ATOM     10  C   UNL     1       4.238   2.959  19.588  0.00  0.00    +0.000 C 
ATOM     11  C   UNL     1       4.076   5.150  18.245  0.00  0.00    +0.000 A 
ATOM     12  N   UNL     1       3.537   6.385  18.060  0.00  0.00    +0.000 NA
ENDROOT
BRANCH  11  13
ATOM     13  C   UNL     1       5.133   4.795  17.269  0.00  0.00    +0.000 A 
ATOM     14  C   UNL     1       5.048   4.201  16.018  0.00  0.00    +0.000 A 
ATOM     15  C   UNL     1       6.319   3.946  15.422  0.00  0.00    +0.000 A 
ATOM     16  C   UNL     1       7.350   4.396  16.209  0.00  0.00    +0.000 A 
ATOM     17  S   UNL     1       6.790   5.097  17.660  0.00  0.00    +0.000 S 
ENDBRANCH  11  13
BRANCH   2  18
ATOM     18  C   UNL     1      -0.090  10.993  19.661  0.00  0.00    +0.000 C 
ATOM     19  O   UNL     1      -1.193  10.617  20.044  0.00  0.00    +0.000 OA
ATOM     20  N   UNL     1       0.321  12.312  19.752  0.00  0.00    +0.000 N 
ATOM     21  H   UNL     1       1.296  12.523  19.585  0.00  0.00    +0.000 HD
BRANCH  20  22
ATOM     22  C   UNL     1      -0.497  13.341  20.436  0.00  0.00    +0.000 C 
ATOM     23  C   UNL     1      -2.006  13.128  20.159  0.00  0.00    +0.000 C 
ATOM     24  C   UNL     1      -0.267  13.246  21.966  0.00  0.00    +0.000 C 
BRANCH  22  25
ATOM     25  C   UNL     1      -0.131  14.741  19.892  0.00  0.00    +0.000 A 
ATOM     26  C   UNL     1       1.084  14.942  19.209  0.00  0.00    +0.000 A 
ATOM     27  C   UNL     1       1.353  16.183  18.649  0.00  0.00    +0.000 A 
ATOM     28  N   UNL     1       0.523  17.242  18.726  0.00  0.00    +0.000 NA
ATOM     29  C   UNL     1      -0.633  17.049  19.387  0.00  0.00    +0.000 A 
ATOM     30  C   UNL     1      -0.993  15.844  19.977  0.00  0.00    +0.000 A 
ENDBRANCH  22  25
ENDBRANCH  20  22
ENDBRANCH   2  18
BRANCH   1  31
ATOM     31  C   UNL     1       0.829   8.303  21.074  0.00  0.00    +0.000 C 
BRANCH  31  33
ATOM     32  C   UNL     1       0.176   9.527  23.186  0.00  0.00    +0.000 C 
ATOM     33  C   UNL     1       1.274   9.282  22.166  0.00  0.00    +0.000 C 
ENDBRANCH  31  33
ENDBRANCH   1  31
TORSDOF 6
ENDMDL
MODEL 7
REMARK VINA RESULT:      -7.8      0.820      1.187
REMARK  Name = 
REMARK  10 active torsions:
REMARK  status: ('A' for Active; 'I' for Inactive)
REMARK    1  A    between atoms: C_1  and  C_2
REMARK    2  A    between atoms: C_2  and  C_3
REMARK    3  A    between atoms: C_3  and  C_4
REMARK    4  A    between atoms: C_5  and  C_6
REMARK    5  A    between atoms: N_8  and  C_9
REMARK    6  A    between atoms: C_9  and  C_10
REMARK    7  A    between atoms: C_9  and  C_11
REMARK    8  A    between atoms: C_9  and  C_12
REMARK    9  A    between atoms: C_24  and  C_25
REMARK   10  A    between atoms: C_26  and  C_27
REMARK                            x       y       z     vdW  Elec       q    Type
REMARK                         _______ _______ _______ _____ _____    ______ ____
ROOT
ATOM      1  C   UNL     1       1.293   9.224  20.199  0.00  0.00    +0.000 A 
ATOM      2  C   UNL     1       0.901  10.472  19.721  0.00  0.00    +0.000 A 
ATOM      3  C   UNL     1       1.404  10.507  18.411  0.00  0.00    +0.000 A 
ATOM      4  N   UNL     1       2.037   9.387  18.056  0.00  0.00    +0.000 NA
ATOM      5  N   UNL     1       1.921   8.556  19.139  0.00  0.00    +0.000 N 
ATOM      6  C   UNL     1       2.423   7.190  19.114  0.00  0.00    +0.000 A 
ATOM      7  N   UNL     1       2.181   6.420  20.190  0.00  0.00    +0.000 NA
ATOM      8  C   UNL     1       2.663   5.170  20.186  0.00  0.00    +0.000 A 
ATOM      9  C   UNL     1       3.409   4.631  19.161  0.00  0.00    +0.000 A 
ATOM     10  C   UNL     1       3.931   3.239  19.306  0.00  0.00    +0.000 C 
ATOM     11  C   UNL     1       3.618   5.484  18.083  0.00  0.00    +0.000 A 
ATOM     12  N   UNL     1       3.116   6.748  18.044  0.00  0.00    +0.000 NA
ENDROOT
BRANCH  11  13
ATOM     13  C   UNL     1       4.441   5.119  16.907  0.00  0.00    +0.000 A 
ATOM     14  C   UNL     1       4.666   3.889  16.305  0.00  0.00    +0.000 A 
ATOM     15  C   UNL     1       5.603   3.944  15.231  0.00  0.00    +0.000 A 
ATOM     16  C   UNL     1       6.040   5.225  15.001  0.00  0.00    +0.000 A 
ATOM     17  S   UNL     1       5.342   6.344  16.085  0.00  0.00    +0.000 S 
ENDBRANCH  11  13
BRANCH   2  18
ATOM     18  C   UNL     1       0.118  11.449  20.465  0.00  0.00    +0.000 C 
ATOM     19  O   UNL     1       0.650  12.151  21.318  0.00  0.00    +0.000 OA
ATOM     20  N   UNL     1      -1.221  11.567  20.132  0.00  0.00    +0.000 N 
ATOM     21  H   UNL     1      -1.553  11.086  19.306  0.00  0.00    +0.000 HD
BRANCH  20  22
ATOM     22  C   UNL     1      -2.075  12.639  20.694  0.00  0.00    +0.000 C 
ATOM     23  C   UNL     1      -2.066  12.604  22.243  0.00  0.00    +0.000 C 
ATOM     24  C   UNL     1      -1.537  14.018  20.236  0.00  0.00    +0.000 C 
BRANCH  22  25
ATOM     25  C   UNL     1      -3.539  12.423  20.247  0.00  0.00    +0.000 A 
ATOM     26  C   UNL     1      -4.597  12.630  21.152  0.00  0.00    +0.000 A 
ATOM     27  C   UNL     1      -5.907  12.520  20.707  0.00  0.00    +0.000 A 
ATOM     28  N   UNL     1      -6.250  12.205  19.442  0.00  0.00    +0.000 NA
ATOM     29  C   UNL     1      -5.237  11.997  18.581  0.00  0.00    +0.000 A 
ATOM     30  C   UNL     1      -3.896  12.089  18.931  0.00  0.00    +0.000 A 
ENDBRANCH  22  25
ENDBRANCH  20  22
ENDBRANCH   2  18
BRANCH   1  31
ATOM     31  C   UNL     1       1.161   8.671  21.591  0.00  0.00    +0.000 C 
BRANCH  31  33
ATOM     32  C   UNL     1      -0.622   9.405  23.225  0.00  0.00    +0.000 C 
ATOM     33  C   UNL     1      -0.316   8.577  21.989  0.00  0.00    +0.000 C 
ENDBRANCH  31  33
ENDBRANCH   1  31
TORSDOF 6
ENDMDL
MODEL 8
REMARK VINA RESULT:      -7.8      2.027      2.787
REMARK  Name = 
REMARK  10 active torsions:
REMARK  status: ('A' for Active; 'I' for Inactive)
REMARK    1  A    between atoms: C_1  and  C_2
REMARK    2  A    between atoms: C_2  and  C_3
REMARK    3  A    between atoms: C_3  and  C_4
REMARK    4  A    between atoms: C_5  and  C_6
REMARK    5  A    between atoms: N_8  and  C_9
REMARK    6  A    between atoms: C_9  and  C_10
REMARK    7  A    between atoms: C_9  and  C_11
REMARK    8  A    between atoms: C_9  and  C_12
REMARK    9  A    between atoms: C_24  and  C_25
REMARK   10  A    between atoms: C_26  and  C_27
REMARK                            x       y       z     vdW  Elec       q    Type
REMARK                         _______ _______ _______ _____ _____    ______ ____
ROOT
ATOM      1  C   UNL     1       0.885   9.018  19.864  0.00  0.00    +0.000 A 
ATOM      2  C   UNL     1       0.611  10.241  19.257  0.00  0.00    +0.000 A 
ATOM      3  C   UNL     1       1.501  10.288  18.172  0.00  0.00    +0.000 A 
ATOM      4  N   UNL     1       2.261   9.196  18.062  0.00  0.00    +0.000 NA
ATOM      5  N   UNL     1       1.844   8.371  19.073  0.00  0.00    +0.000 N 
ATOM      6  C   UNL     1       2.386   7.030  19.241  0.00  0.00    +0.000 A 
ATOM      7  N   UNL     1       1.850   6.260  20.205  0.00  0.00    +0.000 NA
ATOM      8  C   UNL     1       2.361   5.035  20.383  0.00  0.00    +0.000 A 
ATOM      9  C   UNL     1       3.415   4.523  19.660  0.00  0.00    +0.000 A 
ATOM     10  C   UNL     1       3.924   3.160  19.996  0.00  0.00    +0.000 C 
ATOM     11  C   UNL     1       3.918   5.374  18.683  0.00  0.00    +0.000 A 
ATOM     12  N   UNL     1       3.400   6.612  18.456  0.00  0.00    +0.000 NA
ENDROOT
BRANCH  11  13
ATOM     13  C   UNL     1       5.086   5.039  17.835  0.00  0.00    +0.000 A 
ATOM     14  C   UNL     1       5.152   4.548  16.539  0.00  0.00    +0.000 A 
ATOM     15  C   UNL     1       6.482   4.271  16.104  0.00  0.00    +0.000 A 
ATOM     16  C   UNL     1       7.411   4.602  17.060  0.00  0.00    +0.000 A 
ATOM     17  S   UNL     1       6.682   5.219  18.474  0.00  0.00    +0.000 S 
ENDBRANCH  11  13
BRANCH   2  18
ATOM     18  C   UNL     1      -0.408  11.186  19.691  0.00  0.00    +0.000 C 
ATOM     19  O   UNL     1      -1.578  11.035  19.357  0.00  0.00    +0.000 OA
ATOM     20  N   UNL     1       0.003  12.218  20.518  0.00  0.00    +0.000 N 
ATOM     21  H   UNL     1       0.941  12.185  20.896  0.00  0.00    +0.000 HD
BRANCH  20  22
ATOM     22  C   UNL     1      -0.965  13.138  21.161  0.00  0.00    +0.000 C 
ATOM     23  C   UNL     1      -2.392  12.535  21.159  0.00  0.00    +0.000 C 
ATOM     24  C   UNL     1      -0.543  13.380  22.633  0.00  0.00    +0.000 C 
BRANCH  22  25
ATOM     25  C   UNL     1      -1.032  14.460  20.363  0.00  0.00    +0.000 A 
ATOM     26  C   UNL     1      -1.936  15.472  20.740  0.00  0.00    +0.000 A 
ATOM     27  C   UNL     1      -1.918  16.686  20.068  0.00  0.00    +0.000 A 
ATOM     28  N   UNL     1      -1.087  16.970  19.045  0.00  0.00    +0.000 NA
ATOM     29  C   UNL     1      -0.232  15.998  18.681  0.00  0.00    +0.000 A 
ATOM     30  C   UNL     1      -0.171  14.753  19.295  0.00  0.00    +0.000 A 
ENDBRANCH  22  25
ENDBRANCH  20  22
ENDBRANCH   2  18
BRANCH   1  31
ATOM     31  C   UNL     1       0.343   8.473  21.156  0.00  0.00    +0.000 C 
BRANCH  31  33
ATOM     32  C   UNL     1      -0.222   9.715  23.283  0.00  0.00    +0.000 C 
ATOM     33  C   UNL     1       0.887   9.274  22.344  0.00  0.00    +0.000 C 
ENDBRANCH  31  33
ENDBRANCH   1  31
TORSDOF 6
ENDMDL
MODEL 9
REMARK VINA RESULT:      -7.7      2.027      2.767
REMARK  Name = 
REMARK  10 active torsions:
REMARK  status: ('A' for Active; 'I' for Inactive)
REMARK    1  A    between atoms: C_1  and  C_2
REMARK    2  A    between atoms: C_2  and  C_3
REMARK    3  A    between atoms: C_3  and  C_4
REMARK    4  A    between atoms: C_5  and  C_6
REMARK    5  A    between atoms: N_8  and  C_9
REMARK    6  A    between atoms: C_9  and  C_10
REMARK    7  A    between atoms: C_9  and  C_11
REMARK    8  A    between atoms: C_9  and  C_12
REMARK    9  A    between atoms: C_24  and  C_25
REMARK   10  A    between atoms: C_26  and  C_27
REMARK                            x       y       z     vdW  Elec       q    Type
REMARK                         _______ _______ _______ _____ _____    ______ ____
ROOT
ATOM      1  C   UNL     1       0.966   8.904  19.856  0.00  0.00    +0.000 A 
ATOM      2  C   UNL     1       0.708  10.123  19.234  0.00  0.00    +0.000 A 
ATOM      3  C   UNL     1       1.622  10.160  18.169  0.00  0.00    +0.000 A 
ATOM      4  N   UNL     1       2.382   9.067  18.085  0.00  0.00    +0.000 NA
ATOM      5  N   UNL     1       1.942   8.250  19.092  0.00  0.00    +0.000 N 
ATOM      6  C   UNL     1       2.478   6.909  19.282  0.00  0.00    +0.000 A 
ATOM      7  N   UNL     1       1.918   6.147  20.239  0.00  0.00    +0.000 NA
ATOM      8  C   UNL     1       2.423   4.923  20.438  0.00  0.00    +0.000 A 
ATOM      9  C   UNL     1       3.493   4.404  19.742  0.00  0.00    +0.000 A 
ATOM     10  C   UNL     1       3.992   3.042  20.100  0.00  0.00    +0.000 C 
ATOM     11  C   UNL     1       4.019   5.247  18.770  0.00  0.00    +0.000 A 
ATOM     12  N   UNL     1       3.509   6.484  18.523  0.00  0.00    +0.000 NA
ENDROOT
BRANCH  11  13
ATOM     13  C   UNL     1       5.205   4.904  17.952  0.00  0.00    +0.000 A 
ATOM     14  C   UNL     1       6.559   4.962  18.252  0.00  0.00    +0.000 A 
ATOM     15  C   UNL     1       7.400   4.623  17.150  0.00  0.00    +0.000 A 
ATOM     16  C   UNL     1       6.670   4.265  16.044  0.00  0.00    +0.000 A 
ATOM     17  S   UNL     1       4.990   4.359  16.326  0.00  0.00    +0.000 S 
ENDBRANCH  11  13
BRANCH   2  18
ATOM     18  C   UNL     1      -0.319  11.073  19.638  0.00  0.00    +0.000 C 
ATOM     19  O   UNL     1      -1.476  10.937  19.254  0.00  0.00    +0.000 OA
ATOM     20  N   UNL     1       0.067  12.090  20.495  0.00  0.00    +0.000 N 
ATOM     21  H   UNL     1       0.988  12.043  20.910  0.00  0.00    +0.000 HD
BRANCH  20  22
ATOM     22  C   UNL     1      -0.918  13.011  21.109  0.00  0.00    +0.000 C 
ATOM     23  C   UNL     1      -2.361  12.472  20.948  0.00  0.00    +0.000 C 
ATOM     24  C   UNL     1      -0.618  13.148  22.624  0.00  0.00    +0.000 C 
BRANCH  22  25
ATOM     25  C   UNL     1      -0.865  14.380  20.393  0.00  0.00    +0.000 A 
ATOM     26  C   UNL     1       0.024  14.587  19.321  0.00  0.00    +0.000 A 
ATOM     27  C   UNL     1      -0.006  15.791  18.633  0.00  0.00    +0.000 A 
ATOM     28  N   UNL     1      -0.836  16.811  18.934  0.00  0.00    +0.000 NA
ATOM     29  C   UNL     1      -1.677  16.614  19.964  0.00  0.00    +0.000 A 
ATOM     30  C   UNL     1      -1.724  15.443  20.710  0.00  0.00    +0.000 A 
ENDBRANCH  22  25
ENDBRANCH  20  22
ENDBRANCH   2  18
BRANCH   1  31
ATOM     31  C   UNL     1       0.394   8.369  21.140  0.00  0.00    +0.000 C 
BRANCH  31  33
ATOM     32  C   UNL     1      -0.160   9.625  23.261  0.00  0.00    +0.000 C 
ATOM     33  C   UNL     1       0.947   9.149  22.337  0.00  0.00    +0.000 C 
ENDBRANCH  31  33
ENDBRANCH   1  31
TORSDOF 6
ENDMDL
