MODEL 1
REMARK VINA RESULT:      -7.2      0.000      0.000
REMARK  Name = 
REMARK  7 active torsions:
REMARK  status: ('A' for Active; 'I' for Inactive)
REMARK    1  A    between atoms: C_2  and  C_3
REMARK    2  A    between atoms: C_3  and  O_4
REMARK    3  A    between atoms: O_4  and  C_5
REMARK    4  A    between atoms: C_10  and  C_11
REMARK    5  A    between atoms: C_11  and  N_12
REMARK    6  A    between atoms: N_12  and  C_13
REMARK    7  A    between atoms: C_13  and  C_14
REMARK                            x       y       z     vdW  Elec       q    Type
REMARK                         _______ _______ _______ _____ _____    ______ ____
ROOT
ATOM      1  C   UNL     1       6.307   5.592  16.596  0.00  0.00    +0.000 A 
ATOM      2  C   UNL     1       7.365   6.326  17.160  0.00  0.00    +0.000 A 
ATOM      3  C   UNL     1       7.614   6.305  18.529  0.00  0.00    +0.000 A 
ATOM      4  C   UNL     1       6.796   5.561  19.372  0.00  0.00    +0.000 A 
ATOM      5  C   UNL     1       5.720   4.845  18.856  0.00  0.00    +0.000 A 
ATOM      6  C   UNL     1       5.443   4.832  17.471  0.00  0.00    +0.000 A 
ENDROOT
BRANCH   1   7
ATOM      7  O   UNL     1       6.241   5.667  15.231  0.00  0.00    +0.000 OA
BRANCH   7   8
ATOM      8  C   UNL     1       6.885   4.878  14.312  0.00  0.00    +0.000 C 
BRANCH   8  10
ATOM      9  C   UNL     1       6.249   3.457  12.444  0.00  0.00    +0.000 C 
ATOM     10  C   UNL     1       5.956   3.910  13.667  0.00  0.00    +0.000 C 
ENDBRANCH   8  10
ENDBRANCH   7   8
ENDBRANCH   1   7
BRANCH   6  11
ATOM     11  C   UNL     1       4.252   3.964  17.066  0.00  0.00    +0.000 C 
BRANCH  11  12
ATOM     12  N   UNL     1       4.427   2.569  17.496  0.00  0.00    +0.000 NA
ATOM     13  H   UNL     1       5.006   2.558  18.369  0.00  0.00    +0.000 HD
BRANCH  12  14
ATOM     14  C   UNL     1       3.116   1.976  17.820  0.00  0.00    +0.000 C 
BRANCH  14  15
ATOM     15  C   UNL     1       2.653   2.429  19.174  0.00  0.00    +0.000 A 
ATOM     16  C   UNL     1       1.381   2.998  19.353  0.00  0.00    +0.000 A 
ATOM     17  C   UNL     1       0.972   3.407  20.626  0.00  0.00    +0.000 A 
ATOM     18  C   UNL     1       1.840   3.239  21.708  0.00  0.00    +0.000 A 
ATOM     19  N   UNL     1       3.068   2.683  21.518  0.00  0.00    +0.000 NA
ATOM     20  C   UNL     1       3.486   2.276  20.290  0.00  0.00    +0.000 A 
ENDBRANCH  14  15
ENDBRANCH  12  14
ENDBRANCH  11  12
ENDBRANCH   6  11
TORSDOF 7
ENDMDL
MODEL 2
REMARK VINA RESULT:      -6.7      1.642      3.475
REMARK  Name = 
REMARK  7 active torsions:
REMARK  status: ('A' for Active; 'I' for Inactive)
REMARK    1  A    between atoms: C_2  and  C_3
REMARK    2  A    between atoms: C_3  and  O_4
REMARK    3  A    between atoms: O_4  and  C_5
REMARK    4  A    between atoms: C_10  and  C_11
REMARK    5  A    between atoms: C_11  and  N_12
REMARK    6  A    between atoms: N_12  and  C_13
REMARK    7  A    between atoms: C_13  and  C_14
REMARK                            x       y       z     vdW  Elec       q    Type
REMARK                         _______ _______ _______ _____ _____    ______ ____
ROOT
ATOM      1  C   UNL     1       6.946   4.892  16.927  0.00  0.00    +0.000 A 
ATOM      2  C   UNL     1       7.423   4.838  15.606  0.00  0.00    +0.000 A 
ATOM      3  C   UNL     1       6.595   4.469  14.550  0.00  0.00    +0.000 A 
ATOM      4  C   UNL     1       5.270   4.125  14.794  0.00  0.00    +0.000 A 
ATOM      5  C   UNL     1       4.768   4.138  16.092  0.00  0.00    +0.000 A 
ATOM      6  C   UNL     1       5.574   4.518  17.187  0.00  0.00    +0.000 A 
ENDROOT
BRANCH   1   7
ATOM      7  O   UNL     1       7.867   5.338  17.835  0.00  0.00    +0.000 OA
BRANCH   7   8
ATOM      8  C   UNL     1       7.854   6.514  18.540  0.00  0.00    +0.000 C 
BRANCH   8  10
ATOM      9  C   UNL     1       8.199   8.852  17.968  0.00  0.00    +0.000 C 
ATOM     10  C   UNL     1       7.624   7.688  17.653  0.00  0.00    +0.000 C 
ENDBRANCH   8  10
ENDBRANCH   7   8
ENDBRANCH   1   7
BRANCH   6  11
ATOM     11  C   UNL     1       4.858   4.516  18.538  0.00  0.00    +0.000 C 
BRANCH  11  12
ATOM     12  N   UNL     1       5.363   3.451  19.418  0.00  0.00    +0.000 NA
ATOM     13  H   UNL     1       5.247   3.757  20.413  0.00  0.00    +0.000 HD
BRANCH  12  14
ATOM     14  C   UNL     1       4.565   2.225  19.230  0.00  0.00    +0.000 C 
BRANCH  14  15
ATOM     15  C   UNL     1       3.103   2.517  19.403  0.00  0.00    +0.000 A 
ATOM     16  C   UNL     1       2.591   2.951  20.637  0.00  0.00    +0.000 A 
ATOM     17  C   UNL     1       1.226   3.221  20.772  0.00  0.00    +0.000 A 
ATOM     18  C   UNL     1       0.386   3.055  19.666  0.00  0.00    +0.000 A 
ATOM     19  N   UNL     1       0.898   2.636  18.477  0.00  0.00    +0.000 NA
ATOM     20  C   UNL     1       2.223   2.370  18.323  0.00  0.00    +0.000 A 
ENDBRANCH  14  15
ENDBRANCH  12  14
ENDBRANCH  11  12
ENDBRANCH   6  11
TORSDOF 7
ENDMDL
MODEL 3
REMARK VINA RESULT:      -6.6      1.823      3.016
REMARK  Name = 
REMARK  7 active torsions:
REMARK  status: ('A' for Active; 'I' for Inactive)
REMARK    1  A    between atoms: C_2  and  C_3
REMARK    2  A    between atoms: C_3  and  O_4
REMARK    3  A    between atoms: O_4  and  C_5
REMARK    4  A    between atoms: C_10  and  C_11
REMARK    5  A    between atoms: C_11  and  N_12
REMARK    6  A    between atoms: N_12  and  C_13
REMARK    7  A    between atoms: C_13  and  C_14
REMARK                            x       y       z     vdW  Elec       q    Type
REMARK                         _______ _______ _______ _____ _____    ______ ____
ROOT
ATOM      1  C   UNL     1       4.770   6.411  16.935  0.00  0.00    +0.000 A 
ATOM      2  C   UNL     1       4.213   7.635  17.341  0.00  0.00    +0.000 A 
ATOM      3  C   UNL     1       2.970   7.697  17.964  0.00  0.00    +0.000 A 
ATOM      4  C   UNL     1       2.243   6.531  18.179  0.00  0.00    +0.000 A 
ATOM      5  C   UNL     1       2.747   5.302  17.764  0.00  0.00    +0.000 A 
ATOM      6  C   UNL     1       4.009   5.198  17.140  0.00  0.00    +0.000 A 
ENDROOT
BRANCH   1   7
ATOM      7  O   UNL     1       6.025   6.518  16.401  0.00  0.00    +0.000 OA
BRANCH   7   8
ATOM      8  C   UNL     1       7.210   6.087  16.942  0.00  0.00    +0.000 C 
BRANCH   8  10
ATOM      9  C   UNL     1       7.889   8.305  17.672  0.00  0.00    +0.000 C 
ATOM     10  C   UNL     1       7.710   7.019  17.990  0.00  0.00    +0.000 C 
ENDBRANCH   8  10
ENDBRANCH   7   8
ENDBRANCH   1   7
BRANCH   6  11
ATOM     11  C   UNL     1       4.430   3.772  16.785  0.00  0.00    +0.000 C 
BRANCH  11  12
ATOM     12  N   UNL     1       4.784   2.997  17.983  0.00  0.00    +0.000 NA
ATOM     13  H   UNL     1       4.771   3.638  18.812  0.00  0.00    +0.000 HD
BRANCH  12  14
ATOM     14  C   UNL     1       3.776   1.945  18.214  0.00  0.00    +0.000 C 
BRANCH  14  15
ATOM     15  C   UNL     1       2.958   2.259  19.434  0.00  0.00    +0.000 A 
ATOM     16  C   UNL     1       1.568   2.443  19.347  0.00  0.00    +0.000 A 
ATOM     17  C   UNL     1       0.828   2.730  20.498  0.00  0.00    +0.000 A 
ATOM     18  C   UNL     1       1.488   2.826  21.726  0.00  0.00    +0.000 A 
ATOM     19  N   UNL     1       2.835   2.641  21.794  0.00  0.00    +0.000 NA
ATOM     20  C   UNL     1       3.574   2.360  20.688  0.00  0.00    +0.000 A 
ENDBRANCH  14  15
ENDBRANCH  12  14
ENDBRANCH  11  12
ENDBRANCH   6  11
TORSDOF 7
ENDMDL
MODEL 4
REMARK VINA RESULT:      -6.6      2.856      6.087
REMARK  Name = 
REMARK  7 active torsions:
REMARK  status: ('A' for Active; 'I' for Inactive)
REMARK    1  A    between atoms: C_2  and  C_3
REMARK    2  A    between atoms: C_3  and  O_4
REMARK    3  A    between atoms: O_4  and  C_5
REMARK    4  A    between atoms: C_10  and  C_11
REMARK    5  A    between atoms: C_11  and  N_12
REMARK    6  A    between atoms: N_12  and  C_13
REMARK    7  A    between atoms: C_13  and  C_14
REMARK                            x       y       z     vdW  Elec       q    Type
REMARK                         _______ _______ _______ _____ _____    ______ ____
ROOT
ATOM      1  C   UNL     1       2.451   5.066  19.389  0.00  0.00    +0.000 A 
ATOM      2  C   UNL     1       1.608   4.673  20.443  0.00  0.00    +0.000 A 
ATOM      3  C   UNL     1       1.129   3.370  20.544  0.00  0.00    +0.000 A 
ATOM      4  C   UNL     1       1.469   2.430  19.576  0.00  0.00    +0.000 A 
ATOM      5  C   UNL     1       2.276   2.788  18.501  0.00  0.00    +0.000 A 
ATOM      6  C   UNL     1       2.791   4.097  18.372  0.00  0.00    +0.000 A 
ENDROOT
BRANCH   1   7
ATOM      7  O   UNL     1       2.886   6.360  19.475  0.00  0.00    +0.000 OA
BRANCH   7   8
ATOM      8  C   UNL     1       2.148   7.508  19.335  0.00  0.00    +0.000 C 
BRANCH   8  10
ATOM      9  C   UNL     1       1.857   9.351  17.775  0.00  0.00    +0.000 C 
ATOM     10  C   UNL     1       2.321   8.116  17.986  0.00  0.00    +0.000 C 
ENDBRANCH   8  10
ENDBRANCH   7   8
ENDBRANCH   1   7
BRANCH   6  11
ATOM     11  C   UNL     1       3.692   4.311  17.156  0.00  0.00    +0.000 C 
BRANCH  11  12
ATOM     12  N   UNL     1       4.799   3.343  17.124  0.00  0.00    +0.000 NA
ATOM     13  H   UNL     1       4.456   2.458  16.680  0.00  0.00    +0.000 HD
BRANCH  12  14
ATOM     14  C   UNL     1       5.897   3.866  16.291  0.00  0.00    +0.000 C 
BRANCH  14  15
ATOM     15  C   UNL     1       6.609   4.984  16.997  0.00  0.00    +0.000 A 
ATOM     16  C   UNL     1       7.132   4.808  18.289  0.00  0.00    +0.000 A 
ATOM     17  C   UNL     1       7.795   5.864  18.923  0.00  0.00    +0.000 A 
ATOM     18  C   UNL     1       7.930   7.084  18.255  0.00  0.00    +0.000 A 
ATOM     19  N   UNL     1       7.420   7.236  17.002  0.00  0.00    +0.000 NA
ATOM     20  C   UNL     1       6.774   6.223  16.365  0.00  0.00    +0.000 A 
ENDBRANCH  14  15
ENDBRANCH  12  14
ENDBRANCH  11  12
ENDBRANCH   6  11
TORSDOF 7
ENDMDL
MODEL 5
REMARK VINA RESULT:      -6.6      2.640      5.992
REMARK  Name = 
REMARK  7 active torsions:
REMARK  status: ('A' for Active; 'I' for Inactive)
REMARK    1  A    between atoms: C_2  and  C_3
REMARK    2  A    between atoms: C_3  and  O_4
REMARK    3  A    between atoms: O_4  and  C_5
REMARK    4  A    between atoms: C_10  and  C_11
REMARK    5  A    between atoms: C_11  and  N_12
REMARK    6  A    between atoms: N_12  and  C_13
REMARK    7  A    between atoms: C_13  and  C_14
REMARK                            x       y       z     vdW  Elec       q    Type
REMARK                         _______ _______ _______ _____ _____    ______ ____
ROOT
ATOM      1  C   UNL     1       2.349   4.855  19.375  0.00  0.00    +0.000 A 
ATOM      2  C   UNL     1       1.360   4.292  20.199  0.00  0.00    +0.000 A 
ATOM      3  C   UNL     1       0.802   3.049  19.918  0.00  0.00    +0.000 A 
ATOM      4  C   UNL     1       1.209   2.344  18.790  0.00  0.00    +0.000 A 
ATOM      5  C   UNL     1       2.165   2.881  17.933  0.00  0.00    +0.000 A 
ATOM      6  C   UNL     1       2.763   4.135  18.192  0.00  0.00    +0.000 A 
ENDROOT
BRANCH   1   7
ATOM      7  O   UNL     1       2.840   6.049  19.828  0.00  0.00    +0.000 OA
BRANCH   7   8
ATOM      8  C   UNL     1       2.230   7.277  19.798  0.00  0.00    +0.000 C 
BRANCH   8  10
ATOM      9  C   UNL     1       3.097   8.115  17.686  0.00  0.00    +0.000 C 
ATOM     10  C   UNL     1       2.027   7.759  18.403  0.00  0.00    +0.000 C 
ENDBRANCH   8  10
ENDBRANCH   7   8
ENDBRANCH   1   7
BRANCH   6  11
ATOM     11  C   UNL     1       3.821   4.559  17.174  0.00  0.00    +0.000 C 
BRANCH  11  12
ATOM     12  N   UNL     1       4.779   3.477  16.904  0.00  0.00    +0.000 NA
ATOM     13  H   UNL     1       4.320   2.773  16.277  0.00  0.00    +0.000 HD
BRANCH  12  14
ATOM     14  C   UNL     1       5.953   4.013  16.191  0.00  0.00    +0.000 C 
BRANCH  14  15
ATOM     15  C   UNL     1       6.690   4.997  17.054  0.00  0.00    +0.000 A 
ATOM     16  C   UNL     1       6.795   6.348  16.686  0.00  0.00    +0.000 A 
ATOM     17  C   UNL     1       7.482   7.245  17.510  0.00  0.00    +0.000 A 
ATOM     18  C   UNL     1       8.054   6.779  18.697  0.00  0.00    +0.000 A 
ATOM     19  N   UNL     1       7.940   5.468  19.041  0.00  0.00    +0.000 NA
ATOM     20  C   UNL     1       7.275   4.578  18.256  0.00  0.00    +0.000 A 
ENDBRANCH  14  15
ENDBRANCH  12  14
ENDBRANCH  11  12
ENDBRANCH   6  11
TORSDOF 7
ENDMDL
MODEL 6
REMARK VINA RESULT:      -6.5      2.826      6.390
REMARK  Name = 
REMARK  7 active torsions:
REMARK  status: ('A' for Active; 'I' for Inactive)
REMARK    1  A    between atoms: C_2  and  C_3
REMARK    2  A    between atoms: C_3  and  O_4
REMARK    3  A    between atoms: O_4  and  C_5
REMARK    4  A    between atoms: C_10  and  C_11
REMARK    5  A    between atoms: C_11  and  N_12
REMARK    6  A    between atoms: N_12  and  C_13
REMARK    7  A    between atoms: C_13  and  C_14
REMARK                            x       y       z     vdW  Elec       q    Type
REMARK                         _______ _______ _______ _____ _____    ______ ____
ROOT
ATOM      1  C   UNL     1       2.757   5.052  19.866  0.00  0.00    +0.000 A 
ATOM      2  C   UNL     1       1.504   4.862  20.473  0.00  0.00    +0.000 A 
ATOM      3  C   UNL     1       1.110   3.616  20.954  0.00  0.00    +0.000 A 
ATOM      4  C   UNL     1       1.959   2.522  20.821  0.00  0.00    +0.000 A 
ATOM      5  C   UNL     1       3.196   2.663  20.200  0.00  0.00    +0.000 A 
ATOM      6  C   UNL     1       3.634   3.913  19.710  0.00  0.00    +0.000 A 
ENDROOT
BRANCH   1   7
ATOM      7  O   UNL     1       3.015   6.348  19.511  0.00  0.00    +0.000 OA
BRANCH   7   8
ATOM      8  C   UNL     1       2.546   7.031  18.418  0.00  0.00    +0.000 C 
BRANCH   8  10
ATOM      9  C   UNL     1       1.421   9.114  17.862  0.00  0.00    +0.000 C 
ATOM     10  C   UNL     1       2.078   8.397  18.780  0.00  0.00    +0.000 C 
ENDBRANCH   8  10
ENDBRANCH   7   8
ENDBRANCH   1   7
BRANCH   6  11
ATOM     11  C   UNL     1       5.032   3.902  19.092  0.00  0.00    +0.000 C 
BRANCH  11  12
ATOM     12  N   UNL     1       5.012   3.388  17.714  0.00  0.00    +0.000 NA
ATOM     13  H   UNL     1       4.301   2.621  17.654  0.00  0.00    +0.000 HD
BRANCH  12  14
ATOM     14  C   UNL     1       4.596   4.457  16.787  0.00  0.00    +0.000 C 
BRANCH  14  15
ATOM     15  C   UNL     1       5.575   4.584  15.656  0.00  0.00    +0.000 A 
ATOM     16  C   UNL     1       5.393   3.875  14.457  0.00  0.00    +0.000 A 
ATOM     17  C   UNL     1       6.317   4.015  13.416  0.00  0.00    +0.000 A 
ATOM     18  C   UNL     1       7.413   4.866  13.587  0.00  0.00    +0.000 A 
ATOM     19  N   UNL     1       7.572   5.549  14.754  0.00  0.00    +0.000 NA
ATOM     20  C   UNL     1       6.685   5.430  15.778  0.00  0.00    +0.000 A 
ENDBRANCH  14  15
ENDBRANCH  12  14
ENDBRANCH  11  12
ENDBRANCH   6  11
TORSDOF 7
ENDMDL
MODEL 7
REMARK VINA RESULT:      -6.4      2.656      6.310
REMARK  Name = 
REMARK  7 active torsions:
REMARK  status: ('A' for Active; 'I' for Inactive)
REMARK    1  A    between atoms: C_2  and  C_3
REMARK    2  A    between atoms: C_3  and  O_4
REMARK    3  A    between atoms: O_4  and  C_5
REMARK    4  A    between atoms: C_10  and  C_11
REMARK    5  A    between atoms: C_11  and  N_12
REMARK    6  A    between atoms: N_12  and  C_13
REMARK    7  A    between atoms: C_13  and  C_14
REMARK                            x       y       z     vdW  Elec       q    Type
REMARK                         _______ _______ _______ _____ _____    ______ ____
ROOT
ATOM      1  C   UNL     1       2.295   4.111  19.885  0.00  0.00    +0.000 A 
ATOM      2  C   UNL     1       1.002   3.645  19.595  0.00  0.00    +0.000 A 
ATOM      3  C   UNL     1       0.797   2.500  18.830  0.00  0.00    +0.000 A 
ATOM      4  C   UNL     1       1.886   1.802  18.321  0.00  0.00    +0.000 A 
ATOM      5  C   UNL     1       3.182   2.248  18.562  0.00  0.00    +0.000 A 
ATOM      6  C   UNL     1       3.430   3.398  19.342  0.00  0.00    +0.000 A 
ENDROOT
BRANCH   1   7
ATOM      7  O   UNL     1       2.323   5.208  20.703  0.00  0.00    +0.000 OA
BRANCH   7   8
ATOM      8  C   UNL     1       1.709   6.419  20.510  0.00  0.00    +0.000 C 
BRANCH   8  10
ATOM      9  C   UNL     1       2.213   7.249  18.281  0.00  0.00    +0.000 C 
ATOM     10  C   UNL     1       2.486   7.293  19.588  0.00  0.00    +0.000 C 
ENDBRANCH   8  10
ENDBRANCH   7   8
ENDBRANCH   1   7
BRANCH   6  11
ATOM     11  C   UNL     1       4.910   3.727  19.543  0.00  0.00    +0.000 C 
BRANCH  11  12
ATOM     12  N   UNL     1       5.134   5.177  19.642  0.00  0.00    +0.000 NA
ATOM     13  H   UNL     1       5.168   5.441  20.656  0.00  0.00    +0.000 HD
BRANCH  12  14
ATOM     14  C   UNL     1       6.436   5.525  19.044  0.00  0.00    +0.000 C 
BRANCH  14  15
ATOM     15  C   UNL     1       6.385   5.384  17.550  0.00  0.00    +0.000 A 
ATOM     16  C   UNL     1       5.370   5.999  16.798  0.00  0.00    +0.000 A 
ATOM     17  C   UNL     1       5.348   5.857  15.407  0.00  0.00    +0.000 A 
ATOM     18  C   UNL     1       6.344   5.100  14.783  0.00  0.00    +0.000 A 
ATOM     19  N   UNL     1       7.322   4.514  15.526  0.00  0.00    +0.000 NA
ATOM     20  C   UNL     1       7.365   4.641  16.879  0.00  0.00    +0.000 A 
ENDBRANCH  14  15
ENDBRANCH  12  14
ENDBRANCH  11  12
ENDBRANCH   6  11
TORSDOF 7
ENDMDL
MODEL 8
REMARK VINA RESULT:      -6.4      2.169      3.921
REMARK  Name = 
REMARK  7 active torsions:
REMARK  status: ('A' for Active; 'I' for Inactive)
REMARK    1  A    between atoms: C_2  and  C_3
REMARK    2  A    between atoms: C_3  and  O_4
REMARK    3  A    between atoms: O_4  and  C_5
REMARK    4  A    between atoms: C_10  and  C_11
REMARK    5  A    between atoms: C_11  and  N_12
REMARK    6  A    between atoms: N_12  and  C_13
REMARK    7  A    between atoms: C_13  and  C_14
REMARK                            x       y       z     vdW  Elec       q    Type
REMARK                         _______ _______ _______ _____ _____    ______ ____
ROOT
ATOM      1  C   UNL     1       6.494   6.037  16.495  0.00  0.00    +0.000 A 
ATOM      2  C   UNL     1       7.020   5.115  15.575  0.00  0.00    +0.000 A 
ATOM      3  C   UNL     1       6.319   3.969  15.212  0.00  0.00    +0.000 A 
ATOM      4  C   UNL     1       5.076   3.707  15.780  0.00  0.00    +0.000 A 
ATOM      5  C   UNL     1       4.534   4.581  16.718  0.00  0.00    +0.000 A 
ATOM      6  C   UNL     1       5.210   5.760  17.101  0.00  0.00    +0.000 A 
ENDROOT
BRANCH   1   7
ATOM      7  O   UNL     1       7.277   7.142  16.690  0.00  0.00    +0.000 OA
BRANCH   7   8
ATOM      8  C   UNL     1       7.841   7.579  17.861  0.00  0.00    +0.000 C 
BRANCH   8  10
ATOM      9  C   UNL     1       8.872   9.613  18.706  0.00  0.00    +0.000 C 
ATOM     10  C   UNL     1       7.963   9.063  17.896  0.00  0.00    +0.000 C 
ENDBRANCH   8  10
ENDBRANCH   7   8
ENDBRANCH   1   7
BRANCH   6  11
ATOM     11  C   UNL     1       4.458   6.628  18.110  0.00  0.00    +0.000 C 
BRANCH  11  12
ATOM     12  N   UNL     1       3.003   6.449  18.000  0.00  0.00    +0.000 NA
ATOM     13  H   UNL     1       2.813   5.510  17.577  0.00  0.00    +0.000 HD
BRANCH  12  14
ATOM     14  C   UNL     1       2.393   6.468  19.342  0.00  0.00    +0.000 C 
BRANCH  14  15
ATOM     15  C   UNL     1       2.073   5.072  19.795  0.00  0.00    +0.000 A 
ATOM     16  C   UNL     1       2.306   4.667  21.119  0.00  0.00    +0.000 A 
ATOM     17  C   UNL     1       1.994   3.363  21.516  0.00  0.00    +0.000 A 
ATOM     18  C   UNL     1       1.447   2.478  20.582  0.00  0.00    +0.000 A 
ATOM     19  N   UNL     1       1.224   2.888  19.304  0.00  0.00    +0.000 NA
ATOM     20  C   UNL     1       1.518   4.152  18.896  0.00  0.00    +0.000 A 
ENDBRANCH  14  15
ENDBRANCH  12  14
ENDBRANCH  11  12
ENDBRANCH   6  11
TORSDOF 7
ENDMDL
MODEL 9
REMARK VINA RESULT:      -6.4      1.521      1.755
REMARK  Name = 
REMARK  7 active torsions:
REMARK  status: ('A' for Active; 'I' for Inactive)
REMARK    1  A    between atoms: C_2  and  C_3
REMARK    2  A    between atoms: C_3  and  O_4
REMARK    3  A    between atoms: O_4  and  C_5
REMARK    4  A    between atoms: C_10  and  C_11
REMARK    5  A    between atoms: C_11  and  N_12
REMARK    6  A    between atoms: N_12  and  C_13
REMARK    7  A    between atoms: C_13  and  C_14
REMARK                            x       y       z     vdW  Elec       q    Type
REMARK                         _______ _______ _______ _____ _____    ______ ____
ROOT
ATOM      1  C   UNL     1       6.367   4.432  16.667  0.00  0.00    +0.000 A 
ATOM      2  C   UNL     1       7.635   4.667  17.224  0.00  0.00    +0.000 A 
ATOM      3  C   UNL     1       7.780   5.173  18.513  0.00  0.00    +0.000 A 
ATOM      4  C   UNL     1       6.654   5.474  19.271  0.00  0.00    +0.000 A 
ATOM      5  C   UNL     1       5.380   5.284  18.744  0.00  0.00    +0.000 A 
ATOM      6  C   UNL     1       5.193   4.762  17.445  0.00  0.00    +0.000 A 
ENDROOT
BRANCH   1   7
ATOM      7  O   UNL     1       6.400   3.871  15.420  0.00  0.00    +0.000 OA
BRANCH   7   8
ATOM      8  C   UNL     1       5.983   4.425  14.236  0.00  0.00    +0.000 C 
BRANCH   8  10
ATOM      9  C   UNL     1       5.327   3.336  12.163  0.00  0.00    +0.000 C 
ATOM     10  C   UNL     1       6.281   3.538  13.077  0.00  0.00    +0.000 C 
ENDBRANCH   8  10
ENDBRANCH   7   8
ENDBRANCH   1   7
BRANCH   6  11
ATOM     11  C   UNL     1       3.732   4.578  17.035  0.00  0.00    +0.000 C 
BRANCH  11  12
ATOM     12  N   UNL     1       2.861   5.577  17.672  0.00  0.00    +0.000 NA
ATOM     13  H   UNL     1       2.693   6.356  16.992  0.00  0.00    +0.000 HD
BRANCH  12  14
ATOM     14  C   UNL     1       1.554   4.972  17.990  0.00  0.00    +0.000 C 
BRANCH  14  15
ATOM     15  C   UNL     1       1.644   4.154  19.246  0.00  0.00    +0.000 A 
ATOM     16  C   UNL     1       2.132   4.711  20.440  0.00  0.00    +0.000 A 
ATOM     17  C   UNL     1       2.201   3.929  21.598  0.00  0.00    +0.000 A 
ATOM     18  C   UNL     1       1.777   2.598  21.548  0.00  0.00    +0.000 A 
ATOM     19  N   UNL     1       1.302   2.076  20.385  0.00  0.00    +0.000 NA
ATOM     20  C   UNL     1       1.224   2.818  19.247  0.00  0.00    +0.000 A 
ENDBRANCH  14  15
ENDBRANCH  12  14
ENDBRANCH  11  12
ENDBRANCH   6  11
TORSDOF 7
ENDMDL
