MODEL 1
REMARK VINA RESULT:      -8.2      0.000      0.000
REMARK  Name = 
REMARK  6 active torsions:
REMARK  status: ('A' for Active; 'I' for Inactive)
REMARK    1  A    between atoms: C_1  and  N_2
REMARK    2  A    between atoms: N_2  and  S_3
REMARK    3  A    between atoms: S_3  and  C_6
REMARK    4  A    between atoms: N_13  and  C_14
REMARK    5  A    between atoms: C_14  and  C_15
REMARK    6  A    between atoms: C_15  and  C_16
REMARK                            x       y       z     vdW  Elec       q    Type
REMARK                         _______ _______ _______ _____ _____    ______ ____
ROOT
ATOM      1  C   UNL     1       1.668   8.853  19.170  0.00  0.00    +0.000 A 
ATOM      2  C   UNL     1       1.550   8.302  20.445  0.00  0.00    +0.000 A 
ATOM      3  C   UNL     1       1.789   6.941  20.612  0.00  0.00    +0.000 A 
ATOM      4  C   UNL     1       2.179   6.197  19.506  0.00  0.00    +0.000 A 
ATOM      5  N   UNL     1       2.417   4.838  19.692  0.00  0.00    +0.000 N 
ATOM      6  C   UNL     1       3.033   3.976  18.840  0.00  0.00    +0.000 C 
ATOM      7  O   UNL     1       3.110   2.785  19.135  0.00  0.00    +0.000 OA
ATOM      8  N   UNL     1       3.605   4.518  17.728  0.00  0.00    +0.000 N 
ATOM      9  N   UNL     1       2.324   6.738  18.270  0.00  0.00    +0.000 NA
ATOM     10  C   UNL     1       2.062   8.056  18.120  0.00  0.00    +0.000 A 
ATOM     11  H   UNL     1       2.144   4.403  20.562  0.00  0.00    +0.000 HD
ATOM     12  H   UNL     1       3.236   5.421  17.450  0.00  0.00    +0.000 HD
ENDROOT
BRANCH   1  13
ATOM     13  S   UNL     1       1.258  10.537  18.888  0.00  0.00    +0.000 S 
ATOM     14  O   UNL     1       2.234  11.103  17.984  0.00  0.00    +0.000 OA
ATOM     15  O   UNL     1       0.961  11.121  20.175  0.00  0.00    +0.000 OA
BRANCH  13  17
ATOM     16  C   UNL     1      -1.177  11.467  18.170  0.00  0.00    +0.000 C 
ATOM     17  N   UNL     1      -0.202  10.384  18.061  0.00  0.00    +0.000 NA
ATOM     18  H   UNL     1      -0.091   9.948  17.146  0.00  0.00    +0.000 HD
ENDBRANCH  13  17
ENDBRANCH   1  13
BRANCH   8  19
ATOM     19  C   UNL     1       4.263   3.674  16.781  0.00  0.00    +0.000 C 
BRANCH  19  20
ATOM     20  C   UNL     1       5.456   4.278  16.055  0.00  0.00    +0.000 C 
ATOM     21  C   UNL     1       6.259   3.443  15.069  0.00  0.00    +0.000 C 
ATOM     22  C   UNL     1       5.423   4.581  14.563  0.00  0.00    +0.000 C 
BRANCH  20  23
ATOM     23  C   UNL     1       6.178   5.253  16.978  0.00  0.00    +0.000 A 
ATOM     24  C   UNL     1       7.169   4.798  17.867  0.00  0.00    +0.000 A 
ATOM     25  C   UNL     1       8.013   5.696  18.521  0.00  0.00    +0.000 A 
ATOM     26  C   UNL     1       7.865   7.060  18.303  0.00  0.00    +0.000 A 
ATOM     27  F   UNL     1       8.714   7.915  18.887  0.00  0.00    +0.000 F 
ATOM     28  C   UNL     1       6.871   7.547  17.471  0.00  0.00    +0.000 A 
ATOM     29  C   UNL     1       6.038   6.644  16.821  0.00  0.00    +0.000 A 
ATOM     30  F   UNL     1       5.126   7.122  15.962  0.00  0.00    +0.000 F 
ENDBRANCH  20  23
ENDBRANCH  19  20
ENDBRANCH   8  19
TORSDOF 5
ENDMDL
MODEL 2
REMARK VINA RESULT:      -8.1      0.990      1.111
REMARK  Name = 
REMARK  6 active torsions:
REMARK  status: ('A' for Active; 'I' for Inactive)
REMARK    1  A    between atoms: C_1  and  N_2
REMARK    2  A    between atoms: N_2  and  S_3
REMARK    3  A    between atoms: S_3  and  C_6
REMARK    4  A    between atoms: N_13  and  C_14
REMARK    5  A    between atoms: C_14  and  C_15
REMARK    6  A    between atoms: C_15  and  C_16
REMARK                            x       y       z     vdW  Elec       q    Type
REMARK                         _______ _______ _______ _____ _____    ______ ____
ROOT
ATOM      1  C   UNL     1       1.579   8.878  19.158  0.00  0.00    +0.000 A 
ATOM      2  C   UNL     1       1.514   8.364  20.452  0.00  0.00    +0.000 A 
ATOM      3  C   UNL     1       1.809   7.018  20.655  0.00  0.00    +0.000 A 
ATOM      4  C   UNL     1       2.199   6.255  19.563  0.00  0.00    +0.000 A 
ATOM      5  N   UNL     1       2.493   4.913  19.785  0.00  0.00    +0.000 N 
ATOM      6  C   UNL     1       3.119   4.046  18.945  0.00  0.00    +0.000 C 
ATOM      7  O   UNL     1       3.249   2.869  19.274  0.00  0.00    +0.000 OA
ATOM      8  N   UNL     1       3.642   4.573  17.802  0.00  0.00    +0.000 N 
ATOM      9  N   UNL     1       2.292   6.761  18.307  0.00  0.00    +0.000 NA
ATOM     10  C   UNL     1       1.977   8.062  18.123  0.00  0.00    +0.000 A 
ATOM     11  H   UNL     1       2.259   4.495  20.675  0.00  0.00    +0.000 HD
ATOM     12  H   UNL     1       3.233   5.453  17.505  0.00  0.00    +0.000 HD
ENDROOT
BRANCH   1  13
ATOM     13  S   UNL     1       1.099  10.535  18.834  0.00  0.00    +0.000 S 
ATOM     14  O   UNL     1      -0.246  10.529  18.303  0.00  0.00    +0.000 OA
ATOM     15  O   UNL     1       2.201  11.168  18.147  0.00  0.00    +0.000 OA
BRANCH  13  17
ATOM     16  C   UNL     1       1.311  12.600  20.565  0.00  0.00    +0.000 C 
ATOM     17  N   UNL     1       1.050  11.173  20.392  0.00  0.00    +0.000 NA
ATOM     18  H   UNL     1       0.308  10.764  20.960  0.00  0.00    +0.000 HD
ENDBRANCH  13  17
ENDBRANCH   1  13
BRANCH   8  19
ATOM     19  C   UNL     1       4.307   3.724  16.864  0.00  0.00    +0.000 C 
BRANCH  19  20
ATOM     20  C   UNL     1       5.488   4.334  16.123  0.00  0.00    +0.000 C 
ATOM     21  C   UNL     1       6.290   3.499  15.136  0.00  0.00    +0.000 C 
ATOM     22  C   UNL     1       5.439   4.624  14.628  0.00  0.00    +0.000 C 
BRANCH  20  23
ATOM     23  C   UNL     1       6.209   5.324  17.030  0.00  0.00    +0.000 A 
ATOM     24  C   UNL     1       7.188   4.882  17.938  0.00  0.00    +0.000 A 
ATOM     25  C   UNL     1       8.033   5.789  18.581  0.00  0.00    +0.000 A 
ATOM     26  C   UNL     1       7.896   7.149  18.332  0.00  0.00    +0.000 A 
ATOM     27  F   UNL     1       8.745   8.011  18.904  0.00  0.00    +0.000 F 
ATOM     28  C   UNL     1       6.913   7.624  17.479  0.00  0.00    +0.000 A 
ATOM     29  C   UNL     1       6.079   6.713  16.842  0.00  0.00    +0.000 A 
ATOM     30  F   UNL     1       5.179   7.178  15.964  0.00  0.00    +0.000 F 
ENDBRANCH  20  23
ENDBRANCH  19  20
ENDBRANCH   8  19
TORSDOF 5
ENDMDL
MODEL 3
REMARK VINA RESULT:      -8.0      4.251      7.271
REMARK  Name = 
REMARK  6 active torsions:
REMARK  status: ('A' for Active; 'I' for Inactive)
REMARK    1  A    between atoms: C_1  and  N_2
REMARK    2  A    between atoms: N_2  and  S_3
REMARK    3  A    between atoms: S_3  and  C_6
REMARK    4  A    between atoms: N_13  and  C_14
REMARK    5  A    between atoms: C_14  and  C_15
REMARK    6  A    between atoms: C_15  and  C_16
REMARK                            x       y       z     vdW  Elec       q    Type
REMARK                         _______ _______ _______ _____ _____    ______ ____
ROOT
ATOM      1  C   UNL     1       6.196   3.936  13.878  0.00  0.00    +0.000 A 
ATOM      2  C   UNL     1       7.300   4.670  14.306  0.00  0.00    +0.000 A 
ATOM      3  C   UNL     1       7.374   5.053  15.643  0.00  0.00    +0.000 A 
ATOM      4  C   UNL     1       6.364   4.647  16.504  0.00  0.00    +0.000 A 
ATOM      5  N   UNL     1       6.456   5.035  17.837  0.00  0.00    +0.000 N 
ATOM      6  C   UNL     1       5.740   4.566  18.893  0.00  0.00    +0.000 C 
ATOM      7  O   UNL     1       5.905   5.062  20.006  0.00  0.00    +0.000 OA
ATOM      8  N   UNL     1       4.927   3.498  18.656  0.00  0.00    +0.000 N 
ATOM      9  N   UNL     1       5.302   3.907  16.095  0.00  0.00    +0.000 NA
ATOM     10  C   UNL     1       5.232   3.566  14.789  0.00  0.00    +0.000 A 
ATOM     11  H   UNL     1       7.144   5.725  18.105  0.00  0.00    +0.000 HD
ATOM     12  H   UNL     1       4.655   3.370  17.686  0.00  0.00    +0.000 HD
ENDROOT
BRANCH   1  13
ATOM     13  S   UNL     1       5.997   3.537  12.180  0.00  0.00    +0.000 S 
ATOM     14  O   UNL     1       7.038   4.198  11.426  0.00  0.00    +0.000 OA
ATOM     15  O   UNL     1       4.595   3.696  11.870  0.00  0.00    +0.000 OA
BRANCH  13  17
ATOM     16  C   UNL     1       6.511   1.205  10.912  0.00  0.00    +0.000 C 
ATOM     17  N   UNL     1       6.321   1.883  12.191  0.00  0.00    +0.000 NA
ATOM     18  H   UNL     1       6.933   1.609  12.959  0.00  0.00    +0.000 HD
ENDBRANCH  13  17
ENDBRANCH   1  13
BRANCH   8  19
ATOM     19  C   UNL     1       4.137   2.953  19.714  0.00  0.00    +0.000 C 
BRANCH  19  20
ATOM     20  C   UNL     1       2.632   3.155  19.604  0.00  0.00    +0.000 C 
ATOM     21  C   UNL     1       1.757   2.078  18.980  0.00  0.00    +0.000 C 
ATOM     22  C   UNL     1       1.648   2.357  20.450  0.00  0.00    +0.000 C 
BRANCH  20  23
ATOM     23  C   UNL     1       2.330   4.623  19.330  0.00  0.00    +0.000 A 
ATOM     24  C   UNL     1       2.321   5.561  20.379  0.00  0.00    +0.000 A 
ATOM     25  C   UNL     1       2.306   6.931  20.116  0.00  0.00    +0.000 A 
ATOM     26  C   UNL     1       2.286   7.377  18.800  0.00  0.00    +0.000 A 
ATOM     27  F   UNL     1       2.331   8.692  18.550  0.00  0.00    +0.000 F 
ATOM     28  C   UNL     1       2.248   6.483  17.742  0.00  0.00    +0.000 A 
ATOM     29  C   UNL     1       2.266   5.120  18.015  0.00  0.00    +0.000 A 
ATOM     30  F   UNL     1       2.302   4.264  16.984  0.00  0.00    +0.000 F 
ENDBRANCH  20  23
ENDBRANCH  19  20
ENDBRANCH   8  19
TORSDOF 5
ENDMDL
MODEL 4
REMARK VINA RESULT:      -7.9      2.228      2.984
REMARK  Name = 
REMARK  6 active torsions:
REMARK  status: ('A' for Active; 'I' for Inactive)
REMARK    1  A    between atoms: C_1  and  N_2
REMARK    2  A    between atoms: N_2  and  S_3
REMARK    3  A    between atoms: S_3  and  C_6
REMARK    4  A    between atoms: N_13  and  C_14
REMARK    5  A    between atoms: C_14  and  C_15
REMARK    6  A    between atoms: C_15  and  C_16
REMARK                            x       y       z     vdW  Elec       q    Type
REMARK                         _______ _______ _______ _____ _____    ______ ____
ROOT
ATOM      1  C   UNL     1       0.912  10.148  19.768  0.00  0.00    +0.000 A 
ATOM      2  C   UNL     1       0.417   9.845  21.035  0.00  0.00    +0.000 A 
ATOM      3  C   UNL     1       0.577   8.551  21.526  0.00  0.00    +0.000 A 
ATOM      4  C   UNL     1       1.264   7.629  20.748  0.00  0.00    +0.000 A 
ATOM      5  N   UNL     1       1.417   6.342  21.256  0.00  0.00    +0.000 N 
ATOM      6  C   UNL     1       2.243   5.361  20.806  0.00  0.00    +0.000 C 
ATOM      7  O   UNL     1       2.213   4.252  21.336  0.00  0.00    +0.000 OA
ATOM      8  N   UNL     1       3.124   5.706  19.825  0.00  0.00    +0.000 N 
ATOM      9  N   UNL     1       1.773   7.931  19.527  0.00  0.00    +0.000 NA
ATOM     10  C   UNL     1       1.586   9.183  19.054  0.00  0.00    +0.000 A 
ATOM     11  H   UNL     1       0.894   6.069  22.077  0.00  0.00    +0.000 HD
ATOM     12  H   UNL     1       2.867   6.523  19.281  0.00  0.00    +0.000 HD
ENDROOT
BRANCH   1  13
ATOM     13  S   UNL     1       0.627  11.727  19.056  0.00  0.00    +0.000 S 
ATOM     14  O   UNL     1       0.821  12.733  20.075  0.00  0.00    +0.000 OA
ATOM     15  O   UNL     1      -0.590  11.629  18.284  0.00  0.00    +0.000 OA
BRANCH  13  17
ATOM     16  C   UNL     1       2.766  13.006  18.009  0.00  0.00    +0.000 C 
ATOM     17  N   UNL     1       1.904  11.828  17.961  0.00  0.00    +0.000 NA
ATOM     18  H   UNL     1       2.355  10.927  17.800  0.00  0.00    +0.000 HD
ENDBRANCH  13  17
ENDBRANCH   1  13
BRANCH   8  19
ATOM     19  C   UNL     1       4.019   4.727  19.293  0.00  0.00    +0.000 C 
BRANCH  19  20
ATOM     20  C   UNL     1       3.645   4.135  17.942  0.00  0.00    +0.000 C 
ATOM     21  C   UNL     1       2.934   2.793  17.861  0.00  0.00    +0.000 C 
ATOM     22  C   UNL     1       2.198   4.042  17.475  0.00  0.00    +0.000 C 
BRANCH  20  23
ATOM     23  C   UNL     1       4.718   4.481  16.916  0.00  0.00    +0.000 A 
ATOM     24  C   UNL     1       5.471   3.467  16.296  0.00  0.00    +0.000 A 
ATOM     25  C   UNL     1       6.262   3.740  15.179  0.00  0.00    +0.000 A 
ATOM     26  C   UNL     1       6.318   5.036  14.680  0.00  0.00    +0.000 A 
ATOM     27  F   UNL     1       7.031   5.283  13.574  0.00  0.00    +0.000 F 
ATOM     28  C   UNL     1       5.627   6.069  15.291  0.00  0.00    +0.000 A 
ATOM     29  C   UNL     1       4.840   5.785  16.400  0.00  0.00    +0.000 A 
ATOM     30  F   UNL     1       4.118   6.777  16.941  0.00  0.00    +0.000 F 
ENDBRANCH  20  23
ENDBRANCH  19  20
ENDBRANCH   8  19
TORSDOF 5
ENDMDL
MODEL 5
REMARK VINA RESULT:      -7.5      3.182      4.848
REMARK  Name = 
REMARK  6 active torsions:
REMARK  status: ('A' for Active; 'I' for Inactive)
REMARK    1  A    between atoms: C_1  and  N_2
REMARK    2  A    between atoms: N_2  and  S_3
REMARK    3  A    between atoms: S_3  and  C_6
REMARK    4  A    between atoms: N_13  and  C_14
REMARK    5  A    between atoms: C_14  and  C_15
REMARK    6  A    between atoms: C_15  and  C_16
REMARK                            x       y       z     vdW  Elec       q    Type
REMARK                         _______ _______ _______ _____ _____    ______ ____
ROOT
ATOM      1  C   UNL     1       0.998   9.124  20.178  0.00  0.00    +0.000 A 
ATOM      2  C   UNL     1       1.042   9.844  18.985  0.00  0.00    +0.000 A 
ATOM      3  C   UNL     1       1.912   9.428  17.981  0.00  0.00    +0.000 A 
ATOM      4  C   UNL     1       2.669   8.283  18.195  0.00  0.00    +0.000 A 
ATOM      5  N   UNL     1       3.531   7.880  17.179  0.00  0.00    +0.000 N 
ATOM      6  C   UNL     1       4.172   6.687  17.055  0.00  0.00    +0.000 C 
ATOM      7  O   UNL     1       4.951   6.513  16.120  0.00  0.00    +0.000 OA
ATOM      8  N   UNL     1       3.839   5.717  17.952  0.00  0.00    +0.000 N 
ATOM      9  N   UNL     1       2.605   7.563  19.343  0.00  0.00    +0.000 NA
ATOM     10  C   UNL     1       1.775   7.996  20.318  0.00  0.00    +0.000 A 
ATOM     11  H   UNL     1       3.708   8.503  16.404  0.00  0.00    +0.000 HD
ATOM     12  H   UNL     1       3.431   6.052  18.819  0.00  0.00    +0.000 HD
ENDROOT
BRANCH   1  13
ATOM     13  S   UNL     1       0.009   9.680  21.518  0.00  0.00    +0.000 S 
ATOM     14  O   UNL     1       0.855  10.392  22.449  0.00  0.00    +0.000 OA
ATOM     15  O   UNL     1      -0.823   8.569  21.918  0.00  0.00    +0.000 OA
BRANCH  13  17
ATOM     16  C   UNL     1      -0.802  12.215  21.046  0.00  0.00    +0.000 C 
ATOM     17  N   UNL     1      -0.989  10.797  20.747  0.00  0.00    +0.000 NA
ATOM     18  H   UNL     1      -1.181  10.548  19.777  0.00  0.00    +0.000 HD
ENDBRANCH  13  17
ENDBRANCH   1  13
BRANCH   8  19
ATOM     19  C   UNL     1       4.477   4.440  17.892  0.00  0.00    +0.000 C 
BRANCH  19  20
ATOM     20  C   UNL     1       3.563   3.226  17.972  0.00  0.00    +0.000 C 
ATOM     21  C   UNL     1       2.850   2.717  16.728  0.00  0.00    +0.000 C 
ATOM     22  C   UNL     1       3.939   1.890  17.344  0.00  0.00    +0.000 C 
BRANCH  20  23
ATOM     23  C   UNL     1       2.835   3.219  19.311  0.00  0.00    +0.000 A 
ATOM     24  C   UNL     1       1.468   3.543  19.386  0.00  0.00    +0.000 A 
ATOM     25  C   UNL     1       0.733   3.291  20.545  0.00  0.00    +0.000 A 
ATOM     26  C   UNL     1       1.363   2.724  21.647  0.00  0.00    +0.000 A 
ATOM     27  F   UNL     1       0.642   2.429  22.736  0.00  0.00    +0.000 F 
ATOM     28  C   UNL     1       2.717   2.433  21.626  0.00  0.00    +0.000 A 
ATOM     29  C   UNL     1       3.439   2.685  20.465  0.00  0.00    +0.000 A 
ATOM     30  F   UNL     1       4.733   2.334  20.430  0.00  0.00    +0.000 F 
ENDBRANCH  20  23
ENDBRANCH  19  20
ENDBRANCH   8  19
TORSDOF 5
ENDMDL
MODEL 6
REMARK VINA RESULT:      -7.5      4.099      8.555
REMARK  Name = 
REMARK  6 active torsions:
REMARK  status: ('A' for Active; 'I' for Inactive)
REMARK    1  A    between atoms: C_1  and  N_2
REMARK    2  A    between atoms: N_2  and  S_3
REMARK    3  A    between atoms: S_3  and  C_6
REMARK    4  A    between atoms: N_13  and  C_14
REMARK    5  A    between atoms: C_14  and  C_15
REMARK    6  A    between atoms: C_15  and  C_16
REMARK                            x       y       z     vdW  Elec       q    Type
REMARK                         _______ _______ _______ _____ _____    ______ ____
ROOT
ATOM      1  C   UNL     1       3.297   4.299  19.361  0.00  0.00    +0.000 A 
ATOM      2  C   UNL     1       4.017   4.594  18.205  0.00  0.00    +0.000 A 
ATOM      3  C   UNL     1       3.842   5.838  17.605  0.00  0.00    +0.000 A 
ATOM      4  C   UNL     1       2.989   6.751  18.211  0.00  0.00    +0.000 A 
ATOM      5  N   UNL     1       2.830   7.991  17.599  0.00  0.00    +0.000 N 
ATOM      6  C   UNL     1       2.259   9.110  18.119  0.00  0.00    +0.000 C 
ATOM      7  O   UNL     1       2.143  10.113  17.419  0.00  0.00    +0.000 OA
ATOM      8  N   UNL     1       1.917   9.065  19.438  0.00  0.00    +0.000 N 
ATOM      9  N   UNL     1       2.310   6.476  19.353  0.00  0.00    +0.000 NA
ATOM     10  C   UNL     1       2.470   5.255  19.908  0.00  0.00    +0.000 A 
ATOM     11  H   UNL     1       3.193   8.133  16.666  0.00  0.00    +0.000 HD
ATOM     12  H   UNL     1       1.786   8.134  19.819  0.00  0.00    +0.000 HD
ENDROOT
BRANCH   1  13
ATOM     13  S   UNL     1       3.389   2.702  20.084  0.00  0.00    +0.000 S 
ATOM     14  O   UNL     1       2.628   2.708  21.312  0.00  0.00    +0.000 OA
ATOM     15  O   UNL     1       4.774   2.294  20.031  0.00  0.00    +0.000 OA
BRANCH  13  17
ATOM     16  C   UNL     1       1.144   2.080  18.712  0.00  0.00    +0.000 C 
ATOM     17  N   UNL     1       2.554   1.779  18.948  0.00  0.00    +0.000 NA
ATOM     18  H   UNL     1       3.124   1.550  18.133  0.00  0.00    +0.000 HD
ENDBRANCH  13  17
ENDBRANCH   1  13
BRANCH   8  19
ATOM     19  C   UNL     1       1.304  10.200  20.055  0.00  0.00    +0.000 C 
BRANCH  19  20
ATOM     20  C   UNL     1      -0.108   9.997  20.585  0.00  0.00    +0.000 C 
ATOM     21  C   UNL     1      -0.468   8.730  21.346  0.00  0.00    +0.000 C 
ATOM     22  C   UNL     1      -0.424  10.041  22.074  0.00  0.00    +0.000 C 
BRANCH  20  23
ATOM     23  C   UNL     1      -1.113  10.602  19.612  0.00  0.00    +0.000 A 
ATOM     24  C   UNL     1      -1.525   9.888  18.472  0.00  0.00    +0.000 A 
ATOM     25  C   UNL     1      -2.624  10.307  17.721  0.00  0.00    +0.000 A 
ATOM     26  C   UNL     1      -3.314  11.454  18.096  0.00  0.00    +0.000 A 
ATOM     27  F   UNL     1      -4.403  11.820  17.409  0.00  0.00    +0.000 F 
ATOM     28  C   UNL     1      -2.910  12.207  19.185  0.00  0.00    +0.000 A 
ATOM     29  C   UNL     1      -1.816  11.779  19.928  0.00  0.00    +0.000 A 
ATOM     30  F   UNL     1      -1.476  12.475  21.023  0.00  0.00    +0.000 F 
ENDBRANCH  20  23
ENDBRANCH  19  20
ENDBRANCH   8  19
TORSDOF 5
ENDMDL
MODEL 7
REMARK VINA RESULT:      -7.5      1.089      1.428
REMARK  Name = 
REMARK  6 active torsions:
REMARK  status: ('A' for Active; 'I' for Inactive)
REMARK    1  A    between atoms: C_1  and  N_2
REMARK    2  A    between atoms: N_2  and  S_3
REMARK    3  A    between atoms: S_3  and  C_6
REMARK    4  A    between atoms: N_13  and  C_14
REMARK    5  A    between atoms: C_14  and  C_15
REMARK    6  A    between atoms: C_15  and  C_16
REMARK                            x       y       z     vdW  Elec       q    Type
REMARK                         _______ _______ _______ _____ _____    ______ ____
ROOT
ATOM      1  C   UNL     1       1.653   9.003  19.217  0.00  0.00    +0.000 A 
ATOM      2  C   UNL     1       1.353   8.510  20.486  0.00  0.00    +0.000 A 
ATOM      3  C   UNL     1       1.651   7.181  20.777  0.00  0.00    +0.000 A 
ATOM      4  C   UNL     1       2.277   6.415  19.803  0.00  0.00    +0.000 A 
ATOM      5  N   UNL     1       2.571   5.090  20.112  0.00  0.00    +0.000 N 
ATOM      6  C   UNL     1       3.382   4.236  19.434  0.00  0.00    +0.000 C 
ATOM      7  O   UNL     1       3.488   3.071  19.812  0.00  0.00    +0.000 OA
ATOM      8  N   UNL     1       4.101   4.763  18.403  0.00  0.00    +0.000 N 
ATOM      9  N   UNL     1       2.597   6.902  18.577  0.00  0.00    +0.000 NA
ATOM     10  C   UNL     1       2.277   8.186  18.301  0.00  0.00    +0.000 A 
ATOM     11  H   UNL     1       2.181   4.679  20.949  0.00  0.00    +0.000 HD
ATOM     12  H   UNL     1       3.726   5.620  18.009  0.00  0.00    +0.000 HD
ENDROOT
BRANCH   1  13
ATOM     13  S   UNL     1       1.185  10.633  18.762  0.00  0.00    +0.000 S 
ATOM     14  O   UNL     1       2.271  11.234  18.023  0.00  0.00    +0.000 OA
ATOM     15  O   UNL     1       0.610  11.250  19.935  0.00  0.00    +0.000 OA
BRANCH  13  17
ATOM     16  C   UNL     1      -1.446  10.356  18.204  0.00  0.00    +0.000 C 
ATOM     17  N   UNL     1      -0.078  10.324  17.691  0.00  0.00    +0.000 NA
ATOM     18  H   UNL     1       0.082  10.728  16.769  0.00  0.00    +0.000 HD
ENDBRANCH  13  17
ENDBRANCH   1  13
BRANCH   8  19
ATOM     19  C   UNL     1       4.969   3.926  17.637  0.00  0.00    +0.000 C 
BRANCH  19  20
ATOM     20  C   UNL     1       5.689   4.590  16.472  0.00  0.00    +0.000 C 
ATOM     21  C   UNL     1       6.086   3.775  15.249  0.00  0.00    +0.000 C 
ATOM     22  C   UNL     1       5.011   4.813  15.126  0.00  0.00    +0.000 C 
BRANCH  20  23
ATOM     23  C   UNL     1       6.632   5.666  16.997  0.00  0.00    +0.000 A 
ATOM     24  C   UNL     1       6.406   7.023  16.701  0.00  0.00    +0.000 A 
ATOM     25  C   UNL     1       7.095   8.030  17.378  0.00  0.00    +0.000 A 
ATOM     26  C   UNL     1       8.027   7.688  18.350  0.00  0.00    +0.000 A 
ATOM     27  F   UNL     1       8.643   8.657  19.040  0.00  0.00    +0.000 F 
ATOM     28  C   UNL     1       8.309   6.362  18.636  0.00  0.00    +0.000 A 
ATOM     29  C   UNL     1       7.616   5.368  17.958  0.00  0.00    +0.000 A 
ATOM     30  F   UNL     1       7.843   4.089  18.293  0.00  0.00    +0.000 F 
ENDBRANCH  20  23
ENDBRANCH  19  20
ENDBRANCH   8  19
TORSDOF 5
ENDMDL
MODEL 8
REMARK VINA RESULT:      -7.4      2.055      2.756
REMARK  Name = 
REMARK  6 active torsions:
REMARK  status: ('A' for Active; 'I' for Inactive)
REMARK    1  A    between atoms: C_1  and  N_2
REMARK    2  A    between atoms: N_2  and  S_3
REMARK    3  A    between atoms: S_3  and  C_6
REMARK    4  A    between atoms: N_13  and  C_14
REMARK    5  A    between atoms: C_14  and  C_15
REMARK    6  A    between atoms: C_15  and  C_16
REMARK                            x       y       z     vdW  Elec       q    Type
REMARK                         _______ _______ _______ _____ _____    ______ ____
ROOT
ATOM      1  C   UNL     1       1.053  10.120  19.952  0.00  0.00    +0.000 A 
ATOM      2  C   UNL     1       0.509   9.771  21.187  0.00  0.00    +0.000 A 
ATOM      3  C   UNL     1       0.618   8.452  21.620  0.00  0.00    +0.000 A 
ATOM      4  C   UNL     1       1.304   7.548  20.820  0.00  0.00    +0.000 A 
ATOM      5  N   UNL     1       1.405   6.235  21.270  0.00  0.00    +0.000 N 
ATOM      6  C   UNL     1       2.218   5.252  20.798  0.00  0.00    +0.000 C 
ATOM      7  O   UNL     1       2.140   4.121  21.273  0.00  0.00    +0.000 OA
ATOM      8  N   UNL     1       3.139   5.617  19.862  0.00  0.00    +0.000 N 
ATOM      9  N   UNL     1       1.859   7.892  19.631  0.00  0.00    +0.000 NA
ATOM     10  C   UNL     1       1.723   9.170  19.213  0.00  0.00    +0.000 A 
ATOM     11  H   UNL     1       0.849   5.938  22.060  0.00  0.00    +0.000 HD
ATOM     12  H   UNL     1       2.922   6.466  19.350  0.00  0.00    +0.000 HD
ENDROOT
BRANCH   1  13
ATOM     13  S   UNL     1       0.835  11.739  19.309  0.00  0.00    +0.000 S 
ATOM     14  O   UNL     1       1.628  11.867  18.107  0.00  0.00    +0.000 OA
ATOM     15  O   UNL     1       0.955  12.654  20.419  0.00  0.00    +0.000 OA
BRANCH  13  17
ATOM     16  C   UNL     1      -1.248  10.619  17.998  0.00  0.00    +0.000 C 
ATOM     17  N   UNL     1      -0.791  11.700  18.868  0.00  0.00    +0.000 NA
ATOM     18  H   UNL     1      -1.410  11.978  19.630  0.00  0.00    +0.000 HD
ENDBRANCH  13  17
ENDBRANCH   1  13
BRANCH   8  19
ATOM     19  C   UNL     1       4.023   4.639  19.312  0.00  0.00    +0.000 C 
BRANCH  19  20
ATOM     20  C   UNL     1       3.647   4.084  17.945  0.00  0.00    +0.000 C 
ATOM     21  C   UNL     1       2.927   2.748  17.830  0.00  0.00    +0.000 C 
ATOM     22  C   UNL     1       2.200   4.011  17.475  0.00  0.00    +0.000 C 
BRANCH  20  23
ATOM     23  C   UNL     1       4.722   4.449  16.929  0.00  0.00    +0.000 A 
ATOM     24  C   UNL     1       5.479   3.446  16.295  0.00  0.00    +0.000 A 
ATOM     25  C   UNL     1       6.274   3.740  15.186  0.00  0.00    +0.000 A 
ATOM     26  C   UNL     1       6.330   5.044  14.708  0.00  0.00    +0.000 A 
ATOM     27  F   UNL     1       7.046   5.311  13.609  0.00  0.00    +0.000 F 
ATOM     28  C   UNL     1       5.635   6.065  15.334  0.00  0.00    +0.000 A 
ATOM     29  C   UNL     1       4.844   5.762  16.436  0.00  0.00    +0.000 A 
ATOM     30  F   UNL     1       4.118   6.743  16.991  0.00  0.00    +0.000 F 
ENDBRANCH  20  23
ENDBRANCH  19  20
ENDBRANCH   8  19
TORSDOF 5
ENDMDL
MODEL 9
REMARK VINA RESULT:      -7.4      4.301      7.419
REMARK  Name = 
REMARK  6 active torsions:
REMARK  status: ('A' for Active; 'I' for Inactive)
REMARK    1  A    between atoms: C_1  and  N_2
REMARK    2  A    between atoms: N_2  and  S_3
REMARK    3  A    between atoms: S_3  and  C_6
REMARK    4  A    between atoms: N_13  and  C_14
REMARK    5  A    between atoms: C_14  and  C_15
REMARK    6  A    between atoms: C_15  and  C_16
REMARK                            x       y       z     vdW  Elec       q    Type
REMARK                         _______ _______ _______ _____ _____    ______ ____
ROOT
ATOM      1  C   UNL     1       6.182   3.969  13.728  0.00  0.00    +0.000 A 
ATOM      2  C   UNL     1       7.376   4.471  14.241  0.00  0.00    +0.000 A 
ATOM      3  C   UNL     1       7.453   4.761  15.601  0.00  0.00    +0.000 A 
ATOM      4  C   UNL     1       6.347   4.496  16.397  0.00  0.00    +0.000 A 
ATOM      5  N   UNL     1       6.442   4.790  17.754  0.00  0.00    +0.000 N 
ATOM      6  C   UNL     1       5.606   4.399  18.753  0.00  0.00    +0.000 C 
ATOM      7  O   UNL     1       5.802   4.797  19.899  0.00  0.00    +0.000 OA
ATOM      8  N   UNL     1       4.631   3.507  18.420  0.00  0.00    +0.000 N 
ATOM      9  N   UNL     1       5.193   3.980  15.904  0.00  0.00    +0.000 NA
ATOM     10  C   UNL     1       5.126   3.728  14.578  0.00  0.00    +0.000 A 
ATOM     11  H   UNL     1       7.227   5.331  18.090  0.00  0.00    +0.000 HD
ATOM     12  H   UNL     1       4.387   3.482  17.435  0.00  0.00    +0.000 HD
ENDROOT
BRANCH   1  13
ATOM     13  S   UNL     1       5.997   3.704  12.003  0.00  0.00    +0.000 S 
ATOM     14  O   UNL     1       7.075   4.377  11.315  0.00  0.00    +0.000 OA
ATOM     15  O   UNL     1       4.608   3.940  11.685  0.00  0.00    +0.000 OA
BRANCH  13  17
ATOM     16  C   UNL     1       7.271   1.557  10.965  0.00  0.00    +0.000 C 
ATOM     17  N   UNL     1       6.256   2.042  11.897  0.00  0.00    +0.000 NA
ATOM     18  H   UNL     1       6.196   1.578  12.802  0.00  0.00    +0.000 HD
ENDBRANCH  13  17
ENDBRANCH   1  13
BRANCH   8  19
ATOM     19  C   UNL     1       3.708   3.055  19.412  0.00  0.00    +0.000 C 
BRANCH  19  20
ATOM     20  C   UNL     1       2.294   3.613  19.322  0.00  0.00    +0.000 C 
ATOM     21  C   UNL     1       1.224   2.869  18.537  0.00  0.00    +0.000 C 
ATOM     22  C   UNL     1       1.120   2.952  20.032  0.00  0.00    +0.000 C 
BRANCH  20  23
ATOM     23  C   UNL     1       2.346   5.135  19.268  0.00  0.00    +0.000 A 
ATOM     24  C   UNL     1       2.328   5.809  18.033  0.00  0.00    +0.000 A 
ATOM     25  C   UNL     1       2.112   7.187  17.971  0.00  0.00    +0.000 A 
ATOM     26  C   UNL     1       1.925   7.906  19.145  0.00  0.00    +0.000 A 
ATOM     27  F   UNL     1       1.660   9.216  19.078  0.00  0.00    +0.000 F 
ATOM     28  C   UNL     1       1.982   7.283  20.381  0.00  0.00    +0.000 A 
ATOM     29  C   UNL     1       2.194   5.911  20.432  0.00  0.00    +0.000 A 
ATOM     30  F   UNL     1       2.175   5.306  21.629  0.00  0.00    +0.000 F 
ENDBRANCH  20  23
ENDBRANCH  19  20
ENDBRANCH   8  19
TORSDOF 5
ENDMDL
