MODEL 1
REMARK VINA RESULT:      -7.0      0.000      0.000
REMARK  Name = 
REMARK  4 active torsions:
REMARK  status: ('A' for Active; 'I' for Inactive)
REMARK    1  A    between atoms: C_1  and  C_2
REMARK    2  A    between atoms: C_7  and  C_8
REMARK    3  A    between atoms: C_10  and  C_11
REMARK    4  A    between atoms: C_15  and  C_16
REMARK                            x       y       z     vdW  Elec       q    Type
REMARK                         _______ _______ _______ _____ _____    ______ ____
ROOT
ATOM      1  C   UNL     1      -0.370  11.306  19.080  0.00  0.00    +0.000 C 
ATOM      2  O   UNL     1       0.070  12.433  19.877  0.00  0.00    +0.000 OA
ATOM      3  C   UNL     1      -0.713  12.653  21.058  0.00  0.00    +0.000 C 
ATOM      4  C   UNL     1       0.007  13.679  21.931  0.00  0.00    +0.000 C 
ATOM      5  C   UNL     1      -2.104  13.131  20.654  0.00  0.00    +0.000 C 
ATOM      6  N   UNL     1      -2.652  12.251  19.632  0.00  0.00    +0.000 N 
ATOM      7  C   UNL     1      -1.863  11.438  18.849  0.00  0.00    +0.000 A 
ATOM      8  C   UNL     1      -2.700  10.875  17.883  0.00  0.00    +0.000 A 
ATOM      9  C   UNL     1      -2.322   9.965  16.770  0.00  0.00    +0.000 C 
ATOM     10  C   UNL     1      -4.027  11.342  18.144  0.00  0.00    +0.000 A 
ATOM     11  C   UNL     1      -5.273  11.118  17.519  0.00  0.00    +0.000 A 
ATOM     12  C   UNL     1      -6.416  11.765  17.997  0.00  0.00    +0.000 A 
ATOM     13  C   UNL     1      -6.335  12.622  19.090  0.00  0.00    +0.000 A 
ATOM     14  C   UNL     1      -5.113  12.857  19.733  0.00  0.00    +0.000 A 
ATOM     15  C   UNL     1      -3.971  12.203  19.241  0.00  0.00    +0.000 A 
ENDROOT
BRANCH   1  22
ATOM     16  C   UNL     1       1.800   9.598  17.804  0.00  0.00    +0.000 C 
ATOM     17  C   UNL     1       1.229   9.283  19.164  0.00  0.00    +0.000 A 
ATOM     18  C   UNL     1       1.810   8.226  19.890  0.00  0.00    +0.000 A 
ATOM     19  C   UNL     1       1.311   7.858  21.138  0.00  0.00    +0.000 A 
ATOM     20  C   UNL     1       0.170   8.477  21.630  0.00  0.00    +0.000 A 
ATOM     21  C   UNL     1      -0.434   9.512  20.912  0.00  0.00    +0.000 A 
ATOM     22  C   UNL     1       0.133   9.994  19.715  0.00  0.00    +0.000 A 
ENDBRANCH   1  22
TORSDOF 1
ENDMDL
MODEL 2
REMARK VINA RESULT:      -6.8      6.694     10.624
REMARK  Name = 
REMARK  4 active torsions:
REMARK  status: ('A' for Active; 'I' for Inactive)
REMARK    1  A    between atoms: C_1  and  C_2
REMARK    2  A    between atoms: C_7  and  C_8
REMARK    3  A    between atoms: C_10  and  C_11
REMARK    4  A    between atoms: C_15  and  C_16
REMARK                            x       y       z     vdW  Elec       q    Type
REMARK                         _______ _______ _______ _____ _____    ______ ____
ROOT
ATOM      1  C   UNL     1       5.314   5.293  18.031  0.00  0.00    +0.000 C 
ATOM      2  O   UNL     1       6.497   5.930  18.572  0.00  0.00    +0.000 OA
ATOM      3  C   UNL     1       7.025   6.977  17.746  0.00  0.00    +0.000 C 
ATOM      4  C   UNL     1       8.086   7.732  18.543  0.00  0.00    +0.000 C 
ATOM      5  C   UNL     1       7.602   6.366  16.473  0.00  0.00    +0.000 C 
ATOM      6  N   UNL     1       6.634   5.457  15.877  0.00  0.00    +0.000 N 
ATOM      7  C   UNL     1       5.598   4.900  16.594  0.00  0.00    +0.000 A 
ATOM      8  C   UNL     1       4.987   3.964  15.756  0.00  0.00    +0.000 A 
ATOM      9  C   UNL     1       3.852   3.060  16.076  0.00  0.00    +0.000 C 
ATOM     10  C   UNL     1       5.663   4.014  14.496  0.00  0.00    +0.000 A 
ATOM     11  C   UNL     1       5.498   3.317  13.279  0.00  0.00    +0.000 A 
ATOM     12  C   UNL     1       6.364   3.568  12.211  0.00  0.00    +0.000 A 
ATOM     13  C   UNL     1       7.384   4.507  12.338  0.00  0.00    +0.000 A 
ATOM     14  C   UNL     1       7.567   5.217  13.531  0.00  0.00    +0.000 A 
ATOM     15  C   UNL     1       6.691   4.953  14.598  0.00  0.00    +0.000 A 
ENDROOT
BRANCH   1  22
ATOM     16  C   UNL     1       3.308   4.708  20.242  0.00  0.00    +0.000 C 
ATOM     17  C   UNL     1       3.232   5.958  19.401  0.00  0.00    +0.000 A 
ATOM     18  C   UNL     1       2.260   6.917  19.742  0.00  0.00    +0.000 A 
ATOM     19  C   UNL     1       2.110   8.080  18.987  0.00  0.00    +0.000 A 
ATOM     20  C   UNL     1       2.863   8.251  17.833  0.00  0.00    +0.000 A 
ATOM     21  C   UNL     1       3.816   7.297  17.468  0.00  0.00    +0.000 A 
ATOM     22  C   UNL     1       4.081   6.183  18.288  0.00  0.00    +0.000 A 
ENDBRANCH   1  22
TORSDOF 1
ENDMDL
MODEL 3
REMARK VINA RESULT:      -6.5      6.844     10.599
REMARK  Name = 
REMARK  4 active torsions:
REMARK  status: ('A' for Active; 'I' for Inactive)
REMARK    1  A    between atoms: C_1  and  C_2
REMARK    2  A    between atoms: C_7  and  C_8
REMARK    3  A    between atoms: C_10  and  C_11
REMARK    4  A    between atoms: C_15  and  C_16
REMARK                            x       y       z     vdW  Elec       q    Type
REMARK                         _______ _______ _______ _____ _____    ______ ____
ROOT
ATOM      1  C   UNL     1       4.766   4.212  18.642  0.00  0.00    +0.000 C 
ATOM      2  O   UNL     1       5.957   4.438  19.435  0.00  0.00    +0.000 OA
ATOM      3  C   UNL     1       6.742   5.557  19.001  0.00  0.00    +0.000 C 
ATOM      4  C   UNL     1       7.801   5.846  20.063  0.00  0.00    +0.000 C 
ATOM      5  C   UNL     1       7.371   5.233  17.650  0.00  0.00    +0.000 C 
ATOM      6  N   UNL     1       6.354   4.725  16.740  0.00  0.00    +0.000 N 
ATOM      7  C   UNL     1       5.162   4.193  17.179  0.00  0.00    +0.000 A 
ATOM      8  C   UNL     1       4.522   3.662  16.057  0.00  0.00    +0.000 A 
ATOM      9  C   UNL     1       3.228   2.933  16.008  0.00  0.00    +0.000 C 
ATOM     10  C   UNL     1       5.350   3.937  14.923  0.00  0.00    +0.000 A 
ATOM     11  C   UNL     1       5.231   3.654  13.545  0.00  0.00    +0.000 A 
ATOM     12  C   UNL     1       6.253   4.028  12.668  0.00  0.00    +0.000 A 
ATOM     13  C   UNL     1       7.383   4.686  13.143  0.00  0.00    +0.000 A 
ATOM     14  C   UNL     1       7.525   4.984  14.504  0.00  0.00    +0.000 A 
ATOM     15  C   UNL     1       6.491   4.600  15.376  0.00  0.00    +0.000 A 
ENDROOT
BRANCH   1  22
ATOM     16  C   UNL     1       2.761   3.598  20.847  0.00  0.00    +0.000 C 
ATOM     17  C   UNL     1       2.824   4.947  20.174  0.00  0.00    +0.000 A 
ATOM     18  C   UNL     1       1.994   5.968  20.674  0.00  0.00    +0.000 A 
ATOM     19  C   UNL     1       1.976   7.228  20.079  0.00  0.00    +0.000 A 
ATOM     20  C   UNL     1       2.713   7.453  18.924  0.00  0.00    +0.000 A 
ATOM     21  C   UNL     1       3.525   6.444  18.401  0.00  0.00    +0.000 A 
ATOM     22  C   UNL     1       3.666   5.208  19.063  0.00  0.00    +0.000 A 
ENDBRANCH   1  22
TORSDOF 1
ENDMDL
MODEL 4
REMARK VINA RESULT:      -6.4      1.831      6.007
REMARK  Name = 
REMARK  4 active torsions:
REMARK  status: ('A' for Active; 'I' for Inactive)
REMARK    1  A    between atoms: C_1  and  C_2
REMARK    2  A    between atoms: C_7  and  C_8
REMARK    3  A    between atoms: C_10  and  C_11
REMARK    4  A    between atoms: C_15  and  C_16
REMARK                            x       y       z     vdW  Elec       q    Type
REMARK                         _______ _______ _______ _____ _____    ______ ____
ROOT
ATOM      1  C   UNL     1      -0.842  12.495  21.161  0.00  0.00    +0.000 C 
ATOM      2  O   UNL     1      -0.359  13.710  20.536  0.00  0.00    +0.000 OA
ATOM      3  C   UNL     1      -0.322  13.654  19.103  0.00  0.00    +0.000 C 
ATOM      4  C   UNL     1      -0.060  15.061  18.571  0.00  0.00    +0.000 C 
ATOM      5  C   UNL     1       0.763  12.674  18.670  0.00  0.00    +0.000 C 
ATOM      6  N   UNL     1       0.615  11.419  19.393  0.00  0.00    +0.000 N 
ATOM      7  C   UNL     1      -0.075  11.322  20.581  0.00  0.00    +0.000 A 
ATOM      8  C   UNL     1       0.133  10.028  21.063  0.00  0.00    +0.000 A 
ATOM      9  C   UNL     1      -0.358   9.441  22.337  0.00  0.00    +0.000 C 
ATOM     10  C   UNL     1       0.934   9.338  20.099  0.00  0.00    +0.000 A 
ATOM     11  C   UNL     1       1.455   8.028  20.033  0.00  0.00    +0.000 A 
ATOM     12  C   UNL     1       2.256   7.652  18.949  0.00  0.00    +0.000 A 
ATOM     13  C   UNL     1       2.534   8.560  17.933  0.00  0.00    +0.000 A 
ATOM     14  C   UNL     1       2.026   9.864  17.969  0.00  0.00    +0.000 A 
ATOM     15  C   UNL     1       1.224  10.230  19.065  0.00  0.00    +0.000 A 
ENDROOT
BRANCH   1  22
ATOM     16  C   UNL     1      -2.622  12.646  23.623  0.00  0.00    +0.000 C 
ATOM     17  C   UNL     1      -3.188  12.640  22.225  0.00  0.00    +0.000 A 
ATOM     18  C   UNL     1      -4.577  12.820  22.079  0.00  0.00    +0.000 A 
ATOM     19  C   UNL     1      -5.171  12.791  20.819  0.00  0.00    +0.000 A 
ATOM     20  C   UNL     1      -4.402  12.488  19.704  0.00  0.00    +0.000 A 
ATOM     21  C   UNL     1      -3.026  12.284  19.833  0.00  0.00    +0.000 A 
ATOM     22  C   UNL     1      -2.381  12.444  21.075  0.00  0.00    +0.000 A 
ENDBRANCH   1  22
TORSDOF 1
ENDMDL
MODEL 5
REMARK VINA RESULT:      -6.4      1.003      1.396
REMARK  Name = 
REMARK  4 active torsions:
REMARK  status: ('A' for Active; 'I' for Inactive)
REMARK    1  A    between atoms: C_1  and  C_2
REMARK    2  A    between atoms: C_7  and  C_8
REMARK    3  A    between atoms: C_10  and  C_11
REMARK    4  A    between atoms: C_15  and  C_16
REMARK                            x       y       z     vdW  Elec       q    Type
REMARK                         _______ _______ _______ _____ _____    ______ ____
ROOT
ATOM      1  C   UNL     1      -0.003  11.195  18.914  0.00  0.00    +0.000 C 
ATOM      2  O   UNL     1       0.949  12.228  19.268  0.00  0.00    +0.000 OA
ATOM      3  C   UNL     1       0.754  12.777  20.579  0.00  0.00    +0.000 C 
ATOM      4  C   UNL     1       1.964  13.643  20.924  0.00  0.00    +0.000 C 
ATOM      5  C   UNL     1      -0.541  13.583  20.595  0.00  0.00    +0.000 C 
ATOM      6  N   UNL     1      -1.622  12.793  20.024  0.00  0.00    +0.000 N 
ATOM      7  C   UNL     1      -1.399  11.717  19.194  0.00  0.00    +0.000 A 
ATOM      8  C   UNL     1      -2.647  11.316  18.711  0.00  0.00    +0.000 A 
ATOM      9  C   UNL     1      -2.942  10.229  17.741  0.00  0.00    +0.000 C 
ATOM     10  C   UNL     1      -3.630  12.161  19.318  0.00  0.00    +0.000 A 
ATOM     11  C   UNL     1      -5.037  12.234  19.221  0.00  0.00    +0.000 A 
ATOM     12  C   UNL     1      -5.731  13.220  19.927  0.00  0.00    +0.000 A 
ATOM     13  C   UNL     1      -5.045  14.126  20.730  0.00  0.00    +0.000 A 
ATOM     14  C   UNL     1      -3.651  14.073  20.849  0.00  0.00    +0.000 A 
ATOM     15  C   UNL     1      -2.964  13.078  20.132  0.00  0.00    +0.000 A 
ENDROOT
BRANCH   1  22
ATOM     16  C   UNL     1       1.999   9.277  17.663  0.00  0.00    +0.000 C 
ATOM     17  C   UNL     1       1.426   9.051  19.040  0.00  0.00    +0.000 A 
ATOM     18  C   UNL     1       1.931   7.972  19.791  0.00  0.00    +0.000 A 
ATOM     19  C   UNL     1       1.424   7.685  21.057  0.00  0.00    +0.000 A 
ATOM     20  C   UNL     1       0.345   8.409  21.544  0.00  0.00    +0.000 A 
ATOM     21  C   UNL     1      -0.184   9.468  20.803  0.00  0.00    +0.000 A 
ATOM     22  C   UNL     1       0.401   9.866  19.584  0.00  0.00    +0.000 A 
ENDBRANCH   1  22
TORSDOF 1
ENDMDL
MODEL 6
REMARK VINA RESULT:      -6.3      1.226      1.418
REMARK  Name = 
REMARK  4 active torsions:
REMARK  status: ('A' for Active; 'I' for Inactive)
REMARK    1  A    between atoms: C_1  and  C_2
REMARK    2  A    between atoms: C_7  and  C_8
REMARK    3  A    between atoms: C_10  and  C_11
REMARK    4  A    between atoms: C_15  and  C_16
REMARK                            x       y       z     vdW  Elec       q    Type
REMARK                         _______ _______ _______ _____ _____    ______ ____
ROOT
ATOM      1  C   UNL     1      -1.080  12.180  19.992  0.00  0.00    +0.000 C 
ATOM      2  O   UNL     1      -0.902  13.428  20.705  0.00  0.00    +0.000 OA
ATOM      3  C   UNL     1      -1.879  13.659  21.730  0.00  0.00    +0.000 C 
ATOM      4  C   UNL     1      -1.426  14.852  22.570  0.00  0.00    +0.000 C 
ATOM      5  C   UNL     1      -3.236  13.908  21.080  0.00  0.00    +0.000 C 
ATOM      6  N   UNL     1      -3.514  12.867  20.101  0.00  0.00    +0.000 N 
ATOM      7  C   UNL     1      -2.525  12.091  19.538  0.00  0.00    +0.000 A 
ATOM      8  C   UNL     1      -3.131  11.331  18.536  0.00  0.00    +0.000 A 
ATOM      9  C   UNL     1      -2.483  10.373  17.602  0.00  0.00    +0.000 C 
ATOM     10  C   UNL     1      -4.528  11.642  18.550  0.00  0.00    +0.000 A 
ATOM     11  C   UNL     1      -5.627  11.197  17.785  0.00  0.00    +0.000 A 
ATOM     12  C   UNL     1      -6.898  11.732  18.018  0.00  0.00    +0.000 A 
ATOM     13  C   UNL     1      -7.086  12.695  19.004  0.00  0.00    +0.000 A 
ATOM     14  C   UNL     1      -6.014  13.151  19.781  0.00  0.00    +0.000 A 
ATOM     15  C   UNL     1      -4.742  12.608  19.536  0.00  0.00    +0.000 A 
ENDROOT
BRANCH   1  22
ATOM     16  C   UNL     1       0.914  10.157  18.903  0.00  0.00    +0.000 C 
ATOM     17  C   UNL     1       0.485  10.160  20.349  0.00  0.00    +0.000 A 
ATOM     18  C   UNL     1       1.123   9.260  21.223  0.00  0.00    +0.000 A 
ATOM     19  C   UNL     1       0.753   9.186  22.565  0.00  0.00    +0.000 A 
ATOM     20  C   UNL     1      -0.319   9.939  23.024  0.00  0.00    +0.000 A 
ATOM     21  C   UNL     1      -0.979  10.820  22.165  0.00  0.00    +0.000 A 
ATOM     22  C   UNL     1      -0.534  11.014  20.841  0.00  0.00    +0.000 A 
ENDBRANCH   1  22
TORSDOF 1
ENDMDL
MODEL 7
REMARK VINA RESULT:      -6.3      2.666      6.498
REMARK  Name = 
REMARK  4 active torsions:
REMARK  status: ('A' for Active; 'I' for Inactive)
REMARK    1  A    between atoms: C_1  and  C_2
REMARK    2  A    between atoms: C_7  and  C_8
REMARK    3  A    between atoms: C_10  and  C_11
REMARK    4  A    between atoms: C_15  and  C_16
REMARK                            x       y       z     vdW  Elec       q    Type
REMARK                         _______ _______ _______ _____ _____    ______ ____
ROOT
ATOM      1  C   UNL     1      -5.218  13.574  20.217  0.00  0.00    +0.000 C 
ATOM      2  O   UNL     1      -6.139  14.161  19.264  0.00  0.00    +0.000 OA
ATOM      3  C   UNL     1      -6.795  13.203  18.421  0.00  0.00    +0.000 C 
ATOM      4  C   UNL     1      -7.917  13.913  17.666  0.00  0.00    +0.000 C 
ATOM      5  C   UNL     1      -5.771  12.592  17.470  0.00  0.00    +0.000 C 
ATOM      6  N   UNL     1      -4.603  12.149  18.217  0.00  0.00    +0.000 N 
ATOM      7  C   UNL     1      -4.293  12.633  19.469  0.00  0.00    +0.000 A 
ATOM      8  C   UNL     1      -3.037  12.120  19.799  0.00  0.00    +0.000 A 
ATOM      9  C   UNL     1      -2.239  12.385  21.024  0.00  0.00    +0.000 C 
ATOM     10  C   UNL     1      -2.626  11.272  18.722  0.00  0.00    +0.000 A 
ATOM     11  C   UNL     1      -1.473  10.492  18.489  0.00  0.00    +0.000 A 
ATOM     12  C   UNL     1      -1.343   9.785  17.290  0.00  0.00    +0.000 A 
ATOM     13  C   UNL     1      -2.347   9.840  16.328  0.00  0.00    +0.000 A 
ATOM     14  C   UNL     1      -3.503  10.601  16.535  0.00  0.00    +0.000 A 
ATOM     15  C   UNL     1      -3.621  11.309  17.743  0.00  0.00    +0.000 A 
ENDROOT
BRANCH   1  22
ATOM     16  C   UNL     1      -4.645  14.365  23.097  0.00  0.00    +0.000 C 
ATOM     17  C   UNL     1      -5.800  13.469  22.728  0.00  0.00    +0.000 A 
ATOM     18  C   UNL     1      -6.689  13.090  23.752  0.00  0.00    +0.000 A 
ATOM     19  C   UNL     1      -7.758  12.236  23.488  0.00  0.00    +0.000 A 
ATOM     20  C   UNL     1      -7.896  11.678  22.224  0.00  0.00    +0.000 A 
ATOM     21  C   UNL     1      -7.010  12.026  21.202  0.00  0.00    +0.000 A 
ATOM     22  C   UNL     1      -6.005  12.992  21.408  0.00  0.00    +0.000 A 
ENDBRANCH   1  22
TORSDOF 1
ENDMDL
MODEL 8
REMARK VINA RESULT:      -6.2     10.615     12.373
REMARK  Name = 
REMARK  4 active torsions:
REMARK  status: ('A' for Active; 'I' for Inactive)
REMARK    1  A    between atoms: C_1  and  C_2
REMARK    2  A    between atoms: C_7  and  C_8
REMARK    3  A    between atoms: C_10  and  C_11
REMARK    4  A    between atoms: C_15  and  C_16
REMARK                            x       y       z     vdW  Elec       q    Type
REMARK                         _______ _______ _______ _____ _____    ______ ____
ROOT
ATOM      1  C   UNL     1       8.577  13.670  20.366  0.00  0.00    +0.000 C 
ATOM      2  O   UNL     1       8.528  14.960  19.706  0.00  0.00    +0.000 OA
ATOM      3  C   UNL     1       9.546  15.874  20.138  0.00  0.00    +0.000 C 
ATOM      4  C   UNL     1       9.552  17.072  19.191  0.00  0.00    +0.000 C 
ATOM      5  C   UNL     1       9.264  16.292  21.577  0.00  0.00    +0.000 C 
ATOM      6  N   UNL     1       9.020  15.114  22.397  0.00  0.00    +0.000 N 
ATOM      7  C   UNL     1       8.644  13.901  21.863  0.00  0.00    +0.000 A 
ATOM      8  C   UNL     1       8.338  13.065  22.939  0.00  0.00    +0.000 A 
ATOM      9  C   UNL     1       7.834  11.668  22.892  0.00  0.00    +0.000 C 
ATOM     10  C   UNL     1       8.592  13.804  24.138  0.00  0.00    +0.000 A 
ATOM     11  C   UNL     1       8.473  13.494  25.510  0.00  0.00    +0.000 A 
ATOM     12  C   UNL     1       8.766  14.467  26.470  0.00  0.00    +0.000 A 
ATOM     13  C   UNL     1       9.183  15.737  26.082  0.00  0.00    +0.000 A 
ATOM     14  C   UNL     1       9.315  16.069  24.728  0.00  0.00    +0.000 A 
ATOM     15  C   UNL     1       9.014  15.084  23.773  0.00  0.00    +0.000 A 
ENDROOT
BRANCH   1  22
ATOM     16  C   UNL     1       8.375  12.554  17.543  0.00  0.00    +0.000 C 
ATOM     17  C   UNL     1       9.623  12.403  18.377  0.00  0.00    +0.000 A 
ATOM     18  C   UNL     1      10.750  11.820  17.768  0.00  0.00    +0.000 A 
ATOM     19  C   UNL     1      11.926  11.618  18.490  0.00  0.00    +0.000 A 
ATOM     20  C   UNL     1      11.956  11.908  19.847  0.00  0.00    +0.000 A 
ATOM     21  C   UNL     1      10.839  12.466  20.472  0.00  0.00    +0.000 A 
ATOM     22  C   UNL     1       9.688  12.806  19.734  0.00  0.00    +0.000 A 
ENDBRANCH   1  22
TORSDOF 1
ENDMDL
MODEL 9
REMARK VINA RESULT:      -6.2      4.767      7.005
REMARK  Name = 
REMARK  4 active torsions:
REMARK  status: ('A' for Active; 'I' for Inactive)
REMARK    1  A    between atoms: C_1  and  C_2
REMARK    2  A    between atoms: C_7  and  C_8
REMARK    3  A    between atoms: C_10  and  C_11
REMARK    4  A    between atoms: C_15  and  C_16
REMARK                            x       y       z     vdW  Elec       q    Type
REMARK                         _______ _______ _______ _____ _____    ______ ____
ROOT
ATOM      1  C   UNL     1      -7.230  13.009  21.243  0.00  0.00    +0.000 C 
ATOM      2  O   UNL     1      -7.507  11.679  20.740  0.00  0.00    +0.000 OA
ATOM      3  C   UNL     1      -6.709  11.307  19.607  0.00  0.00    +0.000 C 
ATOM      4  C   UNL     1      -6.903   9.814  19.350  0.00  0.00    +0.000 C 
ATOM      5  C   UNL     1      -7.126  12.146  18.404  0.00  0.00    +0.000 C 
ATOM      6  N   UNL     1      -7.164  13.554  18.772  0.00  0.00    +0.000 N 
ATOM      7  C   UNL     1      -7.271  13.979  20.078  0.00  0.00    +0.000 A 
ATOM      8  C   UNL     1      -7.447  15.364  20.038  0.00  0.00    +0.000 A 
ATOM      9  C   UNL     1      -7.661  16.288  21.181  0.00  0.00    +0.000 C 
ATOM     10  C   UNL     1      -7.394  15.761  18.664  0.00  0.00    +0.000 A 
ATOM     11  C   UNL     1      -7.504  17.007  18.010  0.00  0.00    +0.000 A 
ATOM     12  C   UNL     1      -7.447  17.067  16.615  0.00  0.00    +0.000 A 
ATOM     13  C   UNL     1      -7.276  15.907  15.867  0.00  0.00    +0.000 A 
ATOM     14  C   UNL     1      -7.158  14.658  16.488  0.00  0.00    +0.000 A 
ATOM     15  C   UNL     1      -7.219  14.611  17.892  0.00  0.00    +0.000 A 
ENDROOT
BRANCH   1  22
ATOM     16  C   UNL     1      -7.278  13.224  24.277  0.00  0.00    +0.000 C 
ATOM     17  C   UNL     1      -6.005  12.962  23.513  0.00  0.00    +0.000 A 
ATOM     18  C   UNL     1      -4.837  12.704  24.255  0.00  0.00    +0.000 A 
ATOM     19  C   UNL     1      -3.618  12.487  23.614  0.00  0.00    +0.000 A 
ATOM     20  C   UNL     1      -3.535  12.620  22.235  0.00  0.00    +0.000 A 
ATOM     21  C   UNL     1      -4.679  12.897  21.485  0.00  0.00    +0.000 A 
ATOM     22  C   UNL     1      -5.946  12.984  22.096  0.00  0.00    +0.000 A 
ENDBRANCH   1  22
TORSDOF 1
ENDMDL
