MODEL 1
REMARK VINA RESULT:      -8.6      0.000      0.000
REMARK  Name = 
REMARK  7 active torsions:
REMARK  status: ('A' for Active; 'I' for Inactive)
REMARK    1  A    between atoms: C_1  and  O_2
REMARK    2  A    between atoms: O_2  and  C_3
REMARK    3  A    between atoms: C_3  and  C_4
REMARK    4  A    between atoms: C_7  and  C_9
REMARK    5  A    between atoms: C_14  and  O_15
REMARK    6  A    between atoms: O_15  and  C_16
REMARK    7  A    between atoms: C_19  and  C_20
REMARK                            x       y       z     vdW  Elec       q    Type
REMARK                         _______ _______ _______ _____ _____    ______ ____
ROOT
ATOM      1  C   UNL     1       2.640   6.981  19.297  0.00  0.00    +0.000 A 
ATOM      2  C   UNL     1       2.685   7.493  18.006  0.00  0.00    +0.000 A 
ATOM      3  C   UNL     1       1.954   8.646  17.727  0.00  0.00    +0.000 A 
ATOM      4  C   UNL     1       1.187   9.252  18.735  0.00  0.00    +0.000 A 
ATOM      5  C   UNL     1       0.393  10.394  18.511  0.00  0.00    +0.000 A 
ATOM      6  C   UNL     1      -0.374  10.936  19.543  0.00  0.00    +0.000 A 
ATOM      7  C   UNL     1      -0.395  10.301  20.784  0.00  0.00    +0.000 A 
ATOM      8  C   UNL     1       0.420   9.193  21.014  0.00  0.00    +0.000 A 
ATOM      9  C   UNL     1       1.222   8.664  20.018  0.00  0.00    +0.000 A 
ATOM     10  N   UNL     1       1.961   7.588  20.301  0.00  0.00    +0.000 NA
ENDROOT
BRANCH   1  14
ATOM     11  C   UNL     1       2.831   2.140  19.084  0.00  0.00    +0.000 C 
ATOM     12  C   UNL     1       3.235   3.244  20.097  0.00  0.00    +0.000 C 
ATOM     13  N   UNL     1       2.560   4.513  19.801  0.00  0.00    +0.000 N 
ATOM     14  C   UNL     1       3.315   5.670  19.595  0.00  0.00    +0.000 C 
ATOM     15  O   UNL     1       4.554   5.661  19.591  0.00  0.00    +0.000 OA
ATOM     16  C   UNL     1       1.097   4.387  19.713  0.00  0.00    +0.000 C 
ATOM     17  C   UNL     1       0.668   3.239  18.787  0.00  0.00    +0.000 C 
ATOM     18  N   UNL     1       1.355   1.965  19.026  0.00  0.00    +0.000 NA
ATOM     19  H   UNL     1       1.114   1.307  18.286  0.00  0.00    +0.000 HD
BRANCH  11  20
ATOM     20  C   UNL     1       3.463   2.398  17.697  0.00  0.00    +0.000 C 
BRANCH  20  22
ATOM     21  C   UNL     1       5.046   3.860  16.731  0.00  0.00    +0.000 C 
ATOM     22  O   UNL     1       4.719   3.059  17.858  0.00  0.00    +0.000 OA
ENDBRANCH  20  22
ENDBRANCH  11  20
ENDBRANCH   1  14
BRANCH   6  23
ATOM     23  O   UNL     1      -1.138  12.042  19.248  0.00  0.00    +0.000 OA
BRANCH  23  24
ATOM     24  C   UNL     1      -2.507  11.864  19.073  0.00  0.00    +0.000 A 
ATOM     25  C   UNL     1      -3.344  12.519  19.962  0.00  0.00    +0.000 A 
ATOM     26  C   UNL     1      -4.724  12.366  19.809  0.00  0.00    +0.000 A 
ATOM     27  C   UNL     1      -5.221  11.561  18.780  0.00  0.00    +0.000 A 
ATOM     28  C   UNL     1      -4.301  10.939  17.950  0.00  0.00    +0.000 A 
ATOM     29  N   UNL     1      -2.963  11.059  18.086  0.00  0.00    +0.000 NA
BRANCH  27  30
ATOM     30  C   UNL     1      -6.683  11.336  18.543  0.00  0.00    +0.000 C 
ATOM     31  F   UNL     1      -7.028  10.021  18.490  0.00  0.00    +0.000 F 
ATOM     32  F   UNL     1      -7.460  11.888  19.515  0.00  0.00    +0.000 F 
ATOM     33  F   UNL     1      -7.108  11.882  17.370  0.00  0.00    +0.000 F 
ENDBRANCH  27  30
ENDBRANCH  23  24
ENDBRANCH   6  23
TORSDOF 6
ENDMDL
MODEL 2
REMARK VINA RESULT:      -8.6      0.497      1.071
REMARK  Name = 
REMARK  7 active torsions:
REMARK  status: ('A' for Active; 'I' for Inactive)
REMARK    1  A    between atoms: C_1  and  O_2
REMARK    2  A    between atoms: O_2  and  C_3
REMARK    3  A    between atoms: C_3  and  C_4
REMARK    4  A    between atoms: C_7  and  C_9
REMARK    5  A    between atoms: C_14  and  O_15
REMARK    6  A    between atoms: O_15  and  C_16
REMARK    7  A    between atoms: C_19  and  C_20
REMARK                            x       y       z     vdW  Elec       q    Type
REMARK                         _______ _______ _______ _____ _____    ______ ____
ROOT
ATOM      1  C   UNL     1       2.726   6.964  19.247  0.00  0.00    +0.000 A 
ATOM      2  C   UNL     1       2.841   7.499  17.969  0.00  0.00    +0.000 A 
ATOM      3  C   UNL     1       2.129   8.660  17.674  0.00  0.00    +0.000 A 
ATOM      4  C   UNL     1       1.311   9.250  18.651  0.00  0.00    +0.000 A 
ATOM      5  C   UNL     1       0.533  10.398  18.405  0.00  0.00    +0.000 A 
ATOM      6  C   UNL     1      -0.287  10.924  19.406  0.00  0.00    +0.000 A 
ATOM      7  C   UNL     1      -0.375  10.267  20.632  0.00  0.00    +0.000 A 
ATOM      8  C   UNL     1       0.423   9.152  20.884  0.00  0.00    +0.000 A 
ATOM      9  C   UNL     1       1.276   8.639  19.923  0.00  0.00    +0.000 A 
ATOM     10  N   UNL     1       1.997   7.555  20.224  0.00  0.00    +0.000 NA
ENDROOT
BRANCH   1  14
ATOM     11  C   UNL     1       2.865   2.121  19.037  0.00  0.00    +0.000 C 
ATOM     12  C   UNL     1       3.265   3.220  20.056  0.00  0.00    +0.000 C 
ATOM     13  N   UNL     1       2.609   4.496  19.750  0.00  0.00    +0.000 N 
ATOM     14  C   UNL     1       3.381   5.645  19.557  0.00  0.00    +0.000 C 
ATOM     15  O   UNL     1       4.619   5.622  19.573  0.00  0.00    +0.000 OA
ATOM     16  C   UNL     1       1.146   4.388  19.637  0.00  0.00    +0.000 C 
ATOM     17  C   UNL     1       0.719   3.245  18.704  0.00  0.00    +0.000 C 
ATOM     18  N   UNL     1       1.388   1.963  18.955  0.00  0.00    +0.000 NA
ATOM     19  H   UNL     1       1.152   1.307  18.211  0.00  0.00    +0.000 HD
BRANCH  11  20
ATOM     20  C   UNL     1       3.523   2.371  17.661  0.00  0.00    +0.000 C 
BRANCH  20  22
ATOM     21  C   UNL     1       5.105   3.842  16.707  0.00  0.00    +0.000 C 
ATOM     22  O   UNL     1       4.764   3.056  17.840  0.00  0.00    +0.000 OA
ENDBRANCH  20  22
ENDBRANCH  11  20
ENDBRANCH   1  14
BRANCH   6  23
ATOM     23  O   UNL     1      -1.031  12.038  19.091  0.00  0.00    +0.000 OA
BRANCH  23  24
ATOM     24  C   UNL     1      -2.405  11.883  18.932  0.00  0.00    +0.000 A 
ATOM     25  C   UNL     1      -2.833  11.196  17.808  0.00  0.00    +0.000 A 
ATOM     26  C   UNL     1      -4.205  11.018  17.623  0.00  0.00    +0.000 A 
ATOM     27  C   UNL     1      -5.104  11.534  18.561  0.00  0.00    +0.000 A 
ATOM     28  C   UNL     1      -4.576  12.215  19.647  0.00  0.00    +0.000 A 
ATOM     29  N   UNL     1      -3.255  12.415  19.841  0.00  0.00    +0.000 NA
BRANCH  27  30
ATOM     30  C   UNL     1      -6.591  11.394  18.443  0.00  0.00    +0.000 C 
ATOM     31  F   UNL     1      -7.082  11.817  17.246  0.00  0.00    +0.000 F 
ATOM     32  F   UNL     1      -7.005  10.105  18.583  0.00  0.00    +0.000 F 
ATOM     33  F   UNL     1      -7.256  12.106  19.393  0.00  0.00    +0.000 F 
ENDBRANCH  27  30
ENDBRANCH  23  24
ENDBRANCH   6  23
TORSDOF 6
ENDMDL
MODEL 3
REMARK VINA RESULT:      -8.4      2.483      3.283
REMARK  Name = 
REMARK  7 active torsions:
REMARK  status: ('A' for Active; 'I' for Inactive)
REMARK    1  A    between atoms: C_1  and  O_2
REMARK    2  A    between atoms: O_2  and  C_3
REMARK    3  A    between atoms: C_3  and  C_4
REMARK    4  A    between atoms: C_7  and  C_9
REMARK    5  A    between atoms: C_14  and  O_15
REMARK    6  A    between atoms: O_15  and  C_16
REMARK    7  A    between atoms: C_19  and  C_20
REMARK                            x       y       z     vdW  Elec       q    Type
REMARK                         _______ _______ _______ _____ _____    ______ ____
ROOT
ATOM      1  C   UNL     1       2.153   7.166  18.534  0.00  0.00    +0.000 A 
ATOM      2  C   UNL     1       2.083   8.236  17.650  0.00  0.00    +0.000 A 
ATOM      3  C   UNL     1       1.686   9.477  18.145  0.00  0.00    +0.000 A 
ATOM      4  C   UNL     1       1.355   9.617  19.503  0.00  0.00    +0.000 A 
ATOM      5  C   UNL     1       0.907  10.832  20.058  0.00  0.00    +0.000 A 
ATOM      6  C   UNL     1       0.562  10.906  21.409  0.00  0.00    +0.000 A 
ATOM      7  C   UNL     1       0.607   9.752  22.190  0.00  0.00    +0.000 A 
ATOM      8  C   UNL     1       1.086   8.560  21.646  0.00  0.00    +0.000 A 
ATOM      9  C   UNL     1       1.475   8.474  20.321  0.00  0.00    +0.000 A 
ATOM     10  N   UNL     1       1.904   7.296  19.860  0.00  0.00    +0.000 NA
ENDROOT
BRANCH   1  14
ATOM     11  C   UNL     1       4.901   3.174  18.361  0.00  0.00    +0.000 C 
ATOM     12  C   UNL     1       4.050   4.005  17.365  0.00  0.00    +0.000 C 
ATOM     13  N   UNL     1       3.774   5.347  17.888  0.00  0.00    +0.000 N 
ATOM     14  C   UNL     1       2.455   5.790  18.005  0.00  0.00    +0.000 C 
ATOM     15  O   UNL     1       1.486   5.064  17.740  0.00  0.00    +0.000 OA
ATOM     16  C   UNL     1       4.988   6.079  18.283  0.00  0.00    +0.000 C 
ATOM     17  C   UNL     1       5.897   5.244  19.198  0.00  0.00    +0.000 C 
ATOM     18  N   UNL     1       6.159   3.879  18.726  0.00  0.00    +0.000 NA
ATOM     19  H   UNL     1       6.648   3.359  19.453  0.00  0.00    +0.000 HD
BRANCH  11  20
ATOM     20  C   UNL     1       4.065   2.753  19.592  0.00  0.00    +0.000 C 
BRANCH  20  22
ATOM     21  C   UNL     1       1.782   2.463  20.119  0.00  0.00    +0.000 C 
ATOM     22  O   UNL     1       2.806   2.233  19.162  0.00  0.00    +0.000 OA
ENDBRANCH  20  22
ENDBRANCH  11  20
ENDBRANCH   1  14
BRANCH   6  23
ATOM     23  O   UNL     1       0.117  12.120  21.881  0.00  0.00    +0.000 OA
BRANCH  23  24
ATOM     24  C   UNL     1      -1.257  12.323  21.968  0.00  0.00    +0.000 A 
ATOM     25  C   UNL     1      -1.897  12.786  20.829  0.00  0.00    +0.000 A 
ATOM     26  C   UNL     1      -3.277  12.994  20.883  0.00  0.00    +0.000 A 
ATOM     27  C   UNL     1      -3.970  12.739  22.069  0.00  0.00    +0.000 A 
ATOM     28  C   UNL     1      -3.238  12.289  23.156  0.00  0.00    +0.000 A 
ATOM     29  N   UNL     1      -1.902  12.094  23.136  0.00  0.00    +0.000 NA
BRANCH  27  30
ATOM     30  C   UNL     1      -5.448  12.937  22.219  0.00  0.00    +0.000 C 
ATOM     31  F   UNL     1      -5.882  12.831  23.504  0.00  0.00    +0.000 F 
ATOM     32  F   UNL     1      -5.857  14.160  21.784  0.00  0.00    +0.000 F 
ATOM     33  F   UNL     1      -6.168  12.027  21.506  0.00  0.00    +0.000 F 
ENDBRANCH  27  30
ENDBRANCH  23  24
ENDBRANCH   6  23
TORSDOF 6
ENDMDL
MODEL 4
REMARK VINA RESULT:      -8.3      2.776      3.652
REMARK  Name = 
REMARK  7 active torsions:
REMARK  status: ('A' for Active; 'I' for Inactive)
REMARK    1  A    between atoms: C_1  and  O_2
REMARK    2  A    between atoms: O_2  and  C_3
REMARK    3  A    between atoms: C_3  and  C_4
REMARK    4  A    between atoms: C_7  and  C_9
REMARK    5  A    between atoms: C_14  and  O_15
REMARK    6  A    between atoms: O_15  and  C_16
REMARK    7  A    between atoms: C_19  and  C_20
REMARK                            x       y       z     vdW  Elec       q    Type
REMARK                         _______ _______ _______ _____ _____    ______ ____
ROOT
ATOM      1  C   UNL     1       2.135   7.186  18.543  0.00  0.00    +0.000 A 
ATOM      2  C   UNL     1       2.144   8.214  17.608  0.00  0.00    +0.000 A 
ATOM      3  C   UNL     1       1.792   9.494  18.032  0.00  0.00    +0.000 A 
ATOM      4  C   UNL     1       1.428   9.715  19.370  0.00  0.00    +0.000 A 
ATOM      5  C   UNL     1       1.021  10.974  19.854  0.00  0.00    +0.000 A 
ATOM      6  C   UNL     1       0.640  11.130  21.188  0.00  0.00    +0.000 A 
ATOM      7  C   UNL     1       0.606  10.014  22.023  0.00  0.00    +0.000 A 
ATOM      8  C   UNL     1       1.044   8.776  21.551  0.00  0.00    +0.000 A 
ATOM      9  C   UNL     1       1.468   8.608  20.244  0.00  0.00    +0.000 A 
ATOM     10  N   UNL     1       1.853   7.391  19.852  0.00  0.00    +0.000 NA
ENDROOT
BRANCH   1  14
ATOM     11  C   UNL     1       4.788   3.125  18.515  0.00  0.00    +0.000 C 
ATOM     12  C   UNL     1       3.918   3.915  17.501  0.00  0.00    +0.000 C 
ATOM     13  N   UNL     1       3.692   5.293  17.951  0.00  0.00    +0.000 N 
ATOM     14  C   UNL     1       2.387   5.773  18.089  0.00  0.00    +0.000 C 
ATOM     15  O   UNL     1       1.393   5.057  17.903  0.00  0.00    +0.000 OA
ATOM     16  C   UNL     1       4.935   6.018  18.256  0.00  0.00    +0.000 C 
ATOM     17  C   UNL     1       5.859   5.218  19.187  0.00  0.00    +0.000 C 
ATOM     18  N   UNL     1       6.073   3.821  18.790  0.00  0.00    +0.000 NA
ATOM     19  H   UNL     1       6.578   3.334  19.530  0.00  0.00    +0.000 HD
BRANCH  11  20
ATOM     20  C   UNL     1       3.990   2.801  19.799  0.00  0.00    +0.000 C 
BRANCH  20  22
ATOM     21  C   UNL     1       1.729   2.608  20.453  0.00  0.00    +0.000 C 
ATOM     22  O   UNL     1       2.691   2.320  19.448  0.00  0.00    +0.000 OA
ENDBRANCH  20  22
ENDBRANCH  11  20
ENDBRANCH   1  14
BRANCH   6  23
ATOM     23  O   UNL     1       0.239  12.384  21.588  0.00  0.00    +0.000 OA
BRANCH  23  24
ATOM     24  C   UNL     1      -1.055  12.532  22.078  0.00  0.00    +0.000 A 
ATOM     25  C   UNL     1      -2.089  12.430  21.161  0.00  0.00    +0.000 A 
ATOM     26  C   UNL     1      -3.400  12.567  21.622  0.00  0.00    +0.000 A 
ATOM     27  C   UNL     1      -3.635  12.805  22.979  0.00  0.00    +0.000 A 
ATOM     28  C   UNL     1      -2.533  12.900  23.815  0.00  0.00    +0.000 A 
ATOM     29  N   UNL     1      -1.256  12.787  23.391  0.00  0.00    +0.000 NA
BRANCH  27  30
ATOM     30  C   UNL     1      -5.006  12.968  23.562  0.00  0.00    +0.000 C 
ATOM     31  F   UNL     1      -6.002  12.570  22.725  0.00  0.00    +0.000 F 
ATOM     32  F   UNL     1      -5.172  12.254  24.709  0.00  0.00    +0.000 F 
ATOM     33  F   UNL     1      -5.282  14.262  23.884  0.00  0.00    +0.000 F 
ENDBRANCH  27  30
ENDBRANCH  23  24
ENDBRANCH   6  23
TORSDOF 6
ENDMDL
MODEL 5
REMARK VINA RESULT:      -8.1      3.388      3.952
REMARK  Name = 
REMARK  7 active torsions:
REMARK  status: ('A' for Active; 'I' for Inactive)
REMARK    1  A    between atoms: C_1  and  O_2
REMARK    2  A    between atoms: O_2  and  C_3
REMARK    3  A    between atoms: C_3  and  C_4
REMARK    4  A    between atoms: C_7  and  C_9
REMARK    5  A    between atoms: C_14  and  O_15
REMARK    6  A    between atoms: O_15  and  C_16
REMARK    7  A    between atoms: C_19  and  C_20
REMARK                            x       y       z     vdW  Elec       q    Type
REMARK                         _______ _______ _______ _____ _____    ______ ____
ROOT
ATOM      1  C   UNL     1       2.605   6.908  19.532  0.00  0.00    +0.000 A 
ATOM      2  C   UNL     1       2.503   7.537  18.298  0.00  0.00    +0.000 A 
ATOM      3  C   UNL     1       1.707   8.677  18.202  0.00  0.00    +0.000 A 
ATOM      4  C   UNL     1       1.023   9.153  19.333  0.00  0.00    +0.000 A 
ATOM      5  C   UNL     1       0.170  10.273  19.296  0.00  0.00    +0.000 A 
ATOM      6  C   UNL     1      -0.509  10.683  20.445  0.00  0.00    +0.000 A 
ATOM      7  C   UNL     1      -0.384   9.936  21.616  0.00  0.00    +0.000 A 
ATOM      8  C   UNL     1       0.489   8.849  21.659  0.00  0.00    +0.000 A 
ATOM      9  C   UNL     1       1.207   8.451  20.544  0.00  0.00    +0.000 A 
ATOM     10  N   UNL     1       2.009   7.388  20.650  0.00  0.00    +0.000 NA
ENDROOT
BRANCH   1  14
ATOM     11  C   UNL     1       2.912   2.106  18.921  0.00  0.00    +0.000 C 
ATOM     12  C   UNL     1       3.414   3.149  19.954  0.00  0.00    +0.000 C 
ATOM     13  N   UNL     1       2.667   4.407  19.849  0.00  0.00    +0.000 N 
ATOM     14  C   UNL     1       3.353   5.606  19.637  0.00  0.00    +0.000 C 
ATOM     15  O   UNL     1       4.580   5.647  19.470  0.00  0.00    +0.000 OA
ATOM     16  C   UNL     1       1.210   4.230  19.943  0.00  0.00    +0.000 C 
ATOM     17  C   UNL     1       0.696   3.136  18.995  0.00  0.00    +0.000 C 
ATOM     18  N   UNL     1       1.447   1.877  19.043  0.00  0.00    +0.000 NA
ATOM     19  H   UNL     1       1.130   1.265  18.292  0.00  0.00    +0.000 HD
BRANCH  11  20
ATOM     20  C   UNL     1       3.345   2.490  17.487  0.00  0.00    +0.000 C 
BRANCH  20  22
ATOM     21  C   UNL     1       4.820   4.015  16.450  0.00  0.00    +0.000 C 
ATOM     22  O   UNL     1       4.635   3.105  17.524  0.00  0.00    +0.000 OA
ENDBRANCH  20  22
ENDBRANCH  11  20
ENDBRANCH   1  14
BRANCH   6  23
ATOM     23  O   UNL     1      -1.338  11.776  20.332  0.00  0.00    +0.000 OA
BRANCH  23  24
ATOM     24  C   UNL     1      -1.529  12.570  21.459  0.00  0.00    +0.000 A 
ATOM     25  C   UNL     1      -2.764  12.488  22.083  0.00  0.00    +0.000 A 
ATOM     26  C   UNL     1      -2.985  13.267  23.220  0.00  0.00    +0.000 A 
ATOM     27  C   UNL     1      -1.971  14.105  23.693  0.00  0.00    +0.000 A 
ATOM     28  C   UNL     1      -0.775  14.124  22.993  0.00  0.00    +0.000 A 
ATOM     29  N   UNL     1      -0.541  13.392  21.882  0.00  0.00    +0.000 NA
BRANCH  27  30
ATOM     30  C   UNL     1      -2.120  14.978  24.902  0.00  0.00    +0.000 C 
ATOM     31  F   UNL     1      -0.953  15.180  25.572  0.00  0.00    +0.000 F 
ATOM     32  F   UNL     1      -2.595  16.216  24.595  0.00  0.00    +0.000 F 
ATOM     33  F   UNL     1      -2.989  14.460  25.813  0.00  0.00    +0.000 F 
ENDBRANCH  27  30
ENDBRANCH  23  24
ENDBRANCH   6  23
TORSDOF 6
ENDMDL
MODEL 6
REMARK VINA RESULT:      -8.0      3.429      3.994
REMARK  Name = 
REMARK  7 active torsions:
REMARK  status: ('A' for Active; 'I' for Inactive)
REMARK    1  A    between atoms: C_1  and  O_2
REMARK    2  A    between atoms: O_2  and  C_3
REMARK    3  A    between atoms: C_3  and  C_4
REMARK    4  A    between atoms: C_7  and  C_9
REMARK    5  A    between atoms: C_14  and  O_15
REMARK    6  A    between atoms: O_15  and  C_16
REMARK    7  A    between atoms: C_19  and  C_20
REMARK                            x       y       z     vdW  Elec       q    Type
REMARK                         _______ _______ _______ _____ _____    ______ ____
ROOT
ATOM      1  C   UNL     1       2.606   6.931  19.498  0.00  0.00    +0.000 A 
ATOM      2  C   UNL     1       2.480   7.563  18.267  0.00  0.00    +0.000 A 
ATOM      3  C   UNL     1       1.668   8.694  18.186  0.00  0.00    +0.000 A 
ATOM      4  C   UNL     1       0.993   9.156  19.328  0.00  0.00    +0.000 A 
ATOM      5  C   UNL     1       0.126  10.265  19.307  0.00  0.00    +0.000 A 
ATOM      6  C   UNL     1      -0.544  10.662  20.466  0.00  0.00    +0.000 A 
ATOM      7  C   UNL     1      -0.393   9.913  21.632  0.00  0.00    +0.000 A 
ATOM      8  C   UNL     1       0.494   8.837  21.659  0.00  0.00    +0.000 A 
ATOM      9  C   UNL     1       1.202   8.453  20.534  0.00  0.00    +0.000 A 
ATOM     10  N   UNL     1       2.019   7.400  20.625  0.00  0.00    +0.000 NA
ENDROOT
BRANCH   1  14
ATOM     11  C   UNL     1       2.952   2.130  18.904  0.00  0.00    +0.000 C 
ATOM     12  C   UNL     1       3.472   3.184  19.916  0.00  0.00    +0.000 C 
ATOM     13  N   UNL     1       2.708   4.433  19.826  0.00  0.00    +0.000 N 
ATOM     14  C   UNL     1       3.373   5.638  19.587  0.00  0.00    +0.000 C 
ATOM     15  O   UNL     1       4.594   5.693  19.384  0.00  0.00    +0.000 OA
ATOM     16  C   UNL     1       1.256   4.240  19.964  0.00  0.00    +0.000 C 
ATOM     17  C   UNL     1       0.727   3.135  19.037  0.00  0.00    +0.000 C 
ATOM     18  N   UNL     1       1.495   1.884  19.070  0.00  0.00    +0.000 NA
ATOM     19  H   UNL     1       1.162   1.265  18.332  0.00  0.00    +0.000 HD
BRANCH  11  20
ATOM     20  C   UNL     1       3.339   2.510  17.455  0.00  0.00    +0.000 C 
BRANCH  20  22
ATOM     21  C   UNL     1       4.788   4.050  16.404  0.00  0.00    +0.000 C 
ATOM     22  O   UNL     1       4.642   3.096  17.446  0.00  0.00    +0.000 OA
ENDBRANCH  20  22
ENDBRANCH  11  20
ENDBRANCH   1  14
BRANCH   6  23
ATOM     23  O   UNL     1      -1.388  11.745  20.369  0.00  0.00    +0.000 OA
BRANCH  23  24
ATOM     24  C   UNL     1      -1.553  12.548  21.493  0.00  0.00    +0.000 A 
ATOM     25  C   UNL     1      -0.528  13.433  21.788  0.00  0.00    +0.000 A 
ATOM     26  C   UNL     1      -0.666  14.258  22.905  0.00  0.00    +0.000 A 
ATOM     27  C   UNL     1      -1.817  14.170  23.693  0.00  0.00    +0.000 A 
ATOM     28  C   UNL     1      -2.780  13.246  23.321  0.00  0.00    +0.000 A 
ATOM     29  N   UNL     1      -2.664  12.426  22.254  0.00  0.00    +0.000 NA
BRANCH  27  30
ATOM     30  C   UNL     1      -2.049  15.013  24.911  0.00  0.00    +0.000 C 
ATOM     31  F   UNL     1      -2.422  16.289  24.624  0.00  0.00    +0.000 F 
ATOM     32  F   UNL     1      -3.025  14.508  25.715  0.00  0.00    +0.000 F 
ATOM     33  F   UNL     1      -0.938  15.115  25.691  0.00  0.00    +0.000 F 
ENDBRANCH  27  30
ENDBRANCH  23  24
ENDBRANCH   6  23
TORSDOF 6
ENDMDL
MODEL 7
REMARK VINA RESULT:      -8.0      1.159      1.933
REMARK  Name = 
REMARK  7 active torsions:
REMARK  status: ('A' for Active; 'I' for Inactive)
REMARK    1  A    between atoms: C_1  and  O_2
REMARK    2  A    between atoms: O_2  and  C_3
REMARK    3  A    between atoms: C_3  and  C_4
REMARK    4  A    between atoms: C_7  and  C_9
REMARK    5  A    between atoms: C_14  and  O_15
REMARK    6  A    between atoms: O_15  and  C_16
REMARK    7  A    between atoms: C_19  and  C_20
REMARK                            x       y       z     vdW  Elec       q    Type
REMARK                         _______ _______ _______ _____ _____    ______ ____
ROOT
ATOM      1  C   UNL     1       2.431   6.536  19.879  0.00  0.00    +0.000 A 
ATOM      2  C   UNL     1       1.728   6.797  21.049  0.00  0.00    +0.000 A 
ATOM      3  C   UNL     1       1.040   8.005  21.150  0.00  0.00    +0.000 A 
ATOM      4  C   UNL     1       1.082   8.927  20.091  0.00  0.00    +0.000 A 
ATOM      5  C   UNL     1       0.445  10.182  20.145  0.00  0.00    +0.000 A 
ATOM      6  C   UNL     1       0.546  11.073  19.075  0.00  0.00    +0.000 A 
ATOM      7  C   UNL     1       1.333  10.733  17.976  0.00  0.00    +0.000 A 
ATOM      8  C   UNL     1       1.932   9.476  17.909  0.00  0.00    +0.000 A 
ATOM      9  C   UNL     1       1.810   8.559  18.940  0.00  0.00    +0.000 A 
ATOM     10  N   UNL     1       2.428   7.381  18.820  0.00  0.00    +0.000 NA
ENDROOT
BRANCH   1  14
ATOM     11  C   UNL     1       3.092   1.892  18.649  0.00  0.00    +0.000 C 
ATOM     12  C   UNL     1       3.555   2.836  19.790  0.00  0.00    +0.000 C 
ATOM     13  N   UNL     1       2.706   4.030  19.872  0.00  0.00    +0.000 N 
ATOM     14  C   UNL     1       3.284   5.300  19.791  0.00  0.00    +0.000 C 
ATOM     15  O   UNL     1       4.495   5.465  19.589  0.00  0.00    +0.000 OA
ATOM     16  C   UNL     1       1.273   3.720  19.991  0.00  0.00    +0.000 C 
ATOM     17  C   UNL     1       0.807   2.713  18.928  0.00  0.00    +0.000 C 
ATOM     18  N   UNL     1       1.658   1.526  18.790  0.00  0.00    +0.000 NA
ATOM     19  H   UNL     1       1.357   0.988  17.978  0.00  0.00    +0.000 HD
BRANCH  11  20
ATOM     20  C   UNL     1       3.430   2.486  17.262  0.00  0.00    +0.000 C 
BRANCH  20  22
ATOM     21  C   UNL     1       4.801   4.173  16.340  0.00  0.00    +0.000 C 
ATOM     22  O   UNL     1       4.694   3.151  17.320  0.00  0.00    +0.000 OA
ENDBRANCH  20  22
ENDBRANCH  11  20
ENDBRANCH   1  14
BRANCH   6  23
ATOM     23  O   UNL     1      -0.088  12.288  19.202  0.00  0.00    +0.000 OA
BRANCH  23  24
ATOM     24  C   UNL     1      -1.474  12.292  19.335  0.00  0.00    +0.000 A 
ATOM     25  C   UNL     1      -2.204  11.709  18.311  0.00  0.00    +0.000 A 
ATOM     26  C   UNL     1      -3.596  11.691  18.418  0.00  0.00    +0.000 A 
ATOM     27  C   UNL     1      -4.213  12.258  19.536  0.00  0.00    +0.000 A 
ATOM     28  C   UNL     1      -3.395  12.826  20.501  0.00  0.00    +0.000 A 
ATOM     29  N   UNL     1      -2.048  12.870  20.415  0.00  0.00    +0.000 NA
BRANCH  27  30
ATOM     30  C   UNL     1      -5.698  12.287  19.733  0.00  0.00    +0.000 C 
ATOM     31  F   UNL     1      -6.070  12.572  21.010  0.00  0.00    +0.000 F 
ATOM     32  F   UNL     1      -6.309  13.216  18.948  0.00  0.00    +0.000 F 
ATOM     33  F   UNL     1      -6.285  11.097  19.430  0.00  0.00    +0.000 F 
ENDBRANCH  27  30
ENDBRANCH  23  24
ENDBRANCH   6  23
TORSDOF 6
ENDMDL
MODEL 8
REMARK VINA RESULT:      -8.0      2.646      3.265
REMARK  Name = 
REMARK  7 active torsions:
REMARK  status: ('A' for Active; 'I' for Inactive)
REMARK    1  A    between atoms: C_1  and  O_2
REMARK    2  A    between atoms: O_2  and  C_3
REMARK    3  A    between atoms: C_3  and  C_4
REMARK    4  A    between atoms: C_7  and  C_9
REMARK    5  A    between atoms: C_14  and  O_15
REMARK    6  A    between atoms: O_15  and  C_16
REMARK    7  A    between atoms: C_19  and  C_20
REMARK                            x       y       z     vdW  Elec       q    Type
REMARK                         _______ _______ _______ _____ _____    ______ ____
ROOT
ATOM      1  C   UNL     1       2.782   6.796  19.374  0.00  0.00    +0.000 A 
ATOM      2  C   UNL     1       2.755   7.418  18.131  0.00  0.00    +0.000 A 
ATOM      3  C   UNL     1       2.006   8.585  17.994  0.00  0.00    +0.000 A 
ATOM      4  C   UNL     1       1.293   9.095  19.092  0.00  0.00    +0.000 A 
ATOM      5  C   UNL     1       0.484  10.245  19.010  0.00  0.00    +0.000 A 
ATOM      6  C   UNL     1      -0.229  10.689  20.126  0.00  0.00    +0.000 A 
ATOM      7  C   UNL     1      -0.180   9.948  21.306  0.00  0.00    +0.000 A 
ATOM      8  C   UNL     1       0.650   8.831  21.394  0.00  0.00    +0.000 A 
ATOM      9  C   UNL     1       1.399   8.398  20.314  0.00  0.00    +0.000 A 
ATOM     10  N   UNL     1       2.157   7.308  20.461  0.00  0.00    +0.000 NA
ENDROOT
BRANCH   1  14
ATOM     11  C   UNL     1       2.937   1.981  18.815  0.00  0.00    +0.000 C 
ATOM     12  C   UNL     1       3.435   3.015  19.860  0.00  0.00    +0.000 C 
ATOM     13  N   UNL     1       2.740   4.298  19.714  0.00  0.00    +0.000 N 
ATOM     14  C   UNL     1       3.477   5.469  19.520  0.00  0.00    +0.000 C 
ATOM     15  O   UNL     1       4.710   5.464  19.402  0.00  0.00    +0.000 OA
ATOM     16  C   UNL     1       1.274   4.175  19.750  0.00  0.00    +0.000 C 
ATOM     17  C   UNL     1       0.759   3.091  18.791  0.00  0.00    +0.000 C 
ATOM     18  N   UNL     1       1.461   1.806  18.880  0.00  0.00    +0.000 NA
ATOM     19  H   UNL     1       1.152   1.199  18.121  0.00  0.00    +0.000 HD
BRANCH  11  20
ATOM     20  C   UNL     1       3.442   2.334  17.397  0.00  0.00    +0.000 C 
BRANCH  20  22
ATOM     21  C   UNL     1       4.951   3.873  16.432  0.00  0.00    +0.000 C 
ATOM     22  O   UNL     1       4.730   2.945  17.486  0.00  0.00    +0.000 OA
ENDBRANCH  20  22
ENDBRANCH  11  20
ENDBRANCH   1  14
BRANCH   6  23
ATOM     23  O   UNL     1      -1.011  11.810  19.971  0.00  0.00    +0.000 OA
BRANCH  23  24
ATOM     24  C   UNL     1      -1.707  12.281  21.080  0.00  0.00    +0.000 A 
ATOM     25  C   UNL     1      -3.086  12.353  20.973  0.00  0.00    +0.000 A 
ATOM     26  C   UNL     1      -3.813  12.816  22.072  0.00  0.00    +0.000 A 
ATOM     27  C   UNL     1      -3.141  13.195  23.237  0.00  0.00    +0.000 A 
ATOM     28  C   UNL     1      -1.759  13.096  23.241  0.00  0.00    +0.000 A 
ATOM     29  N   UNL     1      -1.031  12.667  22.187  0.00  0.00    +0.000 NA
BRANCH  27  30
ATOM     30  C   UNL     1      -3.838  13.705  24.461  0.00  0.00    +0.000 C 
ATOM     31  F   UNL     1      -3.098  14.597  25.175  0.00  0.00    +0.000 F 
ATOM     32  F   UNL     1      -5.007  14.338  24.170  0.00  0.00    +0.000 F 
ATOM     33  F   UNL     1      -4.159  12.707  25.329  0.00  0.00    +0.000 F 
ENDBRANCH  27  30
ENDBRANCH  23  24
ENDBRANCH   6  23
TORSDOF 6
ENDMDL
MODEL 9
REMARK VINA RESULT:      -7.9      2.265      2.825
REMARK  Name = 
REMARK  7 active torsions:
REMARK  status: ('A' for Active; 'I' for Inactive)
REMARK    1  A    between atoms: C_1  and  O_2
REMARK    2  A    between atoms: O_2  and  C_3
REMARK    3  A    between atoms: C_3  and  C_4
REMARK    4  A    between atoms: C_7  and  C_9
REMARK    5  A    between atoms: C_14  and  O_15
REMARK    6  A    between atoms: O_15  and  C_16
REMARK    7  A    between atoms: C_19  and  C_20
REMARK                            x       y       z     vdW  Elec       q    Type
REMARK                         _______ _______ _______ _____ _____    ______ ____
ROOT
ATOM      1  C   UNL     1       2.761   6.810  19.384  0.00  0.00    +0.000 A 
ATOM      2  C   UNL     1       2.760   7.439  18.145  0.00  0.00    +0.000 A 
ATOM      3  C   UNL     1       2.016   8.609  17.999  0.00  0.00    +0.000 A 
ATOM      4  C   UNL     1       1.283   9.114  19.085  0.00  0.00    +0.000 A 
ATOM      5  C   UNL     1       0.479  10.267  18.994  0.00  0.00    +0.000 A 
ATOM      6  C   UNL     1      -0.253  10.707  20.099  0.00  0.00    +0.000 A 
ATOM      7  C   UNL     1      -0.229   9.960  21.276  0.00  0.00    +0.000 A 
ATOM      8  C   UNL     1       0.596   8.840  21.374  0.00  0.00    +0.000 A 
ATOM      9  C   UNL     1       1.365   8.411  20.306  0.00  0.00    +0.000 A 
ATOM     10  N   UNL     1       2.117   7.318  20.462  0.00  0.00    +0.000 NA
ENDROOT
BRANCH   1  14
ATOM     11  C   UNL     1       2.902   1.994  18.831  0.00  0.00    +0.000 C 
ATOM     12  C   UNL     1       3.396   3.027  19.878  0.00  0.00    +0.000 C 
ATOM     13  N   UNL     1       2.707   4.313  19.726  0.00  0.00    +0.000 N 
ATOM     14  C   UNL     1       3.450   5.481  19.536  0.00  0.00    +0.000 C 
ATOM     15  O   UNL     1       4.684   5.471  19.428  0.00  0.00    +0.000 OA
ATOM     16  C   UNL     1       1.241   4.195  19.752  0.00  0.00    +0.000 C 
ATOM     17  C   UNL     1       0.729   3.113  18.789  0.00  0.00    +0.000 C 
ATOM     18  N   UNL     1       1.425   1.825  18.885  0.00  0.00    +0.000 NA
ATOM     19  H   UNL     1       1.119   1.218  18.124  0.00  0.00    +0.000 HD
BRANCH  11  20
ATOM     20  C   UNL     1       3.419   2.344  17.416  0.00  0.00    +0.000 C 
BRANCH  20  22
ATOM     21  C   UNL     1       4.950   3.874  16.472  0.00  0.00    +0.000 C 
ATOM     22  O   UNL     1       4.716   2.936  17.513  0.00  0.00    +0.000 OA
ENDBRANCH  20  22
ENDBRANCH  11  20
ENDBRANCH   1  14
BRANCH   6  23
ATOM     23  O   UNL     1      -1.030  11.831  19.934  0.00  0.00    +0.000 OA
BRANCH  23  24
ATOM     24  C   UNL     1      -1.939  12.150  20.938  0.00  0.00    +0.000 A 
ATOM     25  C   UNL     1      -1.452  12.195  22.235  0.00  0.00    +0.000 A 
ATOM     26  C   UNL     1      -2.338  12.519  23.264  0.00  0.00    +0.000 A 
ATOM     27  C   UNL     1      -3.678  12.782  22.968  0.00  0.00    +0.000 A 
ATOM     28  C   UNL     1      -4.069  12.702  21.641  0.00  0.00    +0.000 A 
ATOM     29  N   UNL     1      -3.237  12.376  20.629  0.00  0.00    +0.000 NA
BRANCH  27  30
ATOM     30  C   UNL     1      -4.698  13.134  24.007  0.00  0.00    +0.000 C 
ATOM     31  F   UNL     1      -5.981  12.963  23.588  0.00  0.00    +0.000 F 
ATOM     32  F   UNL     1      -4.571  12.387  25.137  0.00  0.00    +0.000 F 
ATOM     33  F   UNL     1      -4.606  14.433  24.406  0.00  0.00    +0.000 F 
ENDBRANCH  27  30
ENDBRANCH  23  24
ENDBRANCH   6  23
TORSDOF 6
ENDMDL
