MODEL 1
REMARK VINA RESULT:      -7.3      0.000      0.000
REMARK  Name = 
REMARK  4 active torsions:
REMARK  status: ('A' for Active; 'I' for Inactive)
REMARK    1  A    between atoms: C_1  and  C_2
REMARK    2  A    between atoms: C_2  and  C_3
REMARK    3  A    between atoms: C_6  and  N_7
REMARK    4  A    between atoms: N_7  and  C_8
REMARK                            x       y       z     vdW  Elec       q    Type
REMARK                         _______ _______ _______ _____ _____    ______ ____
ROOT
ATOM      1  N   UNL     1       5.847   4.172  17.718  0.00  0.00    +0.000 N 
ATOM      2  H   UNL     1       6.046   3.796  16.790  0.00  0.00    +0.000 HD
ENDROOT
BRANCH   1   8
ATOM      3  C   UNL     1       0.860   3.730  20.175  0.00  0.00    +0.000 C 
ATOM      4  C   UNL     1       1.943   3.034  19.328  0.00  0.00    +0.000 C 
ATOM      5  C   UNL     1       1.425   1.649  18.902  0.00  0.00    +0.000 C 
ATOM      6  C   UNL     1       3.214   2.888  20.191  0.00  0.00    +0.000 C 
ATOM      7  C   UNL     1       4.571   3.168  19.547  0.00  0.00    +0.000 C 
ATOM      8  C   UNL     1       4.589   3.860  18.212  0.00  0.00    +0.000 C 
ATOM      9  C   UNL     1       3.463   4.194  17.569  0.00  0.00    +0.000 C 
ATOM     10  C   UNL     1       2.118   3.862  18.058  0.00  0.00    +0.000 C 
ATOM     11  O   UNL     1       1.157   4.223  17.377  0.00  0.00    +0.000 OA
ENDBRANCH   1   8
BRANCH   1  12
ATOM     12  C   UNL     1       6.554   5.391  17.914  0.00  0.00    +0.000 A 
ATOM     13  C   UNL     1       7.460   5.568  18.971  0.00  0.00    +0.000 A 
ATOM     14  C   UNL     1       8.171   6.767  19.125  0.00  0.00    +0.000 A 
ATOM     15  C   UNL     1       7.993   7.797  18.209  0.00  0.00    +0.000 A 
ATOM     16 BR   UNL     1       8.945   9.413  18.430  0.00  0.00    +0.000 Br
ATOM     17  C   UNL     1       7.121   7.645  17.136  0.00  0.00    +0.000 A 
ATOM     18  C   UNL     1       6.413   6.448  16.990  0.00  0.00    +0.000 A 
ATOM     19 BR   UNL     1       5.235   6.298  15.503  0.00  0.00    +0.000 Br
ENDBRANCH   1  12
TORSDOF 2
ENDMDL
MODEL 2
REMARK VINA RESULT:      -7.2      4.606      5.662
REMARK  Name = 
REMARK  4 active torsions:
REMARK  status: ('A' for Active; 'I' for Inactive)
REMARK    1  A    between atoms: C_1  and  C_2
REMARK    2  A    between atoms: C_2  and  C_3
REMARK    3  A    between atoms: C_6  and  N_7
REMARK    4  A    between atoms: N_7  and  C_8
REMARK                            x       y       z     vdW  Elec       q    Type
REMARK                         _______ _______ _______ _____ _____    ______ ____
ROOT
ATOM      1  N   UNL     1       2.528   7.253  20.130  0.00  0.00    +0.000 N 
ATOM      2  H   UNL     1       3.286   7.669  19.587  0.00  0.00    +0.000 HD
ENDROOT
BRANCH   1   8
ATOM      3  C   UNL     1       0.474   2.231  18.840  0.00  0.00    +0.000 C 
ATOM      4  C   UNL     1       1.714   3.045  19.257  0.00  0.00    +0.000 C 
ATOM      5  C   UNL     1       2.941   2.116  19.255  0.00  0.00    +0.000 C 
ATOM      6  C   UNL     1       1.471   3.608  20.673  0.00  0.00    +0.000 C 
ATOM      7  C   UNL     1       1.895   5.046  20.972  0.00  0.00    +0.000 C 
ATOM      8  C   UNL     1       2.242   5.935  19.809  0.00  0.00    +0.000 C 
ATOM      9  C   UNL     1       2.225   5.491  18.545  0.00  0.00    +0.000 C 
ATOM     10  C   UNL     1       1.942   4.097  18.176  0.00  0.00    +0.000 C 
ATOM     11  O   UNL     1       1.957   3.809  16.978  0.00  0.00    +0.000 OA
ENDBRANCH   1   8
BRANCH   1  12
ATOM     12  C   UNL     1       1.592   8.254  20.510  0.00  0.00    +0.000 A 
ATOM     13  C   UNL     1       1.091   8.352  21.817  0.00  0.00    +0.000 A 
ATOM     14  C   UNL     1       0.194   9.368  22.177  0.00  0.00    +0.000 A 
ATOM     15  C   UNL     1      -0.198  10.308  21.232  0.00  0.00    +0.000 A 
ATOM     16 BR   UNL     1      -1.416  11.666  21.722  0.00  0.00    +0.000 Br
ATOM     17  C   UNL     1       0.299  10.255  19.934  0.00  0.00    +0.000 A 
ATOM     18  C   UNL     1       1.191   9.238  19.581  0.00  0.00    +0.000 A 
ATOM     19 BR   UNL     1       1.836   9.215  17.791  0.00  0.00    +0.000 Br
ENDBRANCH   1  12
TORSDOF 2
ENDMDL
MODEL 3
REMARK VINA RESULT:      -7.2      2.296      3.519
REMARK  Name = 
REMARK  4 active torsions:
REMARK  status: ('A' for Active; 'I' for Inactive)
REMARK    1  A    between atoms: C_1  and  C_2
REMARK    2  A    between atoms: C_2  and  C_3
REMARK    3  A    between atoms: C_6  and  N_7
REMARK    4  A    between atoms: N_7  and  C_8
REMARK                            x       y       z     vdW  Elec       q    Type
REMARK                         _______ _______ _______ _____ _____    ______ ____
ROOT
ATOM      1  N   UNL     1       5.877   3.996  18.155  0.00  0.00    +0.000 N 
ATOM      2  H   UNL     1       6.543   3.360  18.595  0.00  0.00    +0.000 HD
ENDROOT
BRANCH   1   8
ATOM      3  C   UNL     1       0.585   2.900  19.533  0.00  0.00    +0.000 C 
ATOM      4  C   UNL     1       1.769   3.879  19.653  0.00  0.00    +0.000 C 
ATOM      5  C   UNL     1       1.379   5.012  20.618  0.00  0.00    +0.000 C 
ATOM      6  C   UNL     1       2.071   4.449  18.252  0.00  0.00    +0.000 C 
ATOM      7  C   UNL     1       3.530   4.597  17.821  0.00  0.00    +0.000 C 
ATOM      8  C   UNL     1       4.582   3.906  18.644  0.00  0.00    +0.000 C 
ATOM      9  C   UNL     1       4.278   3.210  19.748  0.00  0.00    +0.000 C 
ATOM     10  C   UNL     1       2.920   3.111  20.298  0.00  0.00    +0.000 C 
ATOM     11  O   UNL     1       2.765   2.442  21.321  0.00  0.00    +0.000 OA
ENDBRANCH   1   8
BRANCH   1  12
ATOM     12  C   UNL     1       6.257   4.249  16.808  0.00  0.00    +0.000 A 
ATOM     13  C   UNL     1       5.868   3.411  15.752  0.00  0.00    +0.000 A 
ATOM     14  C   UNL     1       6.226   3.699  14.427  0.00  0.00    +0.000 A 
ATOM     15  C   UNL     1       6.965   4.841  14.145  0.00  0.00    +0.000 A 
ATOM     16 BR   UNL     1       7.454   5.215  12.359  0.00  0.00    +0.000 Br
ATOM     17  C   UNL     1       7.347   5.706  15.166  0.00  0.00    +0.000 A 
ATOM     18  C   UNL     1       6.988   5.412  16.485  0.00  0.00    +0.000 A 
ATOM     19 BR   UNL     1       7.538   6.630  17.839  0.00  0.00    +0.000 Br
ENDBRANCH   1  12
TORSDOF 2
ENDMDL
MODEL 4
REMARK VINA RESULT:      -7.2      1.145      1.837
REMARK  Name = 
REMARK  4 active torsions:
REMARK  status: ('A' for Active; 'I' for Inactive)
REMARK    1  A    between atoms: C_1  and  C_2
REMARK    2  A    between atoms: C_2  and  C_3
REMARK    3  A    between atoms: C_6  and  N_7
REMARK    4  A    between atoms: N_7  and  C_8
REMARK                            x       y       z     vdW  Elec       q    Type
REMARK                         _______ _______ _______ _____ _____    ______ ____
ROOT
ATOM      1  N   UNL     1       5.873   4.128  17.732  0.00  0.00    +0.000 N 
ATOM      2  H   UNL     1       6.052   3.757  16.799  0.00  0.00    +0.000 HD
ENDROOT
BRANCH   1   8
ATOM      3  C   UNL     1       1.031   1.935  19.421  0.00  0.00    +0.000 C 
ATOM      4  C   UNL     1       1.913   3.196  19.338  0.00  0.00    +0.000 C 
ATOM      5  C   UNL     1       1.219   4.336  20.105  0.00  0.00    +0.000 C 
ATOM      6  C   UNL     1       2.081   3.574  17.852  0.00  0.00    +0.000 C 
ATOM      7  C   UNL     1       3.457   4.024  17.363  0.00  0.00    +0.000 C 
ATOM      8  C   UNL     1       4.638   3.787  18.264  0.00  0.00    +0.000 C 
ATOM      9  C   UNL     1       4.507   3.237  19.478  0.00  0.00    +0.000 C 
ATOM     10  C   UNL     1       3.212   2.882  20.074  0.00  0.00    +0.000 C 
ATOM     11  O   UNL     1       3.220   2.383  21.201  0.00  0.00    +0.000 OA
ENDBRANCH   1   8
BRANCH   1  12
ATOM     12  C   UNL     1       6.557   5.363  17.907  0.00  0.00    +0.000 A 
ATOM     13  C   UNL     1       7.450   5.580  18.967  0.00  0.00    +0.000 A 
ATOM     14  C   UNL     1       8.139   6.794  19.100  0.00  0.00    +0.000 A 
ATOM     15  C   UNL     1       7.952   7.799  18.160  0.00  0.00    +0.000 A 
ATOM     16 BR   UNL     1       8.874   9.437  18.354  0.00  0.00    +0.000 Br
ATOM     17  C   UNL     1       7.092   7.609  17.084  0.00  0.00    +0.000 A 
ATOM     18  C   UNL     1       6.406   6.397  16.958  0.00  0.00    +0.000 A 
ATOM     19 BR   UNL     1       5.244   6.194  15.465  0.00  0.00    +0.000 Br
ENDBRANCH   1  12
TORSDOF 2
ENDMDL
MODEL 5
REMARK VINA RESULT:      -7.2      1.213      1.444
REMARK  Name = 
REMARK  4 active torsions:
REMARK  status: ('A' for Active; 'I' for Inactive)
REMARK    1  A    between atoms: C_1  and  C_2
REMARK    2  A    between atoms: C_2  and  C_3
REMARK    3  A    between atoms: C_6  and  N_7
REMARK    4  A    between atoms: N_7  and  C_8
REMARK                            x       y       z     vdW  Elec       q    Type
REMARK                         _______ _______ _______ _____ _____    ______ ____
ROOT
ATOM      1  N   UNL     1       5.937   4.373  18.043  0.00  0.00    +0.000 N 
ATOM      2  H   UNL     1       6.047   3.968  17.113  0.00  0.00    +0.000 HD
ENDROOT
BRANCH   1   8
ATOM      3  C   UNL     1       0.738   3.535  19.881  0.00  0.00    +0.000 C 
ATOM      4  C   UNL     1       2.244   3.432  20.190  0.00  0.00    +0.000 C 
ATOM      5  C   UNL     1       2.424   2.738  21.552  0.00  0.00    +0.000 C 
ATOM      6  C   UNL     1       2.829   4.859  20.235  0.00  0.00    +0.000 C 
ATOM      7  C   UNL     1       4.189   5.113  19.586  0.00  0.00    +0.000 C 
ATOM      8  C   UNL     1       4.747   4.051  18.678  0.00  0.00    +0.000 C 
ATOM      9  C   UNL     1       4.108   2.893  18.462  0.00  0.00    +0.000 C 
ATOM     10  C   UNL     1       2.856   2.517  19.133  0.00  0.00    +0.000 C 
ATOM     11  O   UNL     1       2.364   1.423  18.852  0.00  0.00    +0.000 OA
ENDBRANCH   1   8
BRANCH   1  12
ATOM     12  C   UNL     1       6.629   5.613  18.122  0.00  0.00    +0.000 A 
ATOM     13  C   UNL     1       7.660   5.837  19.047  0.00  0.00    +0.000 A 
ATOM     14  C   UNL     1       8.352   7.056  19.084  0.00  0.00    +0.000 A 
ATOM     15  C   UNL     1       8.027   8.060  18.180  0.00  0.00    +0.000 A 
ATOM     16 BR   UNL     1       8.954   9.705  18.244  0.00  0.00    +0.000 Br
ATOM     17  C   UNL     1       7.027   7.862  17.234  0.00  0.00    +0.000 A 
ATOM     18  C   UNL     1       6.340   6.645  17.204  0.00  0.00    +0.000 A 
ATOM     19 BR   UNL     1       4.981   6.433  15.888  0.00  0.00    +0.000 Br
ENDBRANCH   1  12
TORSDOF 2
ENDMDL
MODEL 6
REMARK VINA RESULT:      -7.0      2.153      3.218
REMARK  Name = 
REMARK  4 active torsions:
REMARK  status: ('A' for Active; 'I' for Inactive)
REMARK    1  A    between atoms: C_1  and  C_2
REMARK    2  A    between atoms: C_2  and  C_3
REMARK    3  A    between atoms: C_6  and  N_7
REMARK    4  A    between atoms: N_7  and  C_8
REMARK                            x       y       z     vdW  Elec       q    Type
REMARK                         _______ _______ _______ _____ _____    ______ ____
ROOT
ATOM      1  N   UNL     1       5.471   4.988  18.597  0.00  0.00    +0.000 N 
ATOM      2  H   UNL     1       6.290   5.033  19.204  0.00  0.00    +0.000 HD
ENDROOT
BRANCH   1   8
ATOM      3  C   UNL     1       1.418   2.858  21.782  0.00  0.00    +0.000 C 
ATOM      4  C   UNL     1       1.896   3.180  20.353  0.00  0.00    +0.000 C 
ATOM      5  C   UNL     1       0.762   2.852  19.365  0.00  0.00    +0.000 C 
ATOM      6  C   UNL     1       3.137   2.316  20.050  0.00  0.00    +0.000 C 
ATOM      7  C   UNL     1       4.313   2.956  19.313  0.00  0.00    +0.000 C 
ATOM      8  C   UNL     1       4.337   4.455  19.191  0.00  0.00    +0.000 C 
ATOM      9  C   UNL     1       3.349   5.224  19.670  0.00  0.00    +0.000 C 
ATOM     10  C   UNL     1       2.129   4.687  20.288  0.00  0.00    +0.000 C 
ATOM     11  O   UNL     1       1.290   5.495  20.690  0.00  0.00    +0.000 OA
ENDBRANCH   1   8
BRANCH   1  12
ATOM     12  C   UNL     1       5.875   4.820  17.243  0.00  0.00    +0.000 A 
ATOM     13  C   UNL     1       5.342   3.814  16.423  0.00  0.00    +0.000 A 
ATOM     14  C   UNL     1       5.730   3.689  15.081  0.00  0.00    +0.000 A 
ATOM     15  C   UNL     1       6.647   4.583  14.543  0.00  0.00    +0.000 A 
ATOM     16 BR   UNL     1       7.175   4.400  12.738  0.00  0.00    +0.000 Br
ATOM     17  C   UNL     1       7.177   5.607  15.321  0.00  0.00    +0.000 A 
ATOM     18  C   UNL     1       6.787   5.725  16.659  0.00  0.00    +0.000 A 
ATOM     19 BR   UNL     1       7.545   7.144  17.675  0.00  0.00    +0.000 Br
ENDBRANCH   1  12
TORSDOF 2
ENDMDL
MODEL 7
REMARK VINA RESULT:      -7.0      4.507      5.712
REMARK  Name = 
REMARK  4 active torsions:
REMARK  status: ('A' for Active; 'I' for Inactive)
REMARK    1  A    between atoms: C_1  and  C_2
REMARK    2  A    between atoms: C_2  and  C_3
REMARK    3  A    between atoms: C_6  and  N_7
REMARK    4  A    between atoms: N_7  and  C_8
REMARK                            x       y       z     vdW  Elec       q    Type
REMARK                         _______ _______ _______ _____ _____    ______ ____
ROOT
ATOM      1  N   UNL     1       3.077   6.477  19.441  0.00  0.00    +0.000 N 
ATOM      2  H   UNL     1       2.786   5.734  20.078  0.00  0.00    +0.000 HD
ENDROOT
BRANCH   1   8
ATOM      3  C   UNL     1      -0.970  10.296  19.061  0.00  0.00    +0.000 C 
ATOM      4  C   UNL     1       0.536  10.032  19.252  0.00  0.00    +0.000 C 
ATOM      5  C   UNL     1       1.242  11.371  19.533  0.00  0.00    +0.000 C 
ATOM      6  C   UNL     1       1.086   9.398  17.958  0.00  0.00    +0.000 C 
ATOM      7  C   UNL     1       2.078   8.241  18.073  0.00  0.00    +0.000 C 
ATOM      8  C   UNL     1       2.236   7.579  19.415  0.00  0.00    +0.000 C 
ATOM      9  C   UNL     1       1.568   7.998  20.498  0.00  0.00    +0.000 C 
ATOM     10  C   UNL     1       0.684   9.172  20.504  0.00  0.00    +0.000 C 
ATOM     11  O   UNL     1       0.125   9.460  21.564  0.00  0.00    +0.000 OA
ENDBRANCH   1   8
BRANCH   1  12
ATOM     12  C   UNL     1       3.783   5.925  18.337  0.00  0.00    +0.000 A 
ATOM     13  C   UNL     1       4.984   6.478  17.865  0.00  0.00    +0.000 A 
ATOM     14  C   UNL     1       5.681   5.898  16.796  0.00  0.00    +0.000 A 
ATOM     15  C   UNL     1       5.189   4.744  16.198  0.00  0.00    +0.000 A 
ATOM     16 BR   UNL     1       6.128   3.975  14.750  0.00  0.00    +0.000 Br
ATOM     17  C   UNL     1       4.015   4.156  16.656  0.00  0.00    +0.000 A 
ATOM     18  C   UNL     1       3.324   4.741  17.721  0.00  0.00    +0.000 A 
ATOM     19 BR   UNL     1       1.724   3.892  18.305  0.00  0.00    +0.000 Br
ENDBRANCH   1  12
TORSDOF 2
ENDMDL
MODEL 8
REMARK VINA RESULT:      -7.0      1.262      1.381
REMARK  Name = 
REMARK  4 active torsions:
REMARK  status: ('A' for Active; 'I' for Inactive)
REMARK    1  A    between atoms: C_1  and  C_2
REMARK    2  A    between atoms: C_2  and  C_3
REMARK    3  A    between atoms: C_6  and  N_7
REMARK    4  A    between atoms: N_7  and  C_8
REMARK                            x       y       z     vdW  Elec       q    Type
REMARK                         _______ _______ _______ _____ _____    ______ ____
ROOT
ATOM      1  N   UNL     1       5.777   4.097  18.113  0.00  0.00    +0.000 N 
ATOM      2  H   UNL     1       5.866   3.689  17.182  0.00  0.00    +0.000 HD
ENDROOT
BRANCH   1   8
ATOM      3  C   UNL     1       1.574   2.601  21.460  0.00  0.00    +0.000 C 
ATOM      4  C   UNL     1       1.998   3.040  20.045  0.00  0.00    +0.000 C 
ATOM      5  C   UNL     1       0.736   3.223  19.184  0.00  0.00    +0.000 C 
ATOM      6  C   UNL     1       2.901   1.941  19.446  0.00  0.00    +0.000 C 
ATOM      7  C   UNL     1       4.143   2.362  18.662  0.00  0.00    +0.000 C 
ATOM      8  C   UNL     1       4.593   3.793  18.768  0.00  0.00    +0.000 C 
ATOM      9  C   UNL     1       3.920   4.699  19.490  0.00  0.00    +0.000 C 
ATOM     10  C   UNL     1       2.655   4.411  20.180  0.00  0.00    +0.000 C 
ATOM     11  O   UNL     1       2.128   5.328  20.812  0.00  0.00    +0.000 OA
ENDBRANCH   1   8
BRANCH   1  12
ATOM     12  C   UNL     1       6.488   5.327  18.177  0.00  0.00    +0.000 A 
ATOM     13  C   UNL     1       7.455   5.582  19.161  0.00  0.00    +0.000 A 
ATOM     14  C   UNL     1       8.168   6.790  19.185  0.00  0.00    +0.000 A 
ATOM     15  C   UNL     1       7.928   7.750  18.210  0.00  0.00    +0.000 A 
ATOM     16 BR   UNL     1       8.883   9.379  18.256  0.00  0.00    +0.000 Br
ATOM     17  C   UNL     1       6.994   7.520  17.206  0.00  0.00    +0.000 A 
ATOM     18  C   UNL     1       6.285   6.315  17.189  0.00  0.00    +0.000 A 
ATOM     19 BR   UNL     1       5.019   6.057  15.792  0.00  0.00    +0.000 Br
ENDBRANCH   1  12
TORSDOF 2
ENDMDL
MODEL 9
REMARK VINA RESULT:      -7.0      4.735      5.880
REMARK  Name = 
REMARK  4 active torsions:
REMARK  status: ('A' for Active; 'I' for Inactive)
REMARK    1  A    between atoms: C_1  and  C_2
REMARK    2  A    between atoms: C_2  and  C_3
REMARK    3  A    between atoms: C_6  and  N_7
REMARK    4  A    between atoms: N_7  and  C_8
REMARK                            x       y       z     vdW  Elec       q    Type
REMARK                         _______ _______ _______ _____ _____    ______ ____
ROOT
ATOM      1  N   UNL     1       2.588   7.333  20.019  0.00  0.00    +0.000 N 
ATOM      2  H   UNL     1       3.253   7.797  19.399  0.00  0.00    +0.000 HD
ENDROOT
BRANCH   1   8
ATOM      3  C   UNL     1       2.691   1.888  18.814  0.00  0.00    +0.000 C 
ATOM      4  C   UNL     1       1.821   3.141  19.032  0.00  0.00    +0.000 C 
ATOM      5  C   UNL     1       0.339   2.733  18.967  0.00  0.00    +0.000 C 
ATOM      6  C   UNL     1       2.146   4.157  17.917  0.00  0.00    +0.000 C 
ATOM      7  C   UNL     1       2.273   5.635  18.287  0.00  0.00    +0.000 C 
ATOM      8  C   UNL     1       2.380   5.990  19.745  0.00  0.00    +0.000 C 
ATOM      9  C   UNL     1       2.328   5.060  20.709  0.00  0.00    +0.000 C 
ATOM     10  C   UNL     1       2.092   3.633  20.451  0.00  0.00    +0.000 C 
ATOM     11  O   UNL     1       2.064   2.874  21.421  0.00  0.00    +0.000 OA
ENDBRANCH   1   8
BRANCH   1  12
ATOM     12  C   UNL     1       1.613   8.264  20.474  0.00  0.00    +0.000 A 
ATOM     13  C   UNL     1       1.116   8.245  21.787  0.00  0.00    +0.000 A 
ATOM     14  C   UNL     1       0.181   9.194  22.223  0.00  0.00    +0.000 A 
ATOM     15  C   UNL     1      -0.256  10.183  21.351  0.00  0.00    +0.000 A 
ATOM     16 BR   UNL     1      -1.526  11.450  21.943  0.00  0.00    +0.000 Br
ATOM     17  C   UNL     1       0.235  10.246  20.051  0.00  0.00    +0.000 A 
ATOM     18  C   UNL     1       1.166   9.295  19.621  0.00  0.00    +0.000 A 
ATOM     19 BR   UNL     1       1.800   9.430  17.832  0.00  0.00    +0.000 Br
ENDBRANCH   1  12
TORSDOF 2
ENDMDL
