MODEL 1
REMARK VINA RESULT:      -8.1      0.000      0.000
REMARK  Name = 
REMARK  5 active torsions:
REMARK  status: ('A' for Active; 'I' for Inactive)
REMARK    1  A    between atoms: C_1  and  N_2
REMARK    2  A    between atoms: N_2  and  C_3
REMARK    3  A    between atoms: C_5  and  C_6
REMARK    4  A    between atoms: C_17  and  O_18
REMARK    5  A    between atoms: O_18  and  C_19
REMARK                            x       y       z     vdW  Elec       q    Type
REMARK                         _______ _______ _______ _____ _____    ______ ____
ROOT
ATOM      1  C   UNL     1       3.505   3.483  17.192  0.00  0.00    +0.000 C 
ATOM      2  C   UNL     1       2.481   4.419  17.860  0.00  0.00    +0.000 C 
ATOM      3  C   UNL     1       3.331   5.430  18.659  0.00  0.00    +0.000 C 
ATOM      4  C   UNL     1       4.540   5.529  17.787  0.00  0.00    +0.000 A 
ATOM      5  C   UNL     1       5.513   6.525  17.785  0.00  0.00    +0.000 A 
ATOM      6  C   UNL     1       6.544   6.458  16.843  0.00  0.00    +0.000 A 
ATOM      7  C   UNL     1       6.604   5.386  15.914  0.00  0.00    +0.000 A 
ATOM      8  C   UNL     1       5.633   4.370  15.971  0.00  0.00    +0.000 A 
ATOM      9  C   UNL     1       4.610   4.461  16.918  0.00  0.00    +0.000 A 
ENDROOT
BRANCH   3  10
ATOM     10  C   UNL     1       2.674   6.784  18.865  0.00  0.00    +0.000 A 
ATOM     11  C   UNL     1       2.515   7.653  17.774  0.00  0.00    +0.000 A 
ATOM     12  C   UNL     1       1.842   8.869  17.930  0.00  0.00    +0.000 A 
ATOM     13  C   UNL     1       1.312   9.228  19.173  0.00  0.00    +0.000 A 
ATOM     14 CL   UNL     1       0.440  10.748  19.319  0.00  0.00    +0.000 Cl
ATOM     15  C   UNL     1       1.474   8.372  20.276  0.00  0.00    +0.000 A 
ATOM     16 CL   UNL     1       0.809   8.781  21.851  0.00  0.00    +0.000 Cl
ATOM     17  C   UNL     1       2.156   7.160  20.120  0.00  0.00    +0.000 A 
ENDBRANCH   3  10
BRANCH   1  19
ATOM     18  C   UNL     1       2.819   1.760  18.801  0.00  0.00    +0.000 C 
ATOM     19  N   UNL     1       3.939   2.438  18.143  0.00  0.00    +0.000 NA
ATOM     20  H   UNL     1       4.526   1.714  17.667  0.00  0.00    +0.000 HD
ENDBRANCH   1  19
BRANCH   7  21
ATOM     21  O   UNL     1       7.567   5.307  14.960  0.00  0.00    +0.000 OA
ATOM     22  C   UNL     1       7.371   4.878  13.663  0.00  0.00    +0.000 C 
ENDBRANCH   7  21
TORSDOF 3
ENDMDL
MODEL 2
REMARK VINA RESULT:      -7.8      2.992      4.606
REMARK  Name = 
REMARK  5 active torsions:
REMARK  status: ('A' for Active; 'I' for Inactive)
REMARK    1  A    between atoms: C_1  and  N_2
REMARK    2  A    between atoms: N_2  and  C_3
REMARK    3  A    between atoms: C_5  and  C_6
REMARK    4  A    between atoms: C_17  and  O_18
REMARK    5  A    between atoms: O_18  and  C_19
REMARK                            x       y       z     vdW  Elec       q    Type
REMARK                         _______ _______ _______ _____ _____    ______ ____
ROOT
ATOM      1  C   UNL     1       5.893   5.588  15.437  0.00  0.00    +0.000 C 
ATOM      2  C   UNL     1       4.680   4.781  15.937  0.00  0.00    +0.000 C 
ATOM      3  C   UNL     1       5.190   4.037  17.190  0.00  0.00    +0.000 C 
ATOM      4  C   UNL     1       6.177   5.025  17.720  0.00  0.00    +0.000 A 
ATOM      5  C   UNL     1       6.717   5.089  19.002  0.00  0.00    +0.000 A 
ATOM      6  C   UNL     1       7.592   6.135  19.312  0.00  0.00    +0.000 A 
ATOM      7  C   UNL     1       7.931   7.106  18.334  0.00  0.00    +0.000 A 
ATOM      8  C   UNL     1       7.407   6.988  17.035  0.00  0.00    +0.000 A 
ATOM      9  C   UNL     1       6.531   5.936  16.749  0.00  0.00    +0.000 A 
ENDROOT
BRANCH   3  10
ATOM     10  C   UNL     1       4.115   3.712  18.212  0.00  0.00    +0.000 A 
ATOM     11  C   UNL     1       3.892   2.377  18.588  0.00  0.00    +0.000 A 
ATOM     12  C   UNL     1       2.962   2.069  19.585  0.00  0.00    +0.000 A 
ATOM     13  C   UNL     1       2.251   3.086  20.228  0.00  0.00    +0.000 A 
ATOM     14 CL   UNL     1       1.119   2.659  21.503  0.00  0.00    +0.000 Cl
ATOM     15  C   UNL     1       2.457   4.425  19.854  0.00  0.00    +0.000 A 
ATOM     16 CL   UNL     1       1.594   5.735  20.648  0.00  0.00    +0.000 Cl
ATOM     17  C   UNL     1       3.381   4.732  18.849  0.00  0.00    +0.000 A 
ENDBRANCH   3  10
BRANCH   1  19
ATOM     18  C   UNL     1       6.046   3.888  13.671  0.00  0.00    +0.000 C 
ATOM     19  N   UNL     1       6.778   4.727  14.623  0.00  0.00    +0.000 NA
ATOM     20  H   UNL     1       7.473   5.299  14.088  0.00  0.00    +0.000 HD
ENDBRANCH   1  19
BRANCH   7  21
ATOM     21  O   UNL     1       8.746   8.158  18.609  0.00  0.00    +0.000 OA
ATOM     22  C   UNL     1       8.503   9.468  18.253  0.00  0.00    +0.000 C 
ENDBRANCH   7  21
TORSDOF 3
ENDMDL
MODEL 3
REMARK VINA RESULT:      -7.6      1.312      1.502
REMARK  Name = 
REMARK  5 active torsions:
REMARK  status: ('A' for Active; 'I' for Inactive)
REMARK    1  A    between atoms: C_1  and  N_2
REMARK    2  A    between atoms: N_2  and  C_3
REMARK    3  A    between atoms: C_5  and  C_6
REMARK    4  A    between atoms: C_17  and  O_18
REMARK    5  A    between atoms: O_18  and  C_19
REMARK                            x       y       z     vdW  Elec       q    Type
REMARK                         _______ _______ _______ _____ _____    ______ ____
ROOT
ATOM      1  C   UNL     1       2.627   3.539  19.068  0.00  0.00    +0.000 C 
ATOM      2  C   UNL     1       1.828   4.762  19.555  0.00  0.00    +0.000 C 
ATOM      3  C   UNL     1       2.852   5.917  19.584  0.00  0.00    +0.000 C 
ATOM      4  C   UNL     1       3.735   5.536  18.441  0.00  0.00    +0.000 A 
ATOM      5  C   UNL     1       4.634   6.344  17.749  0.00  0.00    +0.000 A 
ATOM      6  C   UNL     1       5.331   5.801  16.665  0.00  0.00    +0.000 A 
ATOM      7  C   UNL     1       5.134   4.447  16.286  0.00  0.00    +0.000 A 
ATOM      8  C   UNL     1       4.256   3.643  17.033  0.00  0.00    +0.000 A 
ATOM      9  C   UNL     1       3.567   4.208  18.110  0.00  0.00    +0.000 A 
ENDROOT
BRANCH   3  10
ATOM     10  C   UNL     1       2.252   7.299  19.394  0.00  0.00    +0.000 A 
ATOM     11  C   UNL     1       2.228   7.877  18.115  0.00  0.00    +0.000 A 
ATOM     12  C   UNL     1       1.609   9.114  17.909  0.00  0.00    +0.000 A 
ATOM     13  C   UNL     1       0.997   9.783  18.973  0.00  0.00    +0.000 A 
ATOM     14 CL   UNL     1       0.195  11.318  18.665  0.00  0.00    +0.000 Cl
ATOM     15  C   UNL     1       1.023   9.220  20.260  0.00  0.00    +0.000 A 
ATOM     16 CL   UNL     1       0.252  10.024  21.621  0.00  0.00    +0.000 Cl
ATOM     17  C   UNL     1       1.652   7.987  20.467  0.00  0.00    +0.000 A 
ENDBRANCH   3  10
BRANCH   1  19
ATOM     18  C   UNL     1       2.527   2.741  21.388  0.00  0.00    +0.000 C 
ATOM     19  N   UNL     1       3.358   2.924  20.195  0.00  0.00    +0.000 NA
ATOM     20  H   UNL     1       3.754   1.993  19.926  0.00  0.00    +0.000 HD
ENDBRANCH   1  19
BRANCH   7  21
ATOM     21  O   UNL     1       5.763   3.896  15.216  0.00  0.00    +0.000 OA
ATOM     22  C   UNL     1       6.618   4.564  14.363  0.00  0.00    +0.000 C 
ENDBRANCH   7  21
TORSDOF 3
ENDMDL
MODEL 4
REMARK VINA RESULT:      -7.5      3.839      6.123
REMARK  Name = 
REMARK  5 active torsions:
REMARK  status: ('A' for Active; 'I' for Inactive)
REMARK    1  A    between atoms: C_1  and  N_2
REMARK    2  A    between atoms: N_2  and  C_3
REMARK    3  A    between atoms: C_5  and  C_6
REMARK    4  A    between atoms: C_17  and  O_18
REMARK    5  A    between atoms: O_18  and  C_19
REMARK                            x       y       z     vdW  Elec       q    Type
REMARK                         _______ _______ _______ _____ _____    ______ ____
ROOT
ATOM      1  C   UNL     1       2.298   5.073  20.765  0.00  0.00    +0.000 C 
ATOM      2  C   UNL     1       3.380   4.421  19.883  0.00  0.00    +0.000 C 
ATOM      3  C   UNL     1       3.068   4.905  18.451  0.00  0.00    +0.000 C 
ATOM      4  C   UNL     1       2.517   6.266  18.730  0.00  0.00    +0.000 A 
ATOM      5  C   UNL     1       2.371   7.327  17.840  0.00  0.00    +0.000 A 
ATOM      6  C   UNL     1       1.879   8.545  18.320  0.00  0.00    +0.000 A 
ATOM      7  C   UNL     1       1.524   8.692  19.687  0.00  0.00    +0.000 A 
ATOM      8  C   UNL     1       1.637   7.588  20.550  0.00  0.00    +0.000 A 
ATOM      9  C   UNL     1       2.135   6.382  20.049  0.00  0.00    +0.000 A 
ENDROOT
BRANCH   3  10
ATOM     10  C   UNL     1       4.272   4.965  17.528  0.00  0.00    +0.000 A 
ATOM     11  C   UNL     1       4.312   4.155  16.382  0.00  0.00    +0.000 A 
ATOM     12  C   UNL     1       5.376   4.256  15.480  0.00  0.00    +0.000 A 
ATOM     13  C   UNL     1       6.407   5.172  15.705  0.00  0.00    +0.000 A 
ATOM     14 CL   UNL     1       7.708   5.295  14.528  0.00  0.00    +0.000 Cl
ATOM     15  C   UNL     1       6.386   5.981  16.854  0.00  0.00    +0.000 A 
ATOM     16 CL   UNL     1       7.656   7.156  17.163  0.00  0.00    +0.000 Cl
ATOM     17  C   UNL     1       5.325   5.873  17.760  0.00  0.00    +0.000 A 
ENDBRANCH   3  10
BRANCH   1  19
ATOM     18  C   UNL     1       1.254   2.874  21.083  0.00  0.00    +0.000 C 
ATOM     19  N   UNL     1       1.053   4.278  20.717  0.00  0.00    +0.000 NA
ATOM     20  H   UNL     1       0.324   4.681  21.351  0.00  0.00    +0.000 HD
ENDBRANCH   1  19
BRANCH   7  21
ATOM     21  O   UNL     1       1.080   9.869  20.198  0.00  0.00    +0.000 OA
ATOM     22  C   UNL     1      -0.241  10.264  20.259  0.00  0.00    +0.000 C 
ENDBRANCH   7  21
TORSDOF 3
ENDMDL
MODEL 5
REMARK VINA RESULT:      -7.5      0.772      1.558
REMARK  Name = 
REMARK  5 active torsions:
REMARK  status: ('A' for Active; 'I' for Inactive)
REMARK    1  A    between atoms: C_1  and  N_2
REMARK    2  A    between atoms: N_2  and  C_3
REMARK    3  A    between atoms: C_5  and  C_6
REMARK    4  A    between atoms: C_17  and  O_18
REMARK    5  A    between atoms: O_18  and  C_19
REMARK                            x       y       z     vdW  Elec       q    Type
REMARK                         _______ _______ _______ _____ _____    ______ ____
ROOT
ATOM      1  C   UNL     1       3.470   3.268  17.039  0.00  0.00    +0.000 C 
ATOM      2  C   UNL     1       2.426   4.052  17.857  0.00  0.00    +0.000 C 
ATOM      3  C   UNL     1       3.256   4.970  18.780  0.00  0.00    +0.000 C 
ATOM      4  C   UNL     1       4.438   5.247  17.910  0.00  0.00    +0.000 A 
ATOM      5  C   UNL     1       5.371   6.273  18.037  0.00  0.00    +0.000 A 
ATOM      6  C   UNL     1       6.380   6.388  17.076  0.00  0.00    +0.000 A 
ATOM      7  C   UNL     1       6.459   5.467  15.998  0.00  0.00    +0.000 A 
ATOM      8  C   UNL     1       5.531   4.414  15.923  0.00  0.00    +0.000 A 
ATOM      9  C   UNL     1       4.528   4.321  16.892  0.00  0.00    +0.000 A 
ENDROOT
BRANCH   3  10
ATOM     10  C   UNL     1       2.552   6.250  19.195  0.00  0.00    +0.000 A 
ATOM     11  C   UNL     1       2.020   6.364  20.489  0.00  0.00    +0.000 A 
ATOM     12  C   UNL     1       1.439   7.563  20.913  0.00  0.00    +0.000 A 
ATOM     13  C   UNL     1       1.391   8.666  20.056  0.00  0.00    +0.000 A 
ATOM     14 CL   UNL     1       0.687  10.168  20.640  0.00  0.00    +0.000 Cl
ATOM     15  C   UNL     1       1.909   8.562  18.754  0.00  0.00    +0.000 A 
ATOM     16 CL   UNL     1       1.881   9.931  17.651  0.00  0.00    +0.000 Cl
ATOM     17  C   UNL     1       2.481   7.358  18.328  0.00  0.00    +0.000 A 
ENDBRANCH   3  10
BRANCH   1  19
ATOM     18  C   UNL     1       2.948   1.526  18.690  0.00  0.00    +0.000 C 
ATOM     19  N   UNL     1       3.968   2.115  17.818  0.00  0.00    +0.000 NA
ATOM     20  H   UNL     1       4.333   1.362  17.188  0.00  0.00    +0.000 HD
ENDBRANCH   1  19
BRANCH   7  21
ATOM     21  O   UNL     1       7.400   5.570  15.025  0.00  0.00    +0.000 OA
ATOM     22  C   UNL     1       7.343   4.954  13.792  0.00  0.00    +0.000 C 
ENDBRANCH   7  21
TORSDOF 3
ENDMDL
MODEL 6
REMARK VINA RESULT:      -7.5      2.922      4.636
REMARK  Name = 
REMARK  5 active torsions:
REMARK  status: ('A' for Active; 'I' for Inactive)
REMARK    1  A    between atoms: C_1  and  N_2
REMARK    2  A    between atoms: N_2  and  C_3
REMARK    3  A    between atoms: C_5  and  C_6
REMARK    4  A    between atoms: C_17  and  O_18
REMARK    5  A    between atoms: O_18  and  C_19
REMARK                            x       y       z     vdW  Elec       q    Type
REMARK                         _______ _______ _______ _____ _____    ______ ____
ROOT
ATOM      1  C   UNL     1       7.592   6.352  17.259  0.00  0.00    +0.000 C 
ATOM      2  C   UNL     1       6.758   6.014  18.510  0.00  0.00    +0.000 C 
ATOM      3  C   UNL     1       5.309   5.883  17.995  0.00  0.00    +0.000 C 
ATOM      4  C   UNL     1       5.548   5.338  16.625  0.00  0.00    +0.000 A 
ATOM      5  C   UNL     1       4.637   4.692  15.791  0.00  0.00    +0.000 A 
ATOM      6  C   UNL     1       5.081   4.207  14.557  0.00  0.00    +0.000 A 
ATOM      7  C   UNL     1       6.432   4.380  14.157  0.00  0.00    +0.000 A 
ATOM      8  C   UNL     1       7.316   5.077  15.000  0.00  0.00    +0.000 A 
ATOM      9  C   UNL     1       6.851   5.550  16.230  0.00  0.00    +0.000 A 
ENDROOT
BRANCH   3  10
ATOM     10  C   UNL     1       4.426   4.962  18.820  0.00  0.00    +0.000 A 
ATOM     11  C   UNL     1       4.914   3.710  19.226  0.00  0.00    +0.000 A 
ATOM     12  C   UNL     1       4.145   2.884  20.051  0.00  0.00    +0.000 A 
ATOM     13  C   UNL     1       2.885   3.300  20.491  0.00  0.00    +0.000 A 
ATOM     14 CL   UNL     1       1.965   2.249  21.559  0.00  0.00    +0.000 Cl
ATOM     15  C   UNL     1       2.380   4.547  20.082  0.00  0.00    +0.000 A 
ATOM     16 CL   UNL     1       0.807   5.113  20.625  0.00  0.00    +0.000 Cl
ATOM     17  C   UNL     1       3.147   5.368  19.248  0.00  0.00    +0.000 A 
ENDBRANCH   3  10
BRANCH   1  19
ATOM     18  C   UNL     1       8.192   8.624  17.971  0.00  0.00    +0.000 C 
ATOM     19  N   UNL     1       7.513   7.799  16.968  0.00  0.00    +0.000 NA
ATOM     20  H   UNL     1       7.925   8.018  16.031  0.00  0.00    +0.000 HD
ENDBRANCH   1  19
BRANCH   7  21
ATOM     21  O   UNL     1       6.910   3.888  12.985  0.00  0.00    +0.000 OA
ATOM     22  C   UNL     1       6.186   3.136  12.083  0.00  0.00    +0.000 C 
ENDBRANCH   7  21
TORSDOF 3
ENDMDL
MODEL 7
REMARK VINA RESULT:      -7.4      3.421      4.875
REMARK  Name = 
REMARK  5 active torsions:
REMARK  status: ('A' for Active; 'I' for Inactive)
REMARK    1  A    between atoms: C_1  and  N_2
REMARK    2  A    between atoms: N_2  and  C_3
REMARK    3  A    between atoms: C_5  and  C_6
REMARK    4  A    between atoms: C_17  and  O_18
REMARK    5  A    between atoms: O_18  and  C_19
REMARK                            x       y       z     vdW  Elec       q    Type
REMARK                         _______ _______ _______ _____ _____    ______ ____
ROOT
ATOM      1  C   UNL     1       7.614   6.434  17.306  0.00  0.00    +0.000 C 
ATOM      2  C   UNL     1       6.826   6.152  18.600  0.00  0.00    +0.000 C 
ATOM      3  C   UNL     1       5.359   6.005  18.145  0.00  0.00    +0.000 C 
ATOM      4  C   UNL     1       5.545   5.403  16.791  0.00  0.00    +0.000 A 
ATOM      5  C   UNL     1       4.602   4.727  16.019  0.00  0.00    +0.000 A 
ATOM      6  C   UNL     1       4.998   4.190  14.791  0.00  0.00    +0.000 A 
ATOM      7  C   UNL     1       6.334   4.341  14.334  0.00  0.00    +0.000 A 
ATOM      8  C   UNL     1       7.250   5.069  15.113  0.00  0.00    +0.000 A 
ATOM      9  C   UNL     1       6.833   5.594  16.339  0.00  0.00    +0.000 A 
ENDROOT
BRANCH   3  10
ATOM     10  C   UNL     1       4.506   5.122  19.040  0.00  0.00    +0.000 A 
ATOM     11  C   UNL     1       3.275   5.598  19.517  0.00  0.00    +0.000 A 
ATOM     12  C   UNL     1       2.442   4.770  20.276  0.00  0.00    +0.000 A 
ATOM     13  C   UNL     1       2.822   3.455  20.560  0.00  0.00    +0.000 A 
ATOM     14 CL   UNL     1       1.729   2.434  21.485  0.00  0.00    +0.000 Cl
ATOM     15  C   UNL     1       4.057   2.969  20.097  0.00  0.00    +0.000 A 
ATOM     16 CL   UNL     1       4.564   1.317  20.419  0.00  0.00    +0.000 Cl
ATOM     17  C   UNL     1       4.894   3.802  19.346  0.00  0.00    +0.000 A 
ENDBRANCH   3  10
BRANCH   1  19
ATOM     18  C   UNL     1       8.149   8.740  17.959  0.00  0.00    +0.000 C 
ATOM     19  N   UNL     1       7.528   7.868  16.958  0.00  0.00    +0.000 NA
ATOM     20  H   UNL     1       7.978   8.060  16.033  0.00  0.00    +0.000 HD
ENDBRANCH   1  19
BRANCH   7  21
ATOM     21  O   UNL     1       6.766   3.800  13.165  0.00  0.00    +0.000 OA
ATOM     22  C   UNL     1       5.957   3.229  12.204  0.00  0.00    +0.000 C 
ENDBRANCH   7  21
TORSDOF 3
ENDMDL
MODEL 8
REMARK VINA RESULT:      -7.1      2.029      3.870
REMARK  Name = 
REMARK  5 active torsions:
REMARK  status: ('A' for Active; 'I' for Inactive)
REMARK    1  A    between atoms: C_1  and  N_2
REMARK    2  A    between atoms: N_2  and  C_3
REMARK    3  A    between atoms: C_5  and  C_6
REMARK    4  A    between atoms: C_17  and  O_18
REMARK    5  A    between atoms: O_18  and  C_19
REMARK                            x       y       z     vdW  Elec       q    Type
REMARK                         _______ _______ _______ _____ _____    ______ ____
ROOT
ATOM      1  C   UNL     1       5.244   6.053  17.148  0.00  0.00    +0.000 C 
ATOM      2  C   UNL     1       4.634   7.327  17.762  0.00  0.00    +0.000 C 
ATOM      3  C   UNL     1       3.116   7.194  17.521  0.00  0.00    +0.000 C 
ATOM      4  C   UNL     1       2.947   5.713  17.612  0.00  0.00    +0.000 A 
ATOM      5  C   UNL     1       1.769   4.998  17.818  0.00  0.00    +0.000 A 
ATOM      6  C   UNL     1       1.837   3.606  17.926  0.00  0.00    +0.000 A 
ATOM      7  C   UNL     1       3.082   2.933  17.815  0.00  0.00    +0.000 A 
ATOM      8  C   UNL     1       4.247   3.677  17.559  0.00  0.00    +0.000 A 
ATOM      9  C   UNL     1       4.156   5.069  17.459  0.00  0.00    +0.000 A 
ENDROOT
BRANCH   3  10
ATOM     10  C   UNL     1       2.249   7.922  18.534  0.00  0.00    +0.000 A 
ATOM     11  C   UNL     1       2.181   7.453  19.855  0.00  0.00    +0.000 A 
ATOM     12  C   UNL     1       1.451   8.157  20.819  0.00  0.00    +0.000 A 
ATOM     13  C   UNL     1       0.790   9.340  20.480  0.00  0.00    +0.000 A 
ATOM     14 CL   UNL     1      -0.085  10.215  21.729  0.00  0.00    +0.000 Cl
ATOM     15  C   UNL     1       0.841   9.814  19.157  0.00  0.00    +0.000 A 
ATOM     16 CL   UNL     1       0.035  11.307  18.694  0.00  0.00    +0.000 Cl
ATOM     17  C   UNL     1       1.563   9.104  18.192  0.00  0.00    +0.000 A 
ENDBRANCH   3  10
BRANCH   1  19
ATOM     18  C   UNL     1       6.299   5.215  15.095  0.00  0.00    +0.000 C 
ATOM     19  N   UNL     1       5.414   6.220  15.689  0.00  0.00    +0.000 NA
ATOM     20  H   UNL     1       4.492   6.177  15.195  0.00  0.00    +0.000 HD
ENDBRANCH   1  19
BRANCH   7  21
ATOM     21  O   UNL     1       3.193   1.587  17.953  0.00  0.00    +0.000 OA
ATOM     22  C   UNL     1       3.941   0.943  18.918  0.00  0.00    +0.000 C 
ENDBRANCH   7  21
TORSDOF 3
ENDMDL
MODEL 9
REMARK VINA RESULT:      -7.1      4.177      6.364
REMARK  Name = 
REMARK  5 active torsions:
REMARK  status: ('A' for Active; 'I' for Inactive)
REMARK    1  A    between atoms: C_1  and  N_2
REMARK    2  A    between atoms: N_2  and  C_3
REMARK    3  A    between atoms: C_5  and  C_6
REMARK    4  A    between atoms: C_17  and  O_18
REMARK    5  A    between atoms: O_18  and  C_19
REMARK                            x       y       z     vdW  Elec       q    Type
REMARK                         _______ _______ _______ _____ _____    ______ ____
ROOT
ATOM      1  C   UNL     1       3.426   3.757  19.952  0.00  0.00    +0.000 C 
ATOM      2  C   UNL     1       4.416   3.398  18.827  0.00  0.00    +0.000 C 
ATOM      3  C   UNL     1       3.850   4.088  17.568  0.00  0.00    +0.000 C 
ATOM      4  C   UNL     1       3.231   5.306  18.171  0.00  0.00    +0.000 A 
ATOM      5  C   UNL     1       2.861   6.485  17.526  0.00  0.00    +0.000 A 
ATOM      6  C   UNL     1       2.343   7.535  18.290  0.00  0.00    +0.000 A 
ATOM      7  C   UNL     1       2.185   7.397  19.694  0.00  0.00    +0.000 A 
ATOM      8  C   UNL     1       2.523   6.179  20.309  0.00  0.00    +0.000 A 
ATOM      9  C   UNL     1       3.043   5.144  19.526  0.00  0.00    +0.000 A 
ENDROOT
BRANCH   3  10
ATOM     10  C   UNL     1       4.893   4.446  16.523  0.00  0.00    +0.000 A 
ATOM     11  C   UNL     1       5.998   5.232  16.883  0.00  0.00    +0.000 A 
ATOM     12  C   UNL     1       7.006   5.505  15.953  0.00  0.00    +0.000 A 
ATOM     13  C   UNL     1       6.930   4.988  14.656  0.00  0.00    +0.000 A 
ATOM     14 CL   UNL     1       8.237   5.321  13.528  0.00  0.00    +0.000 Cl
ATOM     15  C   UNL     1       5.823   4.208  14.279  0.00  0.00    +0.000 A 
ATOM     16 CL   UNL     1       5.698   3.527  12.663  0.00  0.00    +0.000 Cl
ATOM     17  C   UNL     1       4.810   3.944  15.208  0.00  0.00    +0.000 A 
ENDBRANCH   3  10
BRANCH   1  19
ATOM     18  C   UNL     1       1.582   2.734  21.211  0.00  0.00    +0.000 C 
ATOM     19  N   UNL     1       2.262   2.847  19.918  0.00  0.00    +0.000 NA
ATOM     20  H   UNL     1       1.560   3.158  19.206  0.00  0.00    +0.000 HD
ENDBRANCH   1  19
BRANCH   7  21
ATOM     21  O   UNL     1       1.722   8.408  20.474  0.00  0.00    +0.000 OA
ATOM     22  C   UNL     1       0.712   8.297  21.407  0.00  0.00    +0.000 C 
ENDBRANCH   7  21
TORSDOF 3
ENDMDL
