MODEL 1
REMARK VINA RESULT:      -7.3      0.000      0.000
REMARK  Name = 
REMARK  13 active torsions:
REMARK  status: ('A' for Active; 'I' for Inactive)
REMARK    1  A    between atoms: C_1  and  C_2
REMARK    2  A    between atoms: C_2  and  C_3
REMARK    3  A    between atoms: C_3  and  C_4
REMARK    4  A    between atoms: C_4  and  O_5
REMARK    5  A    between atoms: O_5  and  C_6
REMARK    6  A    between atoms: C_10  and  N_11
REMARK    7  A    between atoms: N_12  and  C_13
REMARK    8  A    between atoms: C_14  and  O_15
REMARK    9  A    between atoms: C_24  and  O_25
REMARK   10  A    between atoms: O_25  and  C_26
REMARK   11  A    between atoms: C_26  and  C_27
REMARK   12  A    between atoms: C_27  and  C_28
REMARK   13  A    between atoms: C_28  and  C_29
REMARK                            x       y       z     vdW  Elec       q    Type
REMARK                         _______ _______ _______ _____ _____    ______ ____
ROOT
ATOM      1  C   UNL     1       6.241   4.449  15.260  0.00  0.00    +0.000 A 
ATOM      2  C   UNL     1       5.039   3.873  15.654  0.00  0.00    +0.000 A 
ATOM      3  C   UNL     1       4.284   4.437  16.689  0.00  0.00    +0.000 A 
ATOM      4 CL   UNL     1       2.883   3.537  17.162  0.00  0.00    +0.000 Cl
ATOM      5  C   UNL     1       4.674   5.634  17.320  0.00  0.00    +0.000 A 
ATOM      6  C   UNL     1       5.879   6.238  16.883  0.00  0.00    +0.000 A 
ATOM      7  C   UNL     1       6.663   5.624  15.884  0.00  0.00    +0.000 A 
ENDROOT
BRANCH   5   8
ATOM      8  N   UNL     1       3.958   6.198  18.414  0.00  0.00    +0.000 NA
ATOM      9  N   UNL     1       2.883   6.729  18.048  0.00  0.00    +0.000 NA
BRANCH   9  10
ATOM     10  C   UNL     1       2.149   7.297  19.130  0.00  0.00    +0.000 A 
ATOM     11  C   UNL     1       1.866   6.543  20.286  0.00  0.00    +0.000 A 
ATOM     12  C   UNL     1       1.256   7.108  21.399  0.00  0.00    +0.000 A 
ATOM     13  C   UNL     1       0.915   8.457  21.389  0.00  0.00    +0.000 A 
ATOM     14  C   UNL     1       1.168   9.253  20.264  0.00  0.00    +0.000 A 
ATOM     15  C   UNL     1       0.823  10.616  20.281  0.00  0.00    +0.000 A 
ATOM     16  C   UNL     1       1.063  11.433  19.179  0.00  0.00    +0.000 A 
ATOM     17  C   UNL     1       1.653  10.893  18.045  0.00  0.00    +0.000 A 
ATOM     18  C   UNL     1       2.013   9.541  18.020  0.00  0.00    +0.000 A 
ATOM     19  C   UNL     1       1.786   8.680  19.118  0.00  0.00    +0.000 A 
BRANCH  11  20
ATOM     20  O   UNL     1       2.199   5.215  20.381  0.00  0.00    +0.000 OA
ATOM     21  H   UNL     1       3.173   5.169  20.279  0.00  0.00    +0.000 HD
ENDBRANCH  11  20
ENDBRANCH   9  10
ENDBRANCH   5   8
BRANCH   1  22
ATOM     22  O   UNL     1       7.075   3.944  14.292  0.00  0.00    +0.000 OA
BRANCH  22  23
ATOM     23  C   UNL     1       6.812   4.381  12.953  0.00  0.00    +0.000 C 
BRANCH  23  24
ATOM     24  C   UNL     1       6.250   3.222  12.130  0.00  0.00    +0.000 C 
BRANCH  24  26
ATOM     25  C   UNL     1       4.112   3.565  10.829  0.00  0.00    +0.000 C 
ATOM     26  C   UNL     1       4.723   3.222  12.176  0.00  0.00    +0.000 C 
ENDBRANCH  24  26
ENDBRANCH  23  24
ENDBRANCH  22  23
ENDBRANCH   1  22
BRANCH   6  27
ATOM     27  O   UNL     1       6.239   7.418  17.498  0.00  0.00    +0.000 OA
BRANCH  27  28
ATOM     28  C   UNL     1       7.647   7.668  17.625  0.00  0.00    +0.000 C 
BRANCH  28  29
ATOM     29  C   UNL     1       7.860   9.176  17.753  0.00  0.00    +0.000 C 
BRANCH  29  30
ATOM     30  C   UNL     1       8.839   9.516  18.876  0.00  0.00    +0.000 C 
ATOM     31  C   UNL     1       9.554  10.834  18.618  0.00  0.00    +0.000 C 
ENDBRANCH  29  30
ENDBRANCH  28  29
ENDBRANCH  27  28
ENDBRANCH   6  27
TORSDOF 11
ENDMDL
MODEL 2
REMARK VINA RESULT:      -7.0      2.808      5.004
REMARK  Name = 
REMARK  13 active torsions:
REMARK  status: ('A' for Active; 'I' for Inactive)
REMARK    1  A    between atoms: C_1  and  C_2
REMARK    2  A    between atoms: C_2  and  C_3
REMARK    3  A    between atoms: C_3  and  C_4
REMARK    4  A    between atoms: C_4  and  O_5
REMARK    5  A    between atoms: O_5  and  C_6
REMARK    6  A    between atoms: C_10  and  N_11
REMARK    7  A    between atoms: N_12  and  C_13
REMARK    8  A    between atoms: C_14  and  O_15
REMARK    9  A    between atoms: C_24  and  O_25
REMARK   10  A    between atoms: O_25  and  C_26
REMARK   11  A    between atoms: C_26  and  C_27
REMARK   12  A    between atoms: C_27  and  C_28
REMARK   13  A    between atoms: C_28  and  C_29
REMARK                            x       y       z     vdW  Elec       q    Type
REMARK                         _______ _______ _______ _____ _____    ______ ____
ROOT
ATOM      1  C   UNL     1       4.412   5.613  17.920  0.00  0.00    +0.000 A 
ATOM      2  C   UNL     1       3.996   6.858  17.465  0.00  0.00    +0.000 A 
ATOM      3  C   UNL     1       3.025   7.585  18.165  0.00  0.00    +0.000 A 
ATOM      4 CL   UNL     1       2.508   9.054  17.407  0.00  0.00    +0.000 Cl
ATOM      5  C   UNL     1       2.486   7.119  19.379  0.00  0.00    +0.000 A 
ATOM      6  C   UNL     1       2.947   5.868  19.858  0.00  0.00    +0.000 A 
ATOM      7  C   UNL     1       3.877   5.117  19.110  0.00  0.00    +0.000 A 
ENDROOT
BRANCH   5   8
ATOM      8  N   UNL     1       1.455   7.808  20.081  0.00  0.00    +0.000 NA
ATOM      9  N   UNL     1       1.538   9.050  19.936  0.00  0.00    +0.000 NA
BRANCH   9  10
ATOM     10  C   UNL     1       0.513   9.758  20.628  0.00  0.00    +0.000 A 
ATOM     11  C   UNL     1       0.534   9.871  22.032  0.00  0.00    +0.000 A 
ATOM     12  C   UNL     1      -0.388  10.653  22.718  0.00  0.00    +0.000 A 
ATOM     13  C   UNL     1      -1.361  11.353  22.012  0.00  0.00    +0.000 A 
ATOM     14  C   UNL     1      -1.431  11.273  20.614  0.00  0.00    +0.000 A 
ATOM     15  C   UNL     1      -2.418  11.997  19.923  0.00  0.00    +0.000 A 
ATOM     16  C   UNL     1      -2.512  11.939  18.535  0.00  0.00    +0.000 A 
ATOM     17  C   UNL     1      -1.619  11.152  17.823  0.00  0.00    +0.000 A 
ATOM     18  C   UNL     1      -0.625  10.436  18.499  0.00  0.00    +0.000 A 
ATOM     19  C   UNL     1      -0.496  10.469  19.905  0.00  0.00    +0.000 A 
BRANCH  11  20
ATOM     20  O   UNL     1       1.480   9.233  22.794  0.00  0.00    +0.000 OA
ATOM     21  H   UNL     1       1.395   8.278  22.592  0.00  0.00    +0.000 HD
ENDBRANCH  11  20
ENDBRANCH   9  10
ENDBRANCH   5   8
BRANCH   1  22
ATOM     22  O   UNL     1       5.319   4.804  17.280  0.00  0.00    +0.000 OA
BRANCH  22  23
ATOM     23  C   UNL     1       4.932   4.341  15.981  0.00  0.00    +0.000 C 
BRANCH  23  24
ATOM     24  C   UNL     1       6.112   3.643  15.305  0.00  0.00    +0.000 C 
BRANCH  24  26
ATOM     25  C   UNL     1       6.031   3.595  12.781  0.00  0.00    +0.000 C 
ATOM     26  C   UNL     1       6.489   4.360  14.010  0.00  0.00    +0.000 C 
ENDBRANCH  24  26
ENDBRANCH  23  24
ENDBRANCH  22  23
ENDBRANCH   1  22
BRANCH   6  27
ATOM     27  O   UNL     1       2.424   5.433  21.057  0.00  0.00    +0.000 OA
BRANCH  27  28
ATOM     28  C   UNL     1       2.030   4.053  21.118  0.00  0.00    +0.000 C 
BRANCH  28  29
ATOM     29  C   UNL     1       0.734   3.884  20.327  0.00  0.00    +0.000 C 
BRANCH  29  30
ATOM     30  C   UNL     1       0.846   2.771  19.287  0.00  0.00    +0.000 C 
ATOM     31  C   UNL     1       2.160   2.015  19.412  0.00  0.00    +0.000 C 
ENDBRANCH  29  30
ENDBRANCH  28  29
ENDBRANCH  27  28
ENDBRANCH   6  27
TORSDOF 11
ENDMDL
MODEL 3
REMARK VINA RESULT:      -7.0      3.158      5.697
REMARK  Name = 
REMARK  13 active torsions:
REMARK  status: ('A' for Active; 'I' for Inactive)
REMARK    1  A    between atoms: C_1  and  C_2
REMARK    2  A    between atoms: C_2  and  C_3
REMARK    3  A    between atoms: C_3  and  C_4
REMARK    4  A    between atoms: C_4  and  O_5
REMARK    5  A    between atoms: O_5  and  C_6
REMARK    6  A    between atoms: C_10  and  N_11
REMARK    7  A    between atoms: N_12  and  C_13
REMARK    8  A    between atoms: C_14  and  O_15
REMARK    9  A    between atoms: C_24  and  O_25
REMARK   10  A    between atoms: O_25  and  C_26
REMARK   11  A    between atoms: C_26  and  C_27
REMARK   12  A    between atoms: C_27  and  C_28
REMARK   13  A    between atoms: C_28  and  C_29
REMARK                            x       y       z     vdW  Elec       q    Type
REMARK                         _______ _______ _______ _____ _____    ______ ____
ROOT
ATOM      1  C   UNL     1       4.020   5.995  17.814  0.00  0.00    +0.000 A 
ATOM      2  C   UNL     1       3.674   7.304  17.506  0.00  0.00    +0.000 A 
ATOM      3  C   UNL     1       2.727   7.991  18.277  0.00  0.00    +0.000 A 
ATOM      4 CL   UNL     1       2.296   9.563  17.695  0.00  0.00    +0.000 Cl
ATOM      5  C   UNL     1       2.144   7.411  19.419  0.00  0.00    +0.000 A 
ATOM      6  C   UNL     1       2.535   6.090  19.750  0.00  0.00    +0.000 A 
ATOM      7  C   UNL     1       3.441   5.387  18.928  0.00  0.00    +0.000 A 
ENDROOT
BRANCH   5   8
ATOM      8  N   UNL     1       1.135   8.061  20.187  0.00  0.00    +0.000 NA
ATOM      9  N   UNL     1       1.249   9.309  20.149  0.00  0.00    +0.000 NA
BRANCH   9  10
ATOM     10  C   UNL     1       0.246   9.979  20.907  0.00  0.00    +0.000 A 
ATOM     11  C   UNL     1       0.279   9.972  22.316  0.00  0.00    +0.000 A 
ATOM     12  C   UNL     1      -0.618  10.714  23.074  0.00  0.00    +0.000 A 
ATOM     13  C   UNL     1      -1.578  11.496  22.439  0.00  0.00    +0.000 A 
ATOM     14  C   UNL     1      -1.660  11.537  21.040  0.00  0.00    +0.000 A 
ATOM     15  C   UNL     1      -2.632  12.342  20.421  0.00  0.00    +0.000 A 
ATOM     16  C   UNL     1      -2.737  12.405  19.034  0.00  0.00    +0.000 A 
ATOM     17  C   UNL     1      -1.868  11.660  18.250  0.00  0.00    +0.000 A 
ATOM     18  C   UNL     1      -0.888  10.865  18.854  0.00  0.00    +0.000 A 
ATOM     19  C   UNL     1      -0.750  10.775  20.257  0.00  0.00    +0.000 A 
BRANCH  11  20
ATOM     20  O   UNL     1       1.214   9.248  23.012  0.00  0.00    +0.000 OA
ATOM     21  H   UNL     1       0.771   8.945  23.831  0.00  0.00    +0.000 HD
ENDBRANCH  11  20
ENDBRANCH   9  10
ENDBRANCH   5   8
BRANCH   1  22
ATOM     22  O   UNL     1       4.898   5.223  17.092  0.00  0.00    +0.000 OA
BRANCH  22  23
ATOM     23  C   UNL     1       6.065   4.783  17.796  0.00  0.00    +0.000 C 
BRANCH  23  24
ATOM     24  C   UNL     1       6.823   5.990  18.350  0.00  0.00    +0.000 C 
BRANCH  24  26
ATOM     25  C   UNL     1       7.901   8.172  17.673  0.00  0.00    +0.000 C 
ATOM     26  C   UNL     1       7.453   6.795  17.215  0.00  0.00    +0.000 C 
ENDBRANCH  24  26
ENDBRANCH  23  24
ENDBRANCH  22  23
ENDBRANCH   1  22
BRANCH   6  27
ATOM     27  O   UNL     1       1.969   5.541  20.881  0.00  0.00    +0.000 OA
BRANCH  27  28
ATOM     28  C   UNL     1       2.347   4.191  21.194  0.00  0.00    +0.000 C 
BRANCH  28  29
ATOM     29  C   UNL     1       1.112   3.301  21.064  0.00  0.00    +0.000 C 
BRANCH  29  30
ATOM     30  C   UNL     1       0.884   2.856  19.620  0.00  0.00    +0.000 C 
ATOM     31  C   UNL     1       2.010   1.961  19.123  0.00  0.00    +0.000 C 
ENDBRANCH  29  30
ENDBRANCH  28  29
ENDBRANCH  27  28
ENDBRANCH   6  27
TORSDOF 11
ENDMDL
MODEL 4
REMARK VINA RESULT:      -7.0      2.163      3.965
REMARK  Name = 
REMARK  13 active torsions:
REMARK  status: ('A' for Active; 'I' for Inactive)
REMARK    1  A    between atoms: C_1  and  C_2
REMARK    2  A    between atoms: C_2  and  C_3
REMARK    3  A    between atoms: C_3  and  C_4
REMARK    4  A    between atoms: C_4  and  O_5
REMARK    5  A    between atoms: O_5  and  C_6
REMARK    6  A    between atoms: C_10  and  N_11
REMARK    7  A    between atoms: N_12  and  C_13
REMARK    8  A    between atoms: C_14  and  O_15
REMARK    9  A    between atoms: C_24  and  O_25
REMARK   10  A    between atoms: O_25  and  C_26
REMARK   11  A    between atoms: C_26  and  C_27
REMARK   12  A    between atoms: C_27  and  C_28
REMARK   13  A    between atoms: C_28  and  C_29
REMARK                            x       y       z     vdW  Elec       q    Type
REMARK                         _______ _______ _______ _____ _____    ______ ____
ROOT
ATOM      1  C   UNL     1       6.042   4.414  15.471  0.00  0.00    +0.000 A 
ATOM      2  C   UNL     1       6.526   5.607  15.992  0.00  0.00    +0.000 A 
ATOM      3  C   UNL     1       5.851   6.256  17.033  0.00  0.00    +0.000 A 
ATOM      4 CL   UNL     1       6.494   7.798  17.487  0.00  0.00    +0.000 Cl
ATOM      5  C   UNL     1       4.704   5.699  17.630  0.00  0.00    +0.000 A 
ATOM      6  C   UNL     1       4.241   4.461  17.120  0.00  0.00    +0.000 A 
ATOM      7  C   UNL     1       4.893   3.850  16.029  0.00  0.00    +0.000 A 
ENDROOT
BRANCH   5   8
ATOM      8  N   UNL     1       3.962   6.365  18.648  0.00  0.00    +0.000 NA
ATOM      9  N   UNL     1       2.900   6.864  18.205  0.00  0.00    +0.000 NA
BRANCH   9  10
ATOM     10  C   UNL     1       2.141   7.531  19.210  0.00  0.00    +0.000 A 
ATOM     11  C   UNL     1       1.839   6.894  20.429  0.00  0.00    +0.000 A 
ATOM     12  C   UNL     1       1.203   7.563  21.468  0.00  0.00    +0.000 A 
ATOM     13  C   UNL     1       0.855   8.902  21.316  0.00  0.00    +0.000 A 
ATOM     14  C   UNL     1       1.128   9.584  20.122  0.00  0.00    +0.000 A 
ATOM     15  C   UNL     1       0.774  10.939  19.996  0.00  0.00    +0.000 A 
ATOM     16  C   UNL     1       1.033  11.644  18.824  0.00  0.00    +0.000 A 
ATOM     17  C   UNL     1       1.649  10.997  17.762  0.00  0.00    +0.000 A 
ATOM     18  C   UNL     1       2.017   9.652  17.879  0.00  0.00    +0.000 A 
ATOM     19  C   UNL     1       1.771   8.904  19.052  0.00  0.00    +0.000 A 
BRANCH  11  20
ATOM     20  O   UNL     1       2.177   5.584  20.663  0.00  0.00    +0.000 OA
ATOM     21  H   UNL     1       3.083   5.468  20.309  0.00  0.00    +0.000 HD
ENDBRANCH  11  20
ENDBRANCH   9  10
ENDBRANCH   5   8
BRANCH   1  22
ATOM     22  O   UNL     1       6.603   3.728  14.421  0.00  0.00    +0.000 OA
BRANCH  22  23
ATOM     23  C   UNL     1       7.232   4.533  13.417  0.00  0.00    +0.000 C 
BRANCH  23  24
ATOM     24  C   UNL     1       6.771   4.087  12.029  0.00  0.00    +0.000 C 
BRANCH  24  26
ATOM     25  C   UNL     1       5.883   1.804  11.412  0.00  0.00    +0.000 C 
ATOM     26  C   UNL     1       5.605   3.107  12.141  0.00  0.00    +0.000 C 
ENDBRANCH  24  26
ENDBRANCH  23  24
ENDBRANCH  22  23
ENDBRANCH   1  22
BRANCH   6  27
ATOM     27  O   UNL     1       3.127   3.920  17.726  0.00  0.00    +0.000 OA
BRANCH  27  28
ATOM     28  C   UNL     1       3.328   2.702  18.461  0.00  0.00    +0.000 C 
BRANCH  28  29
ATOM     29  C   UNL     1       2.017   1.916  18.460  0.00  0.00    +0.000 C 
BRANCH  29  30
ATOM     30  C   UNL     1       0.877   2.715  19.089  0.00  0.00    +0.000 C 
ATOM     31  C   UNL     1       0.981   2.743  20.607  0.00  0.00    +0.000 C 
ENDBRANCH  29  30
ENDBRANCH  28  29
ENDBRANCH  27  28
ENDBRANCH   6  27
TORSDOF 11
ENDMDL
MODEL 5
REMARK VINA RESULT:      -6.9      2.230      3.693
REMARK  Name = 
REMARK  13 active torsions:
REMARK  status: ('A' for Active; 'I' for Inactive)
REMARK    1  A    between atoms: C_1  and  C_2
REMARK    2  A    between atoms: C_2  and  C_3
REMARK    3  A    between atoms: C_3  and  C_4
REMARK    4  A    between atoms: C_4  and  O_5
REMARK    5  A    between atoms: O_5  and  C_6
REMARK    6  A    between atoms: C_10  and  N_11
REMARK    7  A    between atoms: N_12  and  C_13
REMARK    8  A    between atoms: C_14  and  O_15
REMARK    9  A    between atoms: C_24  and  O_25
REMARK   10  A    between atoms: O_25  and  C_26
REMARK   11  A    between atoms: C_26  and  C_27
REMARK   12  A    between atoms: C_27  and  C_28
REMARK   13  A    between atoms: C_28  and  C_29
REMARK                            x       y       z     vdW  Elec       q    Type
REMARK                         _______ _______ _______ _____ _____    ______ ____
ROOT
ATOM      1  C   UNL     1       5.688   4.197  15.744  0.00  0.00    +0.000 A 
ATOM      2  C   UNL     1       6.269   5.354  16.249  0.00  0.00    +0.000 A 
ATOM      3  C   UNL     1       5.629   6.093  17.252  0.00  0.00    +0.000 A 
ATOM      4 CL   UNL     1       6.401   7.580  17.686  0.00  0.00    +0.000 Cl
ATOM      5  C   UNL     1       4.419   5.662  17.829  0.00  0.00    +0.000 A 
ATOM      6  C   UNL     1       3.856   4.458  17.338  0.00  0.00    +0.000 A 
ATOM      7  C   UNL     1       4.477   3.759  16.282  0.00  0.00    +0.000 A 
ENDROOT
BRANCH   5   8
ATOM      8  N   UNL     1       3.716   6.422  18.807  0.00  0.00    +0.000 NA
ATOM      9  N   UNL     1       2.728   7.018  18.317  0.00  0.00    +0.000 NA
BRANCH   9  10
ATOM     10  C   UNL     1       2.008   7.781  19.282  0.00  0.00    +0.000 A 
ATOM     11  C   UNL     1       1.608   7.208  20.505  0.00  0.00    +0.000 A 
ATOM     12  C   UNL     1       1.010   7.962  21.508  0.00  0.00    +0.000 A 
ATOM     13  C   UNL     1       0.799   9.324  21.314  0.00  0.00    +0.000 A 
ATOM     14  C   UNL     1       1.173   9.945  20.115  0.00  0.00    +0.000 A 
ATOM     15  C   UNL     1       0.958  11.324  19.947  0.00  0.00    +0.000 A 
ATOM     16  C   UNL     1       1.320  11.971  18.768  0.00  0.00    +0.000 A 
ATOM     17  C   UNL     1       1.901  11.241  17.741  0.00  0.00    +0.000 A 
ATOM     18  C   UNL     1       2.132   9.870  17.900  0.00  0.00    +0.000 A 
ATOM     19  C   UNL     1       1.779   9.179  19.081  0.00  0.00    +0.000 A 
BRANCH  11  20
ATOM     20  O   UNL     1       1.809   5.878  20.779  0.00  0.00    +0.000 OA
ATOM     21  H   UNL     1       2.686   5.652  20.406  0.00  0.00    +0.000 HD
ENDBRANCH  11  20
ENDBRANCH   9  10
ENDBRANCH   5   8
BRANCH   1  22
ATOM     22  O   UNL     1       6.211   3.433  14.729  0.00  0.00    +0.000 OA
BRANCH  22  23
ATOM     23  C   UNL     1       6.474   4.123  13.502  0.00  0.00    +0.000 C 
BRANCH  23  24
ATOM     24  C   UNL     1       5.916   3.323  12.325  0.00  0.00    +0.000 C 
BRANCH  24  26
ATOM     25  C   UNL     1       3.870   2.944  10.892  0.00  0.00    +0.000 C 
ATOM     26  C   UNL     1       4.507   3.799  11.974  0.00  0.00    +0.000 C 
ENDBRANCH  24  26
ENDBRANCH  23  24
ENDBRANCH  22  23
ENDBRANCH   1  22
BRANCH   6  27
ATOM     27  O   UNL     1       2.680   4.040  17.924  0.00  0.00    +0.000 OA
BRANCH  27  28
ATOM     28  C   UNL     1       2.622   2.663  18.326  0.00  0.00    +0.000 C 
BRANCH  28  29
ATOM     29  C   UNL     1       1.982   2.591  19.712  0.00  0.00    +0.000 C 
BRANCH  29  30
ATOM     30  C   UNL     1       3.032   2.555  20.821  0.00  0.00    +0.000 C 
ATOM     31  C   UNL     1       4.417   2.242  20.272  0.00  0.00    +0.000 C 
ENDBRANCH  29  30
ENDBRANCH  28  29
ENDBRANCH  27  28
ENDBRANCH   6  27
TORSDOF 11
ENDMDL
MODEL 6
REMARK VINA RESULT:      -6.6      1.152      1.547
REMARK  Name = 
REMARK  13 active torsions:
REMARK  status: ('A' for Active; 'I' for Inactive)
REMARK    1  A    between atoms: C_1  and  C_2
REMARK    2  A    between atoms: C_2  and  C_3
REMARK    3  A    between atoms: C_3  and  C_4
REMARK    4  A    between atoms: C_4  and  O_5
REMARK    5  A    between atoms: O_5  and  C_6
REMARK    6  A    between atoms: C_10  and  N_11
REMARK    7  A    between atoms: N_12  and  C_13
REMARK    8  A    between atoms: C_14  and  O_15
REMARK    9  A    between atoms: C_24  and  O_25
REMARK   10  A    between atoms: O_25  and  C_26
REMARK   11  A    between atoms: C_26  and  C_27
REMARK   12  A    between atoms: C_27  and  C_28
REMARK   13  A    between atoms: C_28  and  C_29
REMARK                            x       y       z     vdW  Elec       q    Type
REMARK                         _______ _______ _______ _____ _____    ______ ____
ROOT
ATOM      1  C   UNL     1       6.009   3.945  14.853  0.00  0.00    +0.000 A 
ATOM      2  C   UNL     1       5.168   3.218  15.686  0.00  0.00    +0.000 A 
ATOM      3  C   UNL     1       4.506   3.841  16.751  0.00  0.00    +0.000 A 
ATOM      4 CL   UNL     1       3.603   2.786  17.783  0.00  0.00    +0.000 Cl
ATOM      5  C   UNL     1       4.613   5.227  16.977  0.00  0.00    +0.000 A 
ATOM      6  C   UNL     1       5.439   5.969  16.097  0.00  0.00    +0.000 A 
ATOM      7  C   UNL     1       6.151   5.317  15.068  0.00  0.00    +0.000 A 
ENDROOT
BRANCH   5   8
ATOM      8  N   UNL     1       4.000   5.878  18.086  0.00  0.00    +0.000 NA
ATOM      9  N   UNL     1       2.804   6.172  17.855  0.00  0.00    +0.000 NA
BRANCH   9  10
ATOM     10  C   UNL     1       2.171   6.821  18.954  0.00  0.00    +0.000 A 
ATOM     11  C   UNL     1       1.939   6.134  20.162  0.00  0.00    +0.000 A 
ATOM     12  C   UNL     1       1.431   6.777  21.285  0.00  0.00    +0.000 A 
ATOM     13  C   UNL     1       1.145   8.138  21.231  0.00  0.00    +0.000 A 
ATOM     14  C   UNL     1       1.352   8.869  20.054  0.00  0.00    +0.000 A 
ATOM     15  C   UNL     1       1.064  10.245  20.027  0.00  0.00    +0.000 A 
ATOM     16  C   UNL     1       1.261  10.999  18.873  0.00  0.00    +0.000 A 
ATOM     17  C   UNL     1       1.748  10.381  17.730  0.00  0.00    +0.000 A 
ATOM     18  C   UNL     1       2.050   9.015  17.747  0.00  0.00    +0.000 A 
ATOM     19  C   UNL     1       1.864   8.217  18.899  0.00  0.00    +0.000 A 
BRANCH  11  20
ATOM     20  O   UNL     1       2.223   4.798  20.300  0.00  0.00    +0.000 OA
ATOM     21  H   UNL     1       1.608   4.457  20.981  0.00  0.00    +0.000 HD
ENDBRANCH  11  20
ENDBRANCH   9  10
ENDBRANCH   5   8
BRANCH   1  22
ATOM     22  O   UNL     1       6.739   3.417  13.816  0.00  0.00    +0.000 OA
BRANCH  22  23
ATOM     23  C   UNL     1       6.434   3.931  12.514  0.00  0.00    +0.000 C 
BRANCH  23  24
ATOM     24  C   UNL     1       5.305   3.114  11.884  0.00  0.00    +0.000 C 
BRANCH  24  26
ATOM     25  C   UNL     1       7.263   1.805  10.971  0.00  0.00    +0.000 C 
ATOM     26  C   UNL     1       5.818   1.747  11.436  0.00  0.00    +0.000 C 
ENDBRANCH  24  26
ENDBRANCH  23  24
ENDBRANCH  22  23
ENDBRANCH   1  22
BRANCH   6  27
ATOM     27  O   UNL     1       5.520   7.326  16.320  0.00  0.00    +0.000 OA
BRANCH  27  28
ATOM     28  C   UNL     1       6.107   7.735  17.565  0.00  0.00    +0.000 C 
BRANCH  28  29
ATOM     29  C   UNL     1       7.627   7.643  17.436  0.00  0.00    +0.000 C 
BRANCH  29  30
ATOM     30  C   UNL     1       8.262   6.997  18.667  0.00  0.00    +0.000 C 
ATOM     31  C   UNL     1       7.709   5.603  18.918  0.00  0.00    +0.000 C 
ENDBRANCH  29  30
ENDBRANCH  28  29
ENDBRANCH  27  28
ENDBRANCH   6  27
TORSDOF 11
ENDMDL
MODEL 7
REMARK VINA RESULT:      -6.6      4.557     10.462
REMARK  Name = 
REMARK  13 active torsions:
REMARK  status: ('A' for Active; 'I' for Inactive)
REMARK    1  A    between atoms: C_1  and  C_2
REMARK    2  A    between atoms: C_2  and  C_3
REMARK    3  A    between atoms: C_3  and  C_4
REMARK    4  A    between atoms: C_4  and  O_5
REMARK    5  A    between atoms: O_5  and  C_6
REMARK    6  A    between atoms: C_10  and  N_11
REMARK    7  A    between atoms: N_12  and  C_13
REMARK    8  A    between atoms: C_14  and  O_15
REMARK    9  A    between atoms: C_24  and  O_25
REMARK   10  A    between atoms: O_25  and  C_26
REMARK   11  A    between atoms: C_26  and  C_27
REMARK   12  A    between atoms: C_27  and  C_28
REMARK   13  A    between atoms: C_28  and  C_29
REMARK                            x       y       z     vdW  Elec       q    Type
REMARK                         _______ _______ _______ _____ _____    ______ ____
ROOT
ATOM      1  C   UNL     1      -1.988  11.967  22.294  0.00  0.00    +0.000 A 
ATOM      2  C   UNL     1      -1.133  11.093  22.954  0.00  0.00    +0.000 A 
ATOM      3  C   UNL     1      -0.115  10.430  22.258  0.00  0.00    +0.000 A 
ATOM      4 CL   UNL     1       0.782   9.272  23.180  0.00  0.00    +0.000 Cl
ATOM      5  C   UNL     1       0.122  10.670  20.891  0.00  0.00    +0.000 A 
ATOM      6  C   UNL     1      -0.728  11.595  20.235  0.00  0.00    +0.000 A 
ATOM      7  C   UNL     1      -1.790  12.206  20.934  0.00  0.00    +0.000 A 
ENDROOT
BRANCH   5   8
ATOM      8  N   UNL     1       1.110   9.968  20.144  0.00  0.00    +0.000 NA
ATOM      9  N   UNL     1       0.741   8.805  19.854  0.00  0.00    +0.000 NA
BRANCH   9  10
ATOM     10  C   UNL     1       1.715   8.087  19.102  0.00  0.00    +0.000 A 
ATOM     11  C   UNL     1       2.335   8.669  17.979  0.00  0.00    +0.000 A 
ATOM     12  C   UNL     1       3.370   8.035  17.301  0.00  0.00    +0.000 A 
ATOM     13  C   UNL     1       3.820   6.792  17.736  0.00  0.00    +0.000 A 
ATOM     14  C   UNL     1       3.236   6.164  18.845  0.00  0.00    +0.000 A 
ATOM     15  C   UNL     1       3.715   4.913  19.270  0.00  0.00    +0.000 A 
ATOM     16  C   UNL     1       3.157   4.264  20.369  0.00  0.00    +0.000 A 
ATOM     17  C   UNL     1       2.109   4.863  21.054  0.00  0.00    +0.000 A 
ATOM     18  C   UNL     1       1.632   6.114  20.648  0.00  0.00    +0.000 A 
ATOM     19  C   UNL     1       2.173   6.803  19.539  0.00  0.00    +0.000 A 
BRANCH  11  20
ATOM     20  O   UNL     1       1.965   9.904  17.509  0.00  0.00    +0.000 OA
ATOM     21  H   UNL     1       2.135   9.892  16.545  0.00  0.00    +0.000 HD
ENDBRANCH  11  20
ENDBRANCH   9  10
ENDBRANCH   5   8
BRANCH   1  22
ATOM     22  O   UNL     1      -3.045  12.624  22.877  0.00  0.00    +0.000 OA
BRANCH  22  23
ATOM     23  C   UNL     1      -3.430  13.857  22.257  0.00  0.00    +0.000 C 
BRANCH  23  24
ATOM     24  C   UNL     1      -2.709  15.025  22.930  0.00  0.00    +0.000 C 
BRANCH  24  26
ATOM     25  C   UNL     1      -2.890  14.962  25.449  0.00  0.00    +0.000 C 
ATOM     26  C   UNL     1      -3.486  15.496  24.158  0.00  0.00    +0.000 C 
ENDBRANCH  24  26
ENDBRANCH  23  24
ENDBRANCH  22  23
ENDBRANCH   1  22
BRANCH   6  27
ATOM     27  O   UNL     1      -0.473  11.833  18.902  0.00  0.00    +0.000 OA
BRANCH  27  28
ATOM     28  C   UNL     1      -1.585  11.694  18.004  0.00  0.00    +0.000 C 
BRANCH  28  29
ATOM     29  C   UNL     1      -1.694  10.226  17.594  0.00  0.00    +0.000 C 
BRANCH  29  30
ATOM     30  C   UNL     1      -3.108   9.868  17.139  0.00  0.00    +0.000 C 
ATOM     31  C   UNL     1      -3.973  11.107  16.969  0.00  0.00    +0.000 C 
ENDBRANCH  29  30
ENDBRANCH  28  29
ENDBRANCH  27  28
ENDBRANCH   6  27
TORSDOF 11
ENDMDL
MODEL 8
REMARK VINA RESULT:      -6.5      3.536      5.786
REMARK  Name = 
REMARK  13 active torsions:
REMARK  status: ('A' for Active; 'I' for Inactive)
REMARK    1  A    between atoms: C_1  and  C_2
REMARK    2  A    between atoms: C_2  and  C_3
REMARK    3  A    between atoms: C_3  and  C_4
REMARK    4  A    between atoms: C_4  and  O_5
REMARK    5  A    between atoms: O_5  and  C_6
REMARK    6  A    between atoms: C_10  and  N_11
REMARK    7  A    between atoms: N_12  and  C_13
REMARK    8  A    between atoms: C_14  and  O_15
REMARK    9  A    between atoms: C_24  and  O_25
REMARK   10  A    between atoms: O_25  and  C_26
REMARK   11  A    between atoms: C_26  and  C_27
REMARK   12  A    between atoms: C_27  and  C_28
REMARK   13  A    between atoms: C_28  and  C_29
REMARK                            x       y       z     vdW  Elec       q    Type
REMARK                         _______ _______ _______ _____ _____    ______ ____
ROOT
ATOM      1  C   UNL     1       3.706   7.000  17.722  0.00  0.00    +0.000 A 
ATOM      2  C   UNL     1       3.346   8.307  17.420  0.00  0.00    +0.000 A 
ATOM      3  C   UNL     1       2.373   8.972  18.179  0.00  0.00    +0.000 A 
ATOM      4 CL   UNL     1       1.929  10.543  17.604  0.00  0.00    +0.000 Cl
ATOM      5  C   UNL     1       1.778   8.372  19.304  0.00  0.00    +0.000 A 
ATOM      6  C   UNL     1       2.183   7.054  19.631  0.00  0.00    +0.000 A 
ATOM      7  C   UNL     1       3.115   6.373  18.820  0.00  0.00    +0.000 A 
ENDROOT
BRANCH   5   8
ATOM      8  N   UNL     1       0.745   8.999  20.058  0.00  0.00    +0.000 NA
ATOM      9  N   UNL     1       1.111  10.103  20.528  0.00  0.00    +0.000 NA
BRANCH   9  10
ATOM     10  C   UNL     1       0.090  10.749  21.282  0.00  0.00    +0.000 A 
ATOM     11  C   UNL     1      -0.408  10.173  22.468  0.00  0.00    +0.000 A 
ATOM     12  C   UNL     1      -1.317  10.839  23.281  0.00  0.00    +0.000 A 
ATOM     13  C   UNL     1      -1.753  12.113  22.930  0.00  0.00    +0.000 A 
ATOM     14  C   UNL     1      -1.295  12.732  21.759  0.00  0.00    +0.000 A 
ATOM     15  C   UNL     1      -1.743  14.023  21.431  0.00  0.00    +0.000 A 
ATOM     16  C   UNL     1      -1.305  14.665  20.276  0.00  0.00    +0.000 A 
ATOM     17  C   UNL     1      -0.412  14.018  19.433  0.00  0.00    +0.000 A 
ATOM     18  C   UNL     1       0.051  12.737  19.755  0.00  0.00    +0.000 A 
ATOM     19  C   UNL     1      -0.370  12.054  20.918  0.00  0.00    +0.000 A 
BRANCH  11  20
ATOM     20  O   UNL     1      -0.002   8.933  22.893  0.00  0.00    +0.000 OA
ATOM     21  H   UNL     1       0.370   8.482  22.107  0.00  0.00    +0.000 HD
ENDBRANCH  11  20
ENDBRANCH   9  10
ENDBRANCH   5   8
BRANCH   1  22
ATOM     22  O   UNL     1       4.610   6.249  17.010  0.00  0.00    +0.000 OA
BRANCH  22  23
ATOM     23  C   UNL     1       4.972   4.992  17.595  0.00  0.00    +0.000 C 
BRANCH  23  24
ATOM     24  C   UNL     1       4.243   3.856  16.877  0.00  0.00    +0.000 C 
BRANCH  24  26
ATOM     25  C   UNL     1       2.423   2.286  17.652  0.00  0.00    +0.000 C 
ATOM     26  C   UNL     1       3.848   2.763  17.868  0.00  0.00    +0.000 C 
ENDBRANCH  24  26
ENDBRANCH  23  24
ENDBRANCH  22  23
ENDBRANCH   1  22
BRANCH   6  27
ATOM     27  O   UNL     1       1.604   6.486  20.745  0.00  0.00    +0.000 OA
BRANCH  27  28
ATOM     28  C   UNL     1       2.014   5.148  21.066  0.00  0.00    +0.000 C 
BRANCH  28  29
ATOM     29  C   UNL     1       0.964   4.178  20.525  0.00  0.00    +0.000 C 
BRANCH  29  30
ATOM     30  C   UNL     1       1.191   2.755  21.033  0.00  0.00    +0.000 C 
ATOM     31  C   UNL     1       2.592   2.578  21.599  0.00  0.00    +0.000 C 
ENDBRANCH  29  30
ENDBRANCH  28  29
ENDBRANCH  27  28
ENDBRANCH   6  27
TORSDOF 11
ENDMDL
MODEL 9
REMARK VINA RESULT:      -6.5      2.826      5.370
REMARK  Name = 
REMARK  13 active torsions:
REMARK  status: ('A' for Active; 'I' for Inactive)
REMARK    1  A    between atoms: C_1  and  C_2
REMARK    2  A    between atoms: C_2  and  C_3
REMARK    3  A    between atoms: C_3  and  C_4
REMARK    4  A    between atoms: C_4  and  O_5
REMARK    5  A    between atoms: O_5  and  C_6
REMARK    6  A    between atoms: C_10  and  N_11
REMARK    7  A    between atoms: N_12  and  C_13
REMARK    8  A    between atoms: C_14  and  O_15
REMARK    9  A    between atoms: C_24  and  O_25
REMARK   10  A    between atoms: O_25  and  C_26
REMARK   11  A    between atoms: C_26  and  C_27
REMARK   12  A    between atoms: C_27  and  C_28
REMARK   13  A    between atoms: C_28  and  C_29
REMARK                            x       y       z     vdW  Elec       q    Type
REMARK                         _______ _______ _______ _____ _____    ______ ____
ROOT
ATOM      1  C   UNL     1       3.866   6.513  17.821  0.00  0.00    +0.000 A 
ATOM      2  C   UNL     1       3.523   7.806  17.443  0.00  0.00    +0.000 A 
ATOM      3  C   UNL     1       2.548   8.520  18.150  0.00  0.00    +0.000 A 
ATOM      4 CL   UNL     1       2.128  10.062  17.483  0.00  0.00    +0.000 Cl
ATOM      5  C   UNL     1       1.931   7.989  19.299  0.00  0.00    +0.000 A 
ATOM      6  C   UNL     1       2.318   6.687  19.702  0.00  0.00    +0.000 A 
ATOM      7  C   UNL     1       3.254   5.954  18.943  0.00  0.00    +0.000 A 
ENDROOT
BRANCH   5   8
ATOM      8  N   UNL     1       0.895   8.668  20.002  0.00  0.00    +0.000 NA
ATOM      9  N   UNL     1       1.299   9.738  20.514  0.00  0.00    +0.000 NA
BRANCH   9  10
ATOM     10  C   UNL     1       0.276  10.435  21.220  0.00  0.00    +0.000 A 
ATOM     11  C   UNL     1      -0.217   9.948  22.447  0.00  0.00    +0.000 A 
ATOM     12  C   UNL     1      -1.128  10.669  23.209  0.00  0.00    +0.000 A 
ATOM     13  C   UNL     1      -1.571  11.910  22.764  0.00  0.00    +0.000 A 
ATOM     14  C   UNL     1      -1.118  12.441  21.549  0.00  0.00    +0.000 A 
ATOM     15  C   UNL     1      -1.573  13.702  21.125  0.00  0.00    +0.000 A 
ATOM     16  C   UNL     1      -1.140  14.257  19.924  0.00  0.00    +0.000 A 
ATOM     17  C   UNL     1      -0.245  13.553  19.131  0.00  0.00    +0.000 A 
ATOM     18  C   UNL     1       0.225  12.302  19.547  0.00  0.00    +0.000 A 
ATOM     19  C   UNL     1      -0.191  11.707  20.759  0.00  0.00    +0.000 A 
BRANCH  11  20
ATOM     20  O   UNL     1       0.196   8.745  22.963  0.00  0.00    +0.000 OA
ATOM     21  H   UNL     1      -0.615   8.285  23.265  0.00  0.00    +0.000 HD
ENDBRANCH  11  20
ENDBRANCH   9  10
ENDBRANCH   5   8
BRANCH   1  22
ATOM     22  O   UNL     1       4.771   5.715  17.164  0.00  0.00    +0.000 OA
BRANCH  22  23
ATOM     23  C   UNL     1       6.085   6.262  17.007  0.00  0.00    +0.000 C 
BRANCH  23  24
ATOM     24  C   UNL     1       6.825   5.526  15.891  0.00  0.00    +0.000 C 
BRANCH  24  26
ATOM     25  C   UNL     1       6.249   3.874  14.069  0.00  0.00    +0.000 C 
ATOM     26  C   UNL     1       5.867   5.174  14.754  0.00  0.00    +0.000 C 
ENDBRANCH  24  26
ENDBRANCH  23  24
ENDBRANCH  22  23
ENDBRANCH   1  22
BRANCH   6  27
ATOM     27  O   UNL     1       1.718   6.187  20.838  0.00  0.00    +0.000 OA
BRANCH  27  28
ATOM     28  C   UNL     1       1.959   4.802  21.131  0.00  0.00    +0.000 C 
BRANCH  28  29
ATOM     29  C   UNL     1       0.877   3.968  20.447  0.00  0.00    +0.000 C 
BRANCH  29  30
ATOM     30  C   UNL     1       1.330   2.526  20.222  0.00  0.00    +0.000 C 
ATOM     31  C   UNL     1       2.707   2.464  19.579  0.00  0.00    +0.000 C 
ENDBRANCH  29  30
ENDBRANCH  28  29
ENDBRANCH  27  28
ENDBRANCH   6  27
TORSDOF 11
ENDMDL
