MODEL 1
REMARK VINA RESULT:      -8.3      0.000      0.000
REMARK  Name = 
REMARK  12 active torsions:
REMARK  status: ('A' for Active; 'I' for Inactive)
REMARK    1  A    between atoms: C_1  and  C_2
REMARK    2  A    between atoms: C_2  and  O_3
REMARK    3  A    between atoms: O_3  and  C_4
REMARK    4  A    between atoms: C_6  and  C_7
REMARK    5  A    between atoms: C_9  and  C_10
REMARK    6  A    between atoms: C_11  and  C_12
REMARK    7  A    between atoms: C_12  and  C_13
REMARK    8  A    between atoms: N_15  and  O_16
REMARK    9  A    between atoms: C_19  and  O_20
REMARK   10  A    between atoms: O_20  and  C_21
REMARK   11  A    between atoms: C_21  and  C_22
REMARK   12  A    between atoms: N_24  and  C_25
REMARK                            x       y       z     vdW  Elec       q    Type
REMARK                         _______ _______ _______ _____ _____    ______ ____
ROOT
ATOM      1  C   UNL     1       3.211   5.199  19.631  0.00  0.00    +0.000 A 
ATOM      2  C   UNL     1       2.458   6.323  20.035  0.00  0.00    +0.000 A 
ATOM      3  C   UNL     1       2.347   7.476  19.247  0.00  0.00    +0.000 A 
ATOM      4  C   UNL     1       3.024   7.496  18.030  0.00  0.00    +0.000 A 
ATOM      5  C   UNL     1       3.771   6.394  17.612  0.00  0.00    +0.000 A 
ATOM      6  C   UNL     1       3.885   5.231  18.400  0.00  0.00    +0.000 A 
ENDROOT
BRANCH   3   7
ATOM      7  C   UNL     1       1.487   8.614  19.589  0.00  0.00    +0.000 A 
ATOM      8  N   UNL     1       0.896   8.775  20.764  0.00  0.00    +0.000 NA
ATOM      9  C   UNL     1       0.245   9.987  20.723  0.00  0.00    +0.000 A 
ATOM     10  C   UNL     1      -0.445  10.447  21.954  0.00  0.00    +0.000 C 
ATOM     11  C   UNL     1       0.384  10.574  19.473  0.00  0.00    +0.000 A 
ATOM     12  N   UNL     1       1.165   9.674  18.776  0.00  0.00    +0.000 N 
BRANCH  11  13
ATOM     13  C   UNL     1      -0.083  11.806  18.875  0.00  0.00    +0.000 C 
ATOM     14  C   UNL     1      -1.543  12.061  18.628  0.00  0.00    +0.000 C 
ATOM     15  O   UNL     1       0.729  12.673  18.533  0.00  0.00    +0.000 OA
ENDBRANCH  11  13
BRANCH  12  16
ATOM     16  O   UNL     1       1.554   9.796  17.438  0.00  0.00    +0.000 OA
ATOM     17  H   UNL     1       1.409  10.750  17.281  0.00  0.00    +0.000 HD
ENDBRANCH  12  16
ENDBRANCH   3   7
BRANCH   1  18
ATOM     18  O   UNL     1       3.099   4.167  20.525  0.00  0.00    +0.000 OA
BRANCH  18  20
ATOM     19  C   UNL     1       1.227   2.845  21.156  0.00  0.00    +0.000 C 
ATOM     20  C   UNL     1       2.008   4.123  21.435  0.00  0.00    +0.000 C 
ENDBRANCH  18  20
ENDBRANCH   1  18
BRANCH   6  21
ATOM     21  O   UNL     1       4.595   4.128  17.972  0.00  0.00    +0.000 OA
BRANCH  21  22
ATOM     22  C   UNL     1       6.006   4.281  18.010  0.00  0.00    +0.000 C 
BRANCH  22  23
ATOM     23  C   UNL     1       6.755   4.372  16.689  0.00  0.00    +0.000 C 
ATOM     24  O   UNL     1       7.985   4.418  16.713  0.00  0.00    +0.000 OA
ATOM     25  N   UNL     1       5.965   4.442  15.561  0.00  0.00    +0.000 N 
ATOM     26  H   UNL     1       4.975   4.605  15.708  0.00  0.00    +0.000 HD
BRANCH  25  27
ATOM     27  C   UNL     1       6.442   4.418  14.232  0.00  0.00    +0.000 A 
ATOM     28  C   UNL     1       7.419   5.303  13.760  0.00  0.00    +0.000 A 
ATOM     29  C   UNL     1       7.867   5.237  12.440  0.00  0.00    +0.000 A 
ATOM     30  C   UNL     1       7.337   4.289  11.576  0.00  0.00    +0.000 A 
ATOM     31  C   UNL     1       6.370   3.395  12.034  0.00  0.00    +0.000 A 
ATOM     32  C   UNL     1       5.931   3.452  13.361  0.00  0.00    +0.000 A 
ENDBRANCH  25  27
ENDBRANCH  22  23
ENDBRANCH  21  22
ENDBRANCH   6  21
TORSDOF 9
ENDMDL
MODEL 2
REMARK VINA RESULT:      -8.2      1.380      2.093
REMARK  Name = 
REMARK  12 active torsions:
REMARK  status: ('A' for Active; 'I' for Inactive)
REMARK    1  A    between atoms: C_1  and  C_2
REMARK    2  A    between atoms: C_2  and  O_3
REMARK    3  A    between atoms: O_3  and  C_4
REMARK    4  A    between atoms: C_6  and  C_7
REMARK    5  A    between atoms: C_9  and  C_10
REMARK    6  A    between atoms: C_11  and  C_12
REMARK    7  A    between atoms: C_12  and  C_13
REMARK    8  A    between atoms: N_15  and  O_16
REMARK    9  A    between atoms: C_19  and  O_20
REMARK   10  A    between atoms: O_20  and  C_21
REMARK   11  A    between atoms: C_21  and  C_22
REMARK   12  A    between atoms: N_24  and  C_25
REMARK                            x       y       z     vdW  Elec       q    Type
REMARK                         _______ _______ _______ _____ _____    ______ ____
ROOT
ATOM      1  C   UNL     1       2.741   5.894  19.802  0.00  0.00    +0.000 A 
ATOM      2  C   UNL     1       1.986   7.014  20.216  0.00  0.00    +0.000 A 
ATOM      3  C   UNL     1       1.858   8.166  19.429  0.00  0.00    +0.000 A 
ATOM      4  C   UNL     1       2.518   8.190  18.203  0.00  0.00    +0.000 A 
ATOM      5  C   UNL     1       3.266   7.092  17.775  0.00  0.00    +0.000 A 
ATOM      6  C   UNL     1       3.398   5.930  18.561  0.00  0.00    +0.000 A 
ENDROOT
BRANCH   3   7
ATOM      7  C   UNL     1       0.996   9.299  19.784  0.00  0.00    +0.000 A 
ATOM      8  N   UNL     1       0.158   9.890  18.944  0.00  0.00    +0.000 NA
ATOM      9  C   UNL     1      -0.519  10.849  19.662  0.00  0.00    +0.000 A 
ATOM     10  C   UNL     1      -1.582  11.615  18.966  0.00  0.00    +0.000 C 
ATOM     11  C   UNL     1      -0.056  10.899  20.970  0.00  0.00    +0.000 A 
ATOM     12  N   UNL     1       0.911   9.914  21.010  0.00  0.00    +0.000 N 
BRANCH  11  13
ATOM     13  C   UNL     1      -0.385  11.696  22.131  0.00  0.00    +0.000 C 
ATOM     14  C   UNL     1      -1.306  11.186  23.204  0.00  0.00    +0.000 C 
ATOM     15  O   UNL     1       0.079  12.835  22.251  0.00  0.00    +0.000 OA
ENDBRANCH  11  13
BRANCH  12  16
ATOM     16  O   UNL     1       1.708   9.597  22.115  0.00  0.00    +0.000 OA
ATOM     17  H   UNL     1       2.480  10.181  21.969  0.00  0.00    +0.000 HD
ENDBRANCH  12  16
ENDBRANCH   3   7
BRANCH   1  18
ATOM     18  O   UNL     1       2.648   4.861  20.697  0.00  0.00    +0.000 OA
BRANCH  18  20
ATOM     19  C   UNL     1       0.683   3.601  20.244  0.00  0.00    +0.000 C 
ATOM     20  C   UNL     1       2.206   3.579  20.268  0.00  0.00    +0.000 C 
ENDBRANCH  18  20
ENDBRANCH   1  18
BRANCH   6  21
ATOM     21  O   UNL     1       4.108   4.831  18.124  0.00  0.00    +0.000 OA
BRANCH  21  22
ATOM     22  C   UNL     1       5.519   4.983  18.167  0.00  0.00    +0.000 C 
BRANCH  22  23
ATOM     23  C   UNL     1       6.310   4.731  16.893  0.00  0.00    +0.000 C 
ATOM     24  O   UNL     1       7.514   4.497  16.984  0.00  0.00    +0.000 OA
ATOM     25  N   UNL     1       5.593   4.834  15.719  0.00  0.00    +0.000 N 
ATOM     26  H   UNL     1       4.665   5.236  15.786  0.00  0.00    +0.000 HD
BRANCH  25  27
ATOM     27  C   UNL     1       6.092   4.531  14.433  0.00  0.00    +0.000 A 
ATOM     28  C   UNL     1       5.457   3.635  13.565  0.00  0.00    +0.000 A 
ATOM     29  C   UNL     1       5.980   3.372  12.298  0.00  0.00    +0.000 A 
ATOM     30  C   UNL     1       7.149   3.999  11.889  0.00  0.00    +0.000 A 
ATOM     31  C   UNL     1       7.788   4.901  12.739  0.00  0.00    +0.000 A 
ATOM     32  C   UNL     1       7.255   5.174  14.003  0.00  0.00    +0.000 A 
ENDBRANCH  25  27
ENDBRANCH  22  23
ENDBRANCH  21  22
ENDBRANCH   6  21
TORSDOF 9
ENDMDL
MODEL 3
REMARK VINA RESULT:      -8.0      3.094     10.335
REMARK  Name = 
REMARK  12 active torsions:
REMARK  status: ('A' for Active; 'I' for Inactive)
REMARK    1  A    between atoms: C_1  and  C_2
REMARK    2  A    between atoms: C_2  and  O_3
REMARK    3  A    between atoms: O_3  and  C_4
REMARK    4  A    between atoms: C_6  and  C_7
REMARK    5  A    between atoms: C_9  and  C_10
REMARK    6  A    between atoms: C_11  and  C_12
REMARK    7  A    between atoms: C_12  and  C_13
REMARK    8  A    between atoms: N_15  and  O_16
REMARK    9  A    between atoms: C_19  and  O_20
REMARK   10  A    between atoms: O_20  and  C_21
REMARK   11  A    between atoms: C_21  and  C_22
REMARK   12  A    between atoms: N_24  and  C_25
REMARK                            x       y       z     vdW  Elec       q    Type
REMARK                         _______ _______ _______ _____ _____    ______ ____
ROOT
ATOM      1  C   UNL     1       1.294   9.013  20.151  0.00  0.00    +0.000 A 
ATOM      2  C   UNL     1       2.018   7.806  20.028  0.00  0.00    +0.000 A 
ATOM      3  C   UNL     1       2.521   7.353  18.801  0.00  0.00    +0.000 A 
ATOM      4  C   UNL     1       2.275   8.133  17.673  0.00  0.00    +0.000 A 
ATOM      5  C   UNL     1       1.565   9.330  17.776  0.00  0.00    +0.000 A 
ATOM      6  C   UNL     1       1.058   9.791  19.007  0.00  0.00    +0.000 A 
ENDROOT
BRANCH   3   7
ATOM      7  C   UNL     1       3.366   6.162  18.660  0.00  0.00    +0.000 A 
ATOM      8  N   UNL     1       4.558   6.158  18.081  0.00  0.00    +0.000 NA
ATOM      9  C   UNL     1       5.061   4.884  18.211  0.00  0.00    +0.000 A 
ATOM     10  C   UNL     1       6.433   4.625  17.705  0.00  0.00    +0.000 C 
ATOM     11  C   UNL     1       4.141   4.055  18.836  0.00  0.00    +0.000 A 
ATOM     12  N   UNL     1       3.074   4.893  19.096  0.00  0.00    +0.000 N 
BRANCH  11  13
ATOM     13  C   UNL     1       4.127   2.659  19.215  0.00  0.00    +0.000 C 
ATOM     14  C   UNL     1       3.329   1.641  18.450  0.00  0.00    +0.000 C 
ATOM     15  O   UNL     1       4.767   2.280  20.202  0.00  0.00    +0.000 OA
ENDBRANCH  11  13
BRANCH  12  16
ATOM     16  O   UNL     1       1.864   4.514  19.688  0.00  0.00    +0.000 OA
ATOM     17  H   UNL     1       1.262   5.212  19.360  0.00  0.00    +0.000 HD
ENDBRANCH  12  16
ENDBRANCH   3   7
BRANCH   1  18
ATOM     18  O   UNL     1       0.982   9.285  21.457  0.00  0.00    +0.000 OA
BRANCH  18  20
ATOM     19  C   UNL     1      -0.429   9.501  23.359  0.00  0.00    +0.000 C 
ATOM     20  C   UNL     1      -0.234   8.806  22.017  0.00  0.00    +0.000 C 
ENDBRANCH  18  20
ENDBRANCH   1  18
BRANCH   6  21
ATOM     21  O   UNL     1       0.386  10.992  19.115  0.00  0.00    +0.000 OA
BRANCH  21  22
ATOM     22  C   UNL     1      -1.026  10.890  19.014  0.00  0.00    +0.000 C 
BRANCH  22  23
ATOM     23  C   UNL     1      -1.877  11.785  19.902  0.00  0.00    +0.000 C 
ATOM     24  O   UNL     1      -2.948  12.202  19.463  0.00  0.00    +0.000 OA
ATOM     25  N   UNL     1      -1.335  12.089  21.132  0.00  0.00    +0.000 N 
ATOM     26  H   UNL     1      -0.360  11.848  21.273  0.00  0.00    +0.000 HD
BRANCH  25  27
ATOM     27  C   UNL     1      -1.993  12.804  22.157  0.00  0.00    +0.000 A 
ATOM     28  C   UNL     1      -2.967  12.226  22.980  0.00  0.00    +0.000 A 
ATOM     29  C   UNL     1      -3.586  12.968  23.988  0.00  0.00    +0.000 A 
ATOM     30  C   UNL     1      -3.242  14.299  24.176  0.00  0.00    +0.000 A 
ATOM     31  C   UNL     1      -2.267  14.886  23.370  0.00  0.00    +0.000 A 
ATOM     32  C   UNL     1      -1.637  14.138  22.371  0.00  0.00    +0.000 A 
ENDBRANCH  25  27
ENDBRANCH  22  23
ENDBRANCH  21  22
ENDBRANCH   6  21
TORSDOF 9
ENDMDL
MODEL 4
REMARK VINA RESULT:      -7.9      1.728      2.384
REMARK  Name = 
REMARK  12 active torsions:
REMARK  status: ('A' for Active; 'I' for Inactive)
REMARK    1  A    between atoms: C_1  and  C_2
REMARK    2  A    between atoms: C_2  and  O_3
REMARK    3  A    between atoms: O_3  and  C_4
REMARK    4  A    between atoms: C_6  and  C_7
REMARK    5  A    between atoms: C_9  and  C_10
REMARK    6  A    between atoms: C_11  and  C_12
REMARK    7  A    between atoms: C_12  and  C_13
REMARK    8  A    between atoms: N_15  and  O_16
REMARK    9  A    between atoms: C_19  and  O_20
REMARK   10  A    between atoms: O_20  and  C_21
REMARK   11  A    between atoms: C_21  and  C_22
REMARK   12  A    between atoms: N_24  and  C_25
REMARK                            x       y       z     vdW  Elec       q    Type
REMARK                         _______ _______ _______ _____ _____    ______ ____
ROOT
ATOM      1  C   UNL     1       2.280   6.004  20.185  0.00  0.00    +0.000 A 
ATOM      2  C   UNL     1       1.563   7.167  20.540  0.00  0.00    +0.000 A 
ATOM      3  C   UNL     1       1.549   8.316  19.737  0.00  0.00    +0.000 A 
ATOM      4  C   UNL     1       2.288   8.289  18.556  0.00  0.00    +0.000 A 
ATOM      5  C   UNL     1       3.001   7.148  18.188  0.00  0.00    +0.000 A 
ATOM      6  C   UNL     1       3.017   5.989  18.990  0.00  0.00    +0.000 A 
ENDROOT
BRANCH   3   7
ATOM      7  C   UNL     1       0.729   9.498  20.024  0.00  0.00    +0.000 A 
ATOM      8  N   UNL     1      -0.057  10.093  19.139  0.00  0.00    +0.000 NA
ATOM      9  C   UNL     1      -0.710  11.107  19.802  0.00  0.00    +0.000 A 
ATOM     10  C   UNL     1      -1.718  11.893  19.047  0.00  0.00    +0.000 C 
ATOM     11  C   UNL     1      -0.283  11.185  21.120  0.00  0.00    +0.000 A 
ATOM     12  N   UNL     1       0.637  10.161  21.224  0.00  0.00    +0.000 N 
BRANCH  11  13
ATOM     13  C   UNL     1      -0.608  12.038  22.242  0.00  0.00    +0.000 C 
ATOM     14  C   UNL     1      -0.477  13.533  22.163  0.00  0.00    +0.000 C 
ATOM     15  O   UNL     1      -0.987  11.540  23.308  0.00  0.00    +0.000 OA
ENDBRANCH  11  13
BRANCH  12  16
ATOM     16  O   UNL     1       1.388   9.851  22.364  0.00  0.00    +0.000 OA
ATOM     17  H   UNL     1       2.300   9.985  22.036  0.00  0.00    +0.000 HD
ENDBRANCH  12  16
ENDBRANCH   3   7
BRANCH   1  18
ATOM     18  O   UNL     1       2.072   4.988  21.081  0.00  0.00    +0.000 OA
BRANCH  18  20
ATOM     19  C   UNL     1       1.698   2.682  21.521  0.00  0.00    +0.000 C 
ATOM     20  C   UNL     1       1.217   3.902  20.746  0.00  0.00    +0.000 C 
ENDBRANCH  18  20
ENDBRANCH   1  18
BRANCH   6  21
ATOM     21  O   UNL     1       3.693   4.848  18.609  0.00  0.00    +0.000 OA
BRANCH  21  22
ATOM     22  C   UNL     1       4.918   5.086  17.932  0.00  0.00    +0.000 C 
BRANCH  22  23
ATOM     23  C   UNL     1       5.053   4.603  16.496  0.00  0.00    +0.000 C 
ATOM     24  O   UNL     1       4.119   3.976  15.996  0.00  0.00    +0.000 OA
ATOM     25  N   UNL     1       6.258   4.881  15.887  0.00  0.00    +0.000 N 
ATOM     26  H   UNL     1       7.005   5.216  16.485  0.00  0.00    +0.000 HD
BRANCH  25  27
ATOM     27  C   UNL     1       6.560   4.630  14.530  0.00  0.00    +0.000 A 
ATOM     28  C   UNL     1       5.911   3.644  13.778  0.00  0.00    +0.000 A 
ATOM     29  C   UNL     1       6.235   3.436  12.436  0.00  0.00    +0.000 A 
ATOM     30  C   UNL     1       7.219   4.209  11.835  0.00  0.00    +0.000 A 
ATOM     31  C   UNL     1       7.868   5.202  12.569  0.00  0.00    +0.000 A 
ATOM     32  C   UNL     1       7.532   5.418  13.909  0.00  0.00    +0.000 A 
ENDBRANCH  25  27
ENDBRANCH  22  23
ENDBRANCH  21  22
ENDBRANCH   6  21
TORSDOF 9
ENDMDL
MODEL 5
REMARK VINA RESULT:      -7.8      3.113      9.395
REMARK  Name = 
REMARK  12 active torsions:
REMARK  status: ('A' for Active; 'I' for Inactive)
REMARK    1  A    between atoms: C_1  and  C_2
REMARK    2  A    between atoms: C_2  and  O_3
REMARK    3  A    between atoms: O_3  and  C_4
REMARK    4  A    between atoms: C_6  and  C_7
REMARK    5  A    between atoms: C_9  and  C_10
REMARK    6  A    between atoms: C_11  and  C_12
REMARK    7  A    between atoms: C_12  and  C_13
REMARK    8  A    between atoms: N_15  and  O_16
REMARK    9  A    between atoms: C_19  and  O_20
REMARK   10  A    between atoms: O_20  and  C_21
REMARK   11  A    between atoms: C_21  and  C_22
REMARK   12  A    between atoms: N_24  and  C_25
REMARK                            x       y       z     vdW  Elec       q    Type
REMARK                         _______ _______ _______ _____ _____    ______ ____
ROOT
ATOM      1  C   UNL     1       1.340   8.798  20.212  0.00  0.00    +0.000 A 
ATOM      2  C   UNL     1       2.020   7.602  19.894  0.00  0.00    +0.000 A 
ATOM      3  C   UNL     1       2.500   7.331  18.606  0.00  0.00    +0.000 A 
ATOM      4  C   UNL     1       2.276   8.287  17.617  0.00  0.00    +0.000 A 
ATOM      5  C   UNL     1       1.609   9.475  17.914  0.00  0.00    +0.000 A 
ATOM      6  C   UNL     1       1.124   9.754  19.207  0.00  0.00    +0.000 A 
ENDROOT
BRANCH   3   7
ATOM      7  C   UNL     1       3.303   6.150  18.270  0.00  0.00    +0.000 A 
ATOM      8  N   UNL     1       2.913   4.900  18.478  0.00  0.00    +0.000 NA
ATOM      9  C   UNL     1       3.896   4.084  17.967  0.00  0.00    +0.000 A 
ATOM     10  C   UNL     1       3.670   2.618  18.007  0.00  0.00    +0.000 C 
ATOM     11  C   UNL     1       4.954   4.838  17.478  0.00  0.00    +0.000 A 
ATOM     12  N   UNL     1       4.551   6.141  17.697  0.00  0.00    +0.000 N 
BRANCH  11  13
ATOM     13  C   UNL     1       6.221   4.523  16.857  0.00  0.00    +0.000 C 
ATOM     14  C   UNL     1       7.517   4.616  17.612  0.00  0.00    +0.000 C 
ATOM     15  O   UNL     1       6.260   4.187  15.668  0.00  0.00    +0.000 OA
ENDBRANCH  11  13
BRANCH  12  16
ATOM     16  O   UNL     1       5.301   7.287  17.408  0.00  0.00    +0.000 OA
ATOM     17  H   UNL     1       4.597   7.957  17.305  0.00  0.00    +0.000 HD
ENDBRANCH  12  16
ENDBRANCH   3   7
BRANCH   1  18
ATOM     18  O   UNL     1       1.044   8.871  21.548  0.00  0.00    +0.000 OA
BRANCH  18  20
ATOM     19  C   UNL     1      -0.489   9.876  23.064  0.00  0.00    +0.000 C 
ATOM     20  C   UNL     1      -0.308   8.813  21.987  0.00  0.00    +0.000 C 
ENDBRANCH  18  20
ENDBRANCH   1  18
BRANCH   6  21
ATOM     21  O   UNL     1       0.495  10.944  19.509  0.00  0.00    +0.000 OA
BRANCH  21  22
ATOM     22  C   UNL     1       1.370  11.990  19.906  0.00  0.00    +0.000 C 
BRANCH  22  23
ATOM     23  C   UNL     1       1.503  13.201  18.996  0.00  0.00    +0.000 C 
ATOM     24  O   UNL     1       2.026  13.053  17.892  0.00  0.00    +0.000 OA
ATOM     25  N   UNL     1       1.054  14.394  19.524  0.00  0.00    +0.000 N 
ATOM     26  H   UNL     1       0.843  14.402  20.516  0.00  0.00    +0.000 HD
BRANCH  25  27
ATOM     27  C   UNL     1       0.975  15.616  18.821  0.00  0.00    +0.000 A 
ATOM     28  C   UNL     1       2.104  16.291  18.344  0.00  0.00    +0.000 A 
ATOM     29  C   UNL     1       1.979  17.493  17.645  0.00  0.00    +0.000 A 
ATOM     30  C   UNL     1       0.721  18.035  17.423  0.00  0.00    +0.000 A 
ATOM     31  C   UNL     1      -0.414  17.369  17.883  0.00  0.00    +0.000 A 
ATOM     32  C   UNL     1      -0.288  16.158  18.571  0.00  0.00    +0.000 A 
ENDBRANCH  25  27
ENDBRANCH  22  23
ENDBRANCH  21  22
ENDBRANCH   6  21
TORSDOF 9
ENDMDL
MODEL 6
REMARK VINA RESULT:      -7.8      1.463      2.135
REMARK  Name = 
REMARK  12 active torsions:
REMARK  status: ('A' for Active; 'I' for Inactive)
REMARK    1  A    between atoms: C_1  and  C_2
REMARK    2  A    between atoms: C_2  and  O_3
REMARK    3  A    between atoms: O_3  and  C_4
REMARK    4  A    between atoms: C_6  and  C_7
REMARK    5  A    between atoms: C_9  and  C_10
REMARK    6  A    between atoms: C_11  and  C_12
REMARK    7  A    between atoms: C_12  and  C_13
REMARK    8  A    between atoms: N_15  and  O_16
REMARK    9  A    between atoms: C_19  and  O_20
REMARK   10  A    between atoms: O_20  and  C_21
REMARK   11  A    between atoms: C_21  and  C_22
REMARK   12  A    between atoms: N_24  and  C_25
REMARK                            x       y       z     vdW  Elec       q    Type
REMARK                         _______ _______ _______ _____ _____    ______ ____
ROOT
ATOM      1  C   UNL     1       2.534   6.295  19.670  0.00  0.00    +0.000 A 
ATOM      2  C   UNL     1       1.923   7.526  19.991  0.00  0.00    +0.000 A 
ATOM      3  C   UNL     1       1.914   8.614  19.107  0.00  0.00    +0.000 A 
ATOM      4  C   UNL     1       2.548   8.454  17.877  0.00  0.00    +0.000 A 
ATOM      5  C   UNL     1       3.155   7.243  17.541  0.00  0.00    +0.000 A 
ATOM      6  C   UNL     1       3.167   6.146  18.425  0.00  0.00    +0.000 A 
ENDROOT
BRANCH   3   7
ATOM      7  C   UNL     1       1.196   9.866  19.368  0.00  0.00    +0.000 A 
ATOM      8  N   UNL     1       1.464  11.018  18.771  0.00  0.00    +0.000 NA
ATOM      9  C   UNL     1       0.536  11.929  19.221  0.00  0.00    +0.000 A 
ATOM     10  C   UNL     1       0.569  13.296  18.645  0.00  0.00    +0.000 C 
ATOM     11  C   UNL     1      -0.300  11.349  20.165  0.00  0.00    +0.000 A 
ATOM     12  N   UNL     1       0.152  10.047  20.244  0.00  0.00    +0.000 N 
BRANCH  11  13
ATOM     13  C   UNL     1      -1.415  11.820  20.957  0.00  0.00    +0.000 C 
ATOM     14  C   UNL     1      -1.288  12.065  22.434  0.00  0.00    +0.000 C 
ATOM     15  O   UNL     1      -2.514  12.013  20.424  0.00  0.00    +0.000 OA
ENDBRANCH  11  13
BRANCH  12  16
ATOM     16  O   UNL     1      -0.348   9.059  21.099  0.00  0.00    +0.000 OA
ATOM     17  H   UNL     1       0.165   8.277  20.812  0.00  0.00    +0.000 HD
ENDBRANCH  12  16
ENDBRANCH   3   7
BRANCH   1  18
ATOM     18  O   UNL     1       2.339   5.361  20.653  0.00  0.00    +0.000 OA
BRANCH  18  20
ATOM     19  C   UNL     1       1.685   3.181  21.341  0.00  0.00    +0.000 C 
ATOM     20  C   UNL     1       1.283   4.415  20.544  0.00  0.00    +0.000 C 
ENDBRANCH  18  20
ENDBRANCH   1  18
BRANCH   6  21
ATOM     21  O   UNL     1       3.736   4.937  18.079  0.00  0.00    +0.000 OA
BRANCH  21  22
ATOM     22  C   UNL     1       5.144   4.877  18.249  0.00  0.00    +0.000 C 
BRANCH  22  23
ATOM     23  C   UNL     1       6.006   4.615  17.024  0.00  0.00    +0.000 C 
ATOM     24  O   UNL     1       7.171   4.254  17.190  0.00  0.00    +0.000 OA
ATOM     25  N   UNL     1       5.400   4.855  15.809  0.00  0.00    +0.000 N 
ATOM     26  H   UNL     1       4.513   5.345  15.831  0.00  0.00    +0.000 HD
BRANCH  25  27
ATOM     27  C   UNL     1       5.968   4.573  14.547  0.00  0.00    +0.000 A 
ATOM     28  C   UNL     1       5.414   3.647  13.655  0.00  0.00    +0.000 A 
ATOM     29  C   UNL     1       6.004   3.406  12.413  0.00  0.00    +0.000 A 
ATOM     30  C   UNL     1       7.160   4.084  12.054  0.00  0.00    +0.000 A 
ATOM     31  C   UNL     1       7.719   5.016  12.928  0.00  0.00    +0.000 A 
ATOM     32  C   UNL     1       7.119   5.267  14.166  0.00  0.00    +0.000 A 
ENDBRANCH  25  27
ENDBRANCH  22  23
ENDBRANCH  21  22
ENDBRANCH   6  21
TORSDOF 9
ENDMDL
MODEL 7
REMARK VINA RESULT:      -7.7      2.720     10.098
REMARK  Name = 
REMARK  12 active torsions:
REMARK  status: ('A' for Active; 'I' for Inactive)
REMARK    1  A    between atoms: C_1  and  C_2
REMARK    2  A    between atoms: C_2  and  O_3
REMARK    3  A    between atoms: O_3  and  C_4
REMARK    4  A    between atoms: C_6  and  C_7
REMARK    5  A    between atoms: C_9  and  C_10
REMARK    6  A    between atoms: C_11  and  C_12
REMARK    7  A    between atoms: C_12  and  C_13
REMARK    8  A    between atoms: N_15  and  O_16
REMARK    9  A    between atoms: C_19  and  O_20
REMARK   10  A    between atoms: O_20  and  C_21
REMARK   11  A    between atoms: C_21  and  C_22
REMARK   12  A    between atoms: N_24  and  C_25
REMARK                            x       y       z     vdW  Elec       q    Type
REMARK                         _______ _______ _______ _____ _____    ______ ____
ROOT
ATOM      1  C   UNL     1       1.100   8.619  20.045  0.00  0.00    +0.000 A 
ATOM      2  C   UNL     1       1.915   7.471  19.937  0.00  0.00    +0.000 A 
ATOM      3  C   UNL     1       2.743   7.238  18.830  0.00  0.00    +0.000 A 
ATOM      4  C   UNL     1       2.736   8.183  17.807  0.00  0.00    +0.000 A 
ATOM      5  C   UNL     1       1.940   9.325  17.897  0.00  0.00    +0.000 A 
ATOM      6  C   UNL     1       1.106   9.565  19.008  0.00  0.00    +0.000 A 
ENDROOT
BRANCH   3   7
ATOM      7  C   UNL     1       3.679   6.112  18.739  0.00  0.00    +0.000 A 
ATOM      8  N   UNL     1       3.495   4.940  19.329  0.00  0.00    +0.000 NA
ATOM      9  C   UNL     1       4.541   4.132  18.948  0.00  0.00    +0.000 A 
ATOM     10  C   UNL     1       4.536   2.723  19.417  0.00  0.00    +0.000 C 
ATOM     11  C   UNL     1       5.432   4.829  18.144  0.00  0.00    +0.000 A 
ATOM     12  N   UNL     1       4.863   6.084  18.042  0.00  0.00    +0.000 N 
BRANCH  11  13
ATOM     13  C   UNL     1       6.675   4.498  17.484  0.00  0.00    +0.000 C 
ATOM     14  C   UNL     1       6.740   4.238  16.005  0.00  0.00    +0.000 C 
ATOM     15  O   UNL     1       7.718   4.401  18.141  0.00  0.00    +0.000 OA
ENDBRANCH  11  13
BRANCH  12  16
ATOM     16  O   UNL     1       5.410   7.175  17.359  0.00  0.00    +0.000 OA
ATOM     17  H   UNL     1       4.903   7.918  17.745  0.00  0.00    +0.000 HD
ENDBRANCH  12  16
ENDBRANCH   3   7
BRANCH   1  18
ATOM     18  O   UNL     1       0.450   8.666  21.250  0.00  0.00    +0.000 OA
BRANCH  18  20
ATOM     19  C   UNL     1       0.046   9.536  23.426  0.00  0.00    +0.000 C 
ATOM     20  C   UNL     1       1.113   9.168  22.403  0.00  0.00    +0.000 C 
ENDBRANCH  18  20
ENDBRANCH   1  18
BRANCH   6  21
ATOM     21  O   UNL     1       0.345  10.712  19.114  0.00  0.00    +0.000 OA
BRANCH  21  22
ATOM     22  C   UNL     1       0.962  11.764  19.841  0.00  0.00    +0.000 C 
BRANCH  22  23
ATOM     23  C   UNL     1       0.164  12.440  20.946  0.00  0.00    +0.000 C 
ATOM     24  O   UNL     1       0.757  13.170  21.738  0.00  0.00    +0.000 OA
ATOM     25  N   UNL     1      -1.179  12.127  20.984  0.00  0.00    +0.000 N 
ATOM     26  H   UNL     1      -1.484  11.355  20.402  0.00  0.00    +0.000 HD
BRANCH  25  27
ATOM     27  C   UNL     1      -2.127  12.721  21.846  0.00  0.00    +0.000 A 
ATOM     28  C   UNL     1      -2.687  13.981  21.606  0.00  0.00    +0.000 A 
ATOM     29  C   UNL     1      -3.629  14.526  22.481  0.00  0.00    +0.000 A 
ATOM     30  C   UNL     1      -4.014  13.817  23.610  0.00  0.00    +0.000 A 
ATOM     31  C   UNL     1      -3.473  12.555  23.858  0.00  0.00    +0.000 A 
ATOM     32  C   UNL     1      -2.540  12.005  22.973  0.00  0.00    +0.000 A 
ENDBRANCH  25  27
ENDBRANCH  22  23
ENDBRANCH  21  22
ENDBRANCH   6  21
TORSDOF 9
ENDMDL
MODEL 8
REMARK VINA RESULT:      -7.7      1.821      2.540
REMARK  Name = 
REMARK  12 active torsions:
REMARK  status: ('A' for Active; 'I' for Inactive)
REMARK    1  A    between atoms: C_1  and  C_2
REMARK    2  A    between atoms: C_2  and  O_3
REMARK    3  A    between atoms: O_3  and  C_4
REMARK    4  A    between atoms: C_6  and  C_7
REMARK    5  A    between atoms: C_9  and  C_10
REMARK    6  A    between atoms: C_11  and  C_12
REMARK    7  A    between atoms: C_12  and  C_13
REMARK    8  A    between atoms: N_15  and  O_16
REMARK    9  A    between atoms: C_19  and  O_20
REMARK   10  A    between atoms: O_20  and  C_21
REMARK   11  A    between atoms: C_21  and  C_22
REMARK   12  A    between atoms: N_24  and  C_25
REMARK                            x       y       z     vdW  Elec       q    Type
REMARK                         _______ _______ _______ _____ _____    ______ ____
ROOT
ATOM      1  C   UNL     1       2.103   6.382  19.728  0.00  0.00    +0.000 A 
ATOM      2  C   UNL     1       1.317   7.447  20.220  0.00  0.00    +0.000 A 
ATOM      3  C   UNL     1       1.303   8.712  19.616  0.00  0.00    +0.000 A 
ATOM      4  C   UNL     1       2.112   8.904  18.499  0.00  0.00    +0.000 A 
ATOM      5  C   UNL     1       2.893   7.863  17.997  0.00  0.00    +0.000 A 
ATOM      6  C   UNL     1       2.910   6.589  18.598  0.00  0.00    +0.000 A 
ENDROOT
BRANCH   3   7
ATOM      7  C   UNL     1       0.418   9.803  20.038  0.00  0.00    +0.000 A 
ATOM      8  N   UNL     1      -0.453  10.406  19.243  0.00  0.00    +0.000 NA
ATOM      9  C   UNL     1      -1.141  11.313  20.017  0.00  0.00    +0.000 A 
ATOM     10  C   UNL     1      -2.239  12.080  19.377  0.00  0.00    +0.000 C 
ATOM     11  C   UNL     1      -0.652  11.318  21.316  0.00  0.00    +0.000 A 
ATOM     12  N   UNL     1       0.342  10.360  21.292  0.00  0.00    +0.000 N 
BRANCH  11  13
ATOM     13  C   UNL     1      -0.978  12.053  22.518  0.00  0.00    +0.000 C 
ATOM     14  C   UNL     1      -2.308  11.903  23.200  0.00  0.00    +0.000 C 
ATOM     15  O   UNL     1      -0.159  12.844  23.001  0.00  0.00    +0.000 OA
ENDBRANCH  11  13
BRANCH  12  16
ATOM     16  O   UNL     1       1.171  10.017  22.366  0.00  0.00    +0.000 OA
ATOM     17  H   UNL     1       1.995   9.768  21.901  0.00  0.00    +0.000 HD
ENDBRANCH  12  16
ENDBRANCH   3   7
BRANCH   1  18
ATOM     18  O   UNL     1       1.884   5.225  20.430  0.00  0.00    +0.000 OA
BRANCH  18  20
ATOM     19  C   UNL     1       2.433   3.190  21.530  0.00  0.00    +0.000 C 
ATOM     20  C   UNL     1       2.925   4.266  20.571  0.00  0.00    +0.000 C 
ENDBRANCH  18  20
ENDBRANCH   1  18
BRANCH   6  21
ATOM     21  O   UNL     1       3.655   5.549  18.081  0.00  0.00    +0.000 OA
BRANCH  21  22
ATOM     22  C   UNL     1       4.966   5.908  17.671  0.00  0.00    +0.000 C 
BRANCH  22  23
ATOM     23  C   UNL     1       5.290   5.874  16.185  0.00  0.00    +0.000 C 
ATOM     24  O   UNL     1       5.137   6.902  15.526  0.00  0.00    +0.000 OA
ATOM     25  N   UNL     1       5.694   4.651  15.693  0.00  0.00    +0.000 N 
ATOM     26  H   UNL     1       5.572   3.851  16.305  0.00  0.00    +0.000 HD
BRANCH  25  27
ATOM     27  C   UNL     1       6.151   4.415  14.378  0.00  0.00    +0.000 A 
ATOM     28  C   UNL     1       5.497   3.552  13.491  0.00  0.00    +0.000 A 
ATOM     29  C   UNL     1       5.980   3.354  12.196  0.00  0.00    +0.000 A 
ATOM     30  C   UNL     1       7.128   4.014  11.779  0.00  0.00    +0.000 A 
ATOM     31  C   UNL     1       7.785   4.884  12.648  0.00  0.00    +0.000 A 
ATOM     32  C   UNL     1       7.292   5.092  13.940  0.00  0.00    +0.000 A 
ENDBRANCH  25  27
ENDBRANCH  22  23
ENDBRANCH  21  22
ENDBRANCH   6  21
TORSDOF 9
ENDMDL
MODEL 9
REMARK VINA RESULT:      -7.7      2.886      8.997
REMARK  Name = 
REMARK  12 active torsions:
REMARK  status: ('A' for Active; 'I' for Inactive)
REMARK    1  A    between atoms: C_1  and  C_2
REMARK    2  A    between atoms: C_2  and  O_3
REMARK    3  A    between atoms: O_3  and  C_4
REMARK    4  A    between atoms: C_6  and  C_7
REMARK    5  A    between atoms: C_9  and  C_10
REMARK    6  A    between atoms: C_11  and  C_12
REMARK    7  A    between atoms: C_12  and  C_13
REMARK    8  A    between atoms: N_15  and  O_16
REMARK    9  A    between atoms: C_19  and  O_20
REMARK   10  A    between atoms: O_20  and  C_21
REMARK   11  A    between atoms: C_21  and  C_22
REMARK   12  A    between atoms: N_24  and  C_25
REMARK                            x       y       z     vdW  Elec       q    Type
REMARK                         _______ _______ _______ _____ _____    ______ ____
ROOT
ATOM      1  C   UNL     1       1.400   8.443  20.364  0.00  0.00    +0.000 A 
ATOM      2  C   UNL     1       2.045   7.264  19.929  0.00  0.00    +0.000 A 
ATOM      3  C   UNL     1       2.525   7.110  18.621  0.00  0.00    +0.000 A 
ATOM      4  C   UNL     1       2.337   8.166  17.734  0.00  0.00    +0.000 A 
ATOM      5  C   UNL     1       1.705   9.339  18.146  0.00  0.00    +0.000 A 
ATOM      6  C   UNL     1       1.221   9.502  19.460  0.00  0.00    +0.000 A 
ENDROOT
BRANCH   3   7
ATOM      7  C   UNL     1       3.292   5.943  18.171  0.00  0.00    +0.000 A 
ATOM      8  N   UNL     1       2.887   4.688  18.302  0.00  0.00    +0.000 NA
ATOM      9  C   UNL     1       3.836   3.896  17.697  0.00  0.00    +0.000 A 
ATOM     10  C   UNL     1       3.584   2.434  17.638  0.00  0.00    +0.000 C 
ATOM     11  C   UNL     1       4.889   4.667  17.226  0.00  0.00    +0.000 A 
ATOM     12  N   UNL     1       4.519   5.957  17.553  0.00  0.00    +0.000 N 
BRANCH  11  13
ATOM     13  C   UNL     1       6.127   4.378  16.536  0.00  0.00    +0.000 C 
ATOM     14  C   UNL     1       6.144   3.884  15.117  0.00  0.00    +0.000 C 
ATOM     15  O   UNL     1       7.207   4.516  17.121  0.00  0.00    +0.000 OA
ENDBRANCH  11  13
BRANCH  12  16
ATOM     16  O   UNL     1       5.280   7.108  17.320  0.00  0.00    +0.000 OA
ATOM     17  H   UNL     1       5.344   7.102  16.344  0.00  0.00    +0.000 HD
ENDBRANCH  12  16
ENDBRANCH   3   7
BRANCH   1  18
ATOM     18  O   UNL     1       1.098   8.391  21.700  0.00  0.00    +0.000 OA
BRANCH  18  20
ATOM     19  C   UNL     1      -0.257   9.684  23.165  0.00  0.00    +0.000 C 
ATOM     20  C   UNL     1      -0.245   8.559  22.137  0.00  0.00    +0.000 C 
ENDBRANCH  18  20
ENDBRANCH   1  18
BRANCH   6  21
ATOM     21  O   UNL     1       0.627  10.675  19.878  0.00  0.00    +0.000 OA
BRANCH  21  22
ATOM     22  C   UNL     1      -0.197  11.300  18.905  0.00  0.00    +0.000 C 
BRANCH  22  23
ATOM     23  C   UNL     1       0.158  12.711  18.461  0.00  0.00    +0.000 C 
ATOM     24  O   UNL     1      -0.683  13.361  17.840  0.00  0.00    +0.000 OA
ATOM     25  N   UNL     1       1.438  13.124  18.763  0.00  0.00    +0.000 N 
ATOM     26  H   UNL     1       2.082  12.412  19.088  0.00  0.00    +0.000 HD
BRANCH  25  27
ATOM     27  C   UNL     1       1.944  14.425  18.549  0.00  0.00    +0.000 A 
ATOM     28  C   UNL     1       1.305  15.575  19.027  0.00  0.00    +0.000 A 
ATOM     29  C   UNL     1       1.846  16.842  18.801  0.00  0.00    +0.000 A 
ATOM     30  C   UNL     1       3.028  16.971  18.086  0.00  0.00    +0.000 A 
ATOM     31  C   UNL     1       3.681  15.834  17.611  0.00  0.00    +0.000 A 
ATOM     32  C   UNL     1       3.146  14.564  17.851  0.00  0.00    +0.000 A 
ENDBRANCH  25  27
ENDBRANCH  22  23
ENDBRANCH  21  22
ENDBRANCH   6  21
TORSDOF 9
ENDMDL
