MODEL 1
REMARK VINA RESULT:      -9.1      0.000      0.000
REMARK  Name = 
REMARK  6 active torsions:
REMARK  status: ('A' for Active; 'I' for Inactive)
REMARK    1  A    between atoms: C_1  and  C_2
REMARK    2  A    between atoms: C_2  and  O_3
REMARK    3  A    between atoms: C_2  and  C_25
REMARK    4  A    between atoms: O_3  and  C_4
REMARK    5  A    between atoms: C_10  and  C_11
REMARK    6  A    between atoms: N_14  and  C_15
REMARK                            x       y       z     vdW  Elec       q    Type
REMARK                         _______ _______ _______ _____ _____    ______ ____
ROOT
ATOM      1  C   UNL     1       0.196  10.664  20.462  0.00  0.00    +0.000 A 
ATOM      2  C   UNL     1      -0.049  10.104  21.724  0.00  0.00    +0.000 A 
ATOM      3  N   UNL     1      -0.865  10.754  22.655  0.00  0.00    +0.000 N 
ATOM      4  N   UNL     1       0.476   8.942  22.159  0.00  0.00    +0.000 NA
ATOM      5  C   UNL     1       1.242   8.198  21.328  0.00  0.00    +0.000 A 
ATOM      6  C   UNL     1       1.448   8.601  20.009  0.00  0.00    +0.000 A 
ATOM      7  C   UNL     1       2.115   8.078  18.867  0.00  0.00    +0.000 A 
ATOM      8  C   UNL     1       1.969   9.011  17.867  0.00  0.00    +0.000 A 
ATOM      9  O   UNL     1       1.249  10.071  18.311  0.00  0.00    +0.000 OA
ATOM     10  C   UNL     1       0.932   9.835  19.618  0.00  0.00    +0.000 A 
ATOM     11  H   UNL     1      -1.758  10.980  22.229  0.00  0.00    +0.000 HD
ATOM     12  H   UNL     1      -0.962  10.126  23.449  0.00  0.00    +0.000 HD
ENDROOT
BRANCH   7  13
ATOM     13  C   UNL     1       2.859   6.838  18.800  0.00  0.00    +0.000 A 
ATOM     14  C   UNL     1       3.666   6.372  17.749  0.00  0.00    +0.000 A 
ATOM     15  N   UNL     1       4.094   5.126  17.960  0.00  0.00    +0.000 NA
ATOM     16  N   UNL     1       3.567   4.798  19.156  0.00  0.00    +0.000 N 
ATOM     17  C   UNL     1       2.893   5.838  19.740  0.00  0.00    +0.000 A 
BRANCH  16  18
ATOM     18  C   UNL     1       3.558   3.421  19.644  0.00  0.00    +0.000 C 
ATOM     19  C   UNL     1       3.699   2.399  18.511  0.00  0.00    +0.000 C 
ATOM     20  C   UNL     1       2.385   2.216  17.760  0.00  0.00    +0.000 C 
ATOM     21  N   UNL     1       1.299   1.827  18.658  0.00  0.00    +0.000 NA
ATOM     22  C   UNL     1       1.093   2.812  19.720  0.00  0.00    +0.000 C 
ATOM     23  C   UNL     1       2.362   3.059  20.534  0.00  0.00    +0.000 C 
ATOM     24  H   UNL     1       1.499   0.916  19.070  0.00  0.00    +0.000 HD
ENDBRANCH  16  18
ENDBRANCH   7  13
BRANCH   1  25
ATOM     25  O   UNL     1      -0.393  11.870  20.146  0.00  0.00    +0.000 OA
BRANCH  25  27
ATOM     26  C   UNL     1      -0.446  13.352  18.186  0.00  0.00    +0.000 C 
ATOM     27  C   UNL     1      -0.912  12.035  18.811  0.00  0.00    +0.000 C 
BRANCH  27  28
ATOM     28  C   UNL     1      -2.438  12.018  18.901  0.00  0.00    +0.000 A 
ATOM     29  C   UNL     1      -3.084  12.570  20.026  0.00  0.00    +0.000 A 
ATOM     30  C   UNL     1      -4.470  12.526  20.145  0.00  0.00    +0.000 A 
ATOM     31  F   UNL     1      -5.053  13.035  21.236  0.00  0.00    +0.000 F 
ATOM     32  C   UNL     1      -5.253  11.952  19.154  0.00  0.00    +0.000 A 
ATOM     33  C   UNL     1      -4.642  11.438  18.013  0.00  0.00    +0.000 A 
ATOM     34  C   UNL     1      -3.245  11.473  17.882  0.00  0.00    +0.000 A 
ATOM     35 CL   UNL     1      -2.580  10.841  16.417  0.00  0.00    +0.000 Cl
ENDBRANCH  27  28
ENDBRANCH  25  27
ENDBRANCH   1  25
TORSDOF 5
ENDMDL
MODEL 2
REMARK VINA RESULT:      -9.1      1.542      1.823
REMARK  Name = 
REMARK  6 active torsions:
REMARK  status: ('A' for Active; 'I' for Inactive)
REMARK    1  A    between atoms: C_1  and  C_2
REMARK    2  A    between atoms: C_2  and  O_3
REMARK    3  A    between atoms: C_2  and  C_25
REMARK    4  A    between atoms: O_3  and  C_4
REMARK    5  A    between atoms: C_10  and  C_11
REMARK    6  A    between atoms: N_14  and  C_15
REMARK                            x       y       z     vdW  Elec       q    Type
REMARK                         _______ _______ _______ _____ _____    ______ ____
ROOT
ATOM      1  C   UNL     1       0.252  10.582  20.354  0.00  0.00    +0.000 A 
ATOM      2  C   UNL     1      -0.000  10.039  21.621  0.00  0.00    +0.000 A 
ATOM      3  N   UNL     1      -0.829  10.697  22.537  0.00  0.00    +0.000 N 
ATOM      4  N   UNL     1       0.529   8.887  22.079  0.00  0.00    +0.000 NA
ATOM      5  C   UNL     1       1.307   8.136  21.265  0.00  0.00    +0.000 A 
ATOM      6  C   UNL     1       1.522   8.521  19.942  0.00  0.00    +0.000 A 
ATOM      7  C   UNL     1       2.202   7.986  18.814  0.00  0.00    +0.000 A 
ATOM      8  C   UNL     1       2.058   8.903  17.799  0.00  0.00    +0.000 A 
ATOM      9  O   UNL     1       1.328   9.965  18.221  0.00  0.00    +0.000 OA
ATOM     10  C   UNL     1       1.000   9.745  19.528  0.00  0.00    +0.000 A 
ATOM     11  H   UNL     1      -1.719  10.911  22.099  0.00  0.00    +0.000 HD
ATOM     12  H   UNL     1      -0.928  10.081  23.339  0.00  0.00    +0.000 HD
ENDROOT
BRANCH   7  13
ATOM     13  C   UNL     1       2.955   6.750  18.772  0.00  0.00    +0.000 A 
ATOM     14  C   UNL     1       3.813   6.296  17.756  0.00  0.00    +0.000 A 
ATOM     15  N   UNL     1       4.237   5.051  17.977  0.00  0.00    +0.000 NA
ATOM     16  N   UNL     1       3.655   4.710  19.144  0.00  0.00    +0.000 N 
ATOM     17  C   UNL     1       2.949   5.742  19.704  0.00  0.00    +0.000 A 
BRANCH  16  18
ATOM     18  C   UNL     1       3.630   3.329  19.619  0.00  0.00    +0.000 C 
ATOM     19  C   UNL     1       3.715   2.315  18.473  0.00  0.00    +0.000 C 
ATOM     20  C   UNL     1       2.375   2.169  17.760  0.00  0.00    +0.000 C 
ATOM     21  N   UNL     1       1.308   1.794  18.686  0.00  0.00    +0.000 NA
ATOM     22  C   UNL     1       1.155   2.773  19.763  0.00  0.00    +0.000 C 
ATOM     23  C   UNL     1       2.453   2.984  20.541  0.00  0.00    +0.000 C 
ATOM     24  H   UNL     1       1.500   0.876  19.084  0.00  0.00    +0.000 HD
ENDBRANCH  16  18
ENDBRANCH   7  13
BRANCH   1  25
ATOM     25  O   UNL     1      -0.342  11.780  20.015  0.00  0.00    +0.000 OA
BRANCH  25  27
ATOM     26  C   UNL     1      -0.365  13.574  18.336  0.00  0.00    +0.000 C 
ATOM     27  C   UNL     1      -0.506  12.075  18.613  0.00  0.00    +0.000 C 
BRANCH  27  28
ATOM     28  C   UNL     1      -1.898  11.602  18.198  0.00  0.00    +0.000 A 
ATOM     29  C   UNL     1      -2.049  10.742  17.091  0.00  0.00    +0.000 A 
ATOM     30  C   UNL     1      -3.313  10.334  16.673  0.00  0.00    +0.000 A 
ATOM     31  F   UNL     1      -3.426   9.538  15.603  0.00  0.00    +0.000 F 
ATOM     32  C   UNL     1      -4.454  10.750  17.342  0.00  0.00    +0.000 A 
ATOM     33  C   UNL     1      -4.329  11.565  18.464  0.00  0.00    +0.000 A 
ATOM     34  C   UNL     1      -3.062  11.986  18.894  0.00  0.00    +0.000 A 
ATOM     35 CL   UNL     1      -3.004  12.969  20.315  0.00  0.00    +0.000 Cl
ENDBRANCH  27  28
ENDBRANCH  25  27
ENDBRANCH   1  25
TORSDOF 5
ENDMDL
MODEL 3
REMARK VINA RESULT:      -8.8      1.496      2.665
REMARK  Name = 
REMARK  6 active torsions:
REMARK  status: ('A' for Active; 'I' for Inactive)
REMARK    1  A    between atoms: C_1  and  C_2
REMARK    2  A    between atoms: C_2  and  O_3
REMARK    3  A    between atoms: C_2  and  C_25
REMARK    4  A    between atoms: O_3  and  C_4
REMARK    5  A    between atoms: C_10  and  C_11
REMARK    6  A    between atoms: N_14  and  C_15
REMARK                            x       y       z     vdW  Elec       q    Type
REMARK                         _______ _______ _______ _____ _____    ______ ____
ROOT
ATOM      1  C   UNL     1       0.361  10.620  20.359  0.00  0.00    +0.000 A 
ATOM      2  C   UNL     1       0.060  10.007  21.584  0.00  0.00    +0.000 A 
ATOM      3  N   UNL     1      -0.741  10.649  22.534  0.00  0.00    +0.000 N 
ATOM      4  N   UNL     1       0.515   8.797  21.965  0.00  0.00    +0.000 NA
ATOM      5  C   UNL     1       1.258   8.059  21.109  0.00  0.00    +0.000 A 
ATOM      6  C   UNL     1       1.514   8.520  19.818  0.00  0.00    +0.000 A 
ATOM      7  C   UNL     1       2.177   8.024  18.662  0.00  0.00    +0.000 A 
ATOM      8  C   UNL     1       2.101   9.016  17.712  0.00  0.00    +0.000 A 
ATOM      9  O   UNL     1       1.429  10.087  18.199  0.00  0.00    +0.000 OA
ATOM     10  C   UNL     1       1.071   9.799  19.485  0.00  0.00    +0.000 A 
ATOM     11  H   UNL     1      -1.612  10.944  22.104  0.00  0.00    +0.000 HD
ATOM     12  H   UNL     1      -0.887   9.986  23.290  0.00  0.00    +0.000 HD
ENDROOT
BRANCH   7  13
ATOM     13  C   UNL     1       2.857   6.752  18.543  0.00  0.00    +0.000 A 
ATOM     14  C   UNL     1       2.512   5.529  19.143  0.00  0.00    +0.000 A 
ATOM     15  N   UNL     1       3.434   4.589  18.931  0.00  0.00    +0.000 NA
ATOM     16  N   UNL     1       4.368   5.209  18.184  0.00  0.00    +0.000 N 
ATOM     17  C   UNL     1       4.011   6.489  17.848  0.00  0.00    +0.000 A 
BRANCH  16  18
ATOM     18  C   UNL     1       5.687   4.625  17.956  0.00  0.00    +0.000 C 
ATOM     19  C   UNL     1       6.821   5.533  18.444  0.00  0.00    +0.000 C 
ATOM     20  C   UNL     1       7.078   6.674  17.466  0.00  0.00    +0.000 C 
ATOM     21  N   UNL     1       7.373   6.179  16.123  0.00  0.00    +0.000 NA
ATOM     22  C   UNL     1       6.284   5.355  15.597  0.00  0.00    +0.000 C 
ATOM     23  C   UNL     1       5.955   4.178  16.513  0.00  0.00    +0.000 C 
ATOM     24  H   UNL     1       8.236   5.637  16.134  0.00  0.00    +0.000 HD
ENDBRANCH  16  18
ENDBRANCH   7  13
BRANCH   1  25
ATOM     25  O   UNL     1      -0.158  11.871  20.098  0.00  0.00    +0.000 OA
BRANCH  25  27
ATOM     26  C   UNL     1      -0.278  13.443  18.213  0.00  0.00    +0.000 C 
ATOM     27  C   UNL     1      -0.730  12.102  18.795  0.00  0.00    +0.000 C 
BRANCH  27  28
ATOM     28  C   UNL     1      -2.251  12.093  18.949  0.00  0.00    +0.000 A 
ATOM     29  C   UNL     1      -2.846  12.647  20.100  0.00  0.00    +0.000 A 
ATOM     30  C   UNL     1      -4.227  12.610  20.276  0.00  0.00    +0.000 A 
ATOM     31  F   UNL     1      -4.761  13.121  21.392  0.00  0.00    +0.000 F 
ATOM     32  C   UNL     1      -5.053  12.040  19.319  0.00  0.00    +0.000 A 
ATOM     33  C   UNL     1      -4.493  11.524  18.153  0.00  0.00    +0.000 A 
ATOM     34  C   UNL     1      -3.103  11.552  17.964  0.00  0.00    +0.000 A 
ATOM     35 CL   UNL     1      -2.502  10.917  16.473  0.00  0.00    +0.000 Cl
ENDBRANCH  27  28
ENDBRANCH  25  27
ENDBRANCH   1  25
TORSDOF 5
ENDMDL
MODEL 4
REMARK VINA RESULT:      -8.8      2.209      3.261
REMARK  Name = 
REMARK  6 active torsions:
REMARK  status: ('A' for Active; 'I' for Inactive)
REMARK    1  A    between atoms: C_1  and  C_2
REMARK    2  A    between atoms: C_2  and  O_3
REMARK    3  A    between atoms: C_2  and  C_25
REMARK    4  A    between atoms: O_3  and  C_4
REMARK    5  A    between atoms: C_10  and  C_11
REMARK    6  A    between atoms: N_14  and  C_15
REMARK                            x       y       z     vdW  Elec       q    Type
REMARK                         _______ _______ _______ _____ _____    ______ ____
ROOT
ATOM      1  C   UNL     1       0.521  10.396  20.322  0.00  0.00    +0.000 A 
ATOM      2  C   UNL     1       0.260   9.760  21.543  0.00  0.00    +0.000 A 
ATOM      3  N   UNL     1      -0.514  10.381  22.530  0.00  0.00    +0.000 N 
ATOM      4  N   UNL     1       0.729   8.544  21.887  0.00  0.00    +0.000 NA
ATOM      5  C   UNL     1       1.447   7.824  20.995  0.00  0.00    +0.000 A 
ATOM      6  C   UNL     1       1.661   8.311  19.706  0.00  0.00    +0.000 A 
ATOM      7  C   UNL     1       2.289   7.839  18.520  0.00  0.00    +0.000 A 
ATOM      8  C   UNL     1       2.182   8.848  17.592  0.00  0.00    +0.000 A 
ATOM      9  O   UNL     1       1.522   9.908  18.120  0.00  0.00    +0.000 OA
ATOM     10  C   UNL     1       1.205   9.594  19.411  0.00  0.00    +0.000 A 
ATOM     11  H   UNL     1      -1.398  10.682  22.133  0.00  0.00    +0.000 HD
ATOM     12  H   UNL     1      -0.634   9.703  23.278  0.00  0.00    +0.000 HD
ENDROOT
BRANCH   7  13
ATOM     13  C   UNL     1       2.968   6.571  18.356  0.00  0.00    +0.000 A 
ATOM     14  C   UNL     1       2.603   5.321  18.884  0.00  0.00    +0.000 A 
ATOM     15  N   UNL     1       3.527   4.388  18.650  0.00  0.00    +0.000 NA
ATOM     16  N   UNL     1       4.484   5.041  17.962  0.00  0.00    +0.000 N 
ATOM     17  C   UNL     1       4.141   6.338  17.682  0.00  0.00    +0.000 A 
BRANCH  16  18
ATOM     18  C   UNL     1       5.807   4.463  17.742  0.00  0.00    +0.000 C 
ATOM     19  C   UNL     1       6.934   5.381  18.227  0.00  0.00    +0.000 C 
ATOM     20  C   UNL     1       7.188   6.517  17.242  0.00  0.00    +0.000 C 
ATOM     21  N   UNL     1       7.489   6.015  15.903  0.00  0.00    +0.000 NA
ATOM     22  C   UNL     1       6.407   5.182  15.379  0.00  0.00    +0.000 C 
ATOM     23  C   UNL     1       6.082   4.008  16.302  0.00  0.00    +0.000 C 
ATOM     24  H   UNL     1       8.356   5.478  15.920  0.00  0.00    +0.000 HD
ENDBRANCH  16  18
ENDBRANCH   7  13
BRANCH   1  25
ATOM     25  O   UNL     1      -0.009  11.650  20.101  0.00  0.00    +0.000 OA
BRANCH  25  27
ATOM     26  C   UNL     1      -0.189  13.553  18.556  0.00  0.00    +0.000 C 
ATOM     27  C   UNL     1      -0.276  12.036  18.737  0.00  0.00    +0.000 C 
BRANCH  27  28
ATOM     28  C   UNL     1      -1.683  11.553  18.386  0.00  0.00    +0.000 A 
ATOM     29  C   UNL     1      -1.870  10.636  17.332  0.00  0.00    +0.000 A 
ATOM     30  C   UNL     1      -3.148  10.217  16.970  0.00  0.00    +0.000 A 
ATOM     31  F   UNL     1      -3.296   9.365  15.949  0.00  0.00    +0.000 F 
ATOM     32  C   UNL     1      -4.267  10.680  17.645  0.00  0.00    +0.000 A 
ATOM     33  C   UNL     1      -4.106  11.554  18.717  0.00  0.00    +0.000 A 
ATOM     34  C   UNL     1      -2.825  11.986  19.090  0.00  0.00    +0.000 A 
ATOM     35 CL   UNL     1      -2.721  13.045  20.453  0.00  0.00    +0.000 Cl
ENDBRANCH  27  28
ENDBRANCH  25  27
ENDBRANCH   1  25
TORSDOF 5
ENDMDL
MODEL 5
REMARK VINA RESULT:      -8.7      1.041      1.332
REMARK  Name = 
REMARK  6 active torsions:
REMARK  status: ('A' for Active; 'I' for Inactive)
REMARK    1  A    between atoms: C_1  and  C_2
REMARK    2  A    between atoms: C_2  and  O_3
REMARK    3  A    between atoms: C_2  and  C_25
REMARK    4  A    between atoms: O_3  and  C_4
REMARK    5  A    between atoms: C_10  and  C_11
REMARK    6  A    between atoms: N_14  and  C_15
REMARK                            x       y       z     vdW  Elec       q    Type
REMARK                         _______ _______ _______ _____ _____    ______ ____
ROOT
ATOM      1  C   UNL     1       0.178  10.584  20.422  0.00  0.00    +0.000 A 
ATOM      2  C   UNL     1      -0.022  10.049  21.702  0.00  0.00    +0.000 A 
ATOM      3  N   UNL     1      -0.833  10.699  22.638  0.00  0.00    +0.000 N 
ATOM      4  N   UNL     1       0.544   8.911  22.151  0.00  0.00    +0.000 NA
ATOM      5  C   UNL     1       1.309   8.167  21.319  0.00  0.00    +0.000 A 
ATOM      6  C   UNL     1       1.473   8.544  19.986  0.00  0.00    +0.000 A 
ATOM      7  C   UNL     1       2.125   8.011  18.840  0.00  0.00    +0.000 A 
ATOM      8  C   UNL     1       1.931   8.916  17.823  0.00  0.00    +0.000 A 
ATOM      9  O   UNL     1       1.195   9.968  18.260  0.00  0.00    +0.000 OA
ATOM     10  C   UNL     1       0.915   9.754  19.579  0.00  0.00    +0.000 A 
ATOM     11  H   UNL     1      -1.741  10.892  22.229  0.00  0.00    +0.000 HD
ATOM     12  H   UNL     1      -0.893  10.088  23.448  0.00  0.00    +0.000 HD
ENDROOT
BRANCH   7  13
ATOM     13  C   UNL     1       2.900   6.790  18.785  0.00  0.00    +0.000 A 
ATOM     14  C   UNL     1       3.751   6.354  17.754  0.00  0.00    +0.000 A 
ATOM     15  N   UNL     1       4.201   5.116  17.966  0.00  0.00    +0.000 NA
ATOM     16  N   UNL     1       3.644   4.762  19.141  0.00  0.00    +0.000 N 
ATOM     17  C   UNL     1       2.928   5.780  19.714  0.00  0.00    +0.000 A 
BRANCH  16  18
ATOM     18  C   UNL     1       3.652   3.380  19.614  0.00  0.00    +0.000 C 
ATOM     19  C   UNL     1       3.755   2.370  18.466  0.00  0.00    +0.000 C 
ATOM     20  C   UNL     1       2.416   2.196  17.758  0.00  0.00    +0.000 C 
ATOM     21  N   UNL     1       1.361   1.795  18.687  0.00  0.00    +0.000 NA
ATOM     22  C   UNL     1       1.191   2.768  19.767  0.00  0.00    +0.000 C 
ATOM     23  C   UNL     1       2.487   3.008  20.540  0.00  0.00    +0.000 C 
ATOM     24  H   UNL     1       1.575   0.881  19.083  0.00  0.00    +0.000 HD
ENDBRANCH  16  18
ENDBRANCH   7  13
BRANCH   1  25
ATOM     25  O   UNL     1      -0.450  11.767  20.093  0.00  0.00    +0.000 OA
BRANCH  25  27
ATOM     26  C   UNL     1      -1.422  12.211  17.879  0.00  0.00    +0.000 C 
ATOM     27  C   UNL     1      -1.653  11.691  19.300  0.00  0.00    +0.000 C 
BRANCH  27  28
ATOM     28  C   UNL     1      -2.719  12.539  19.993  0.00  0.00    +0.000 A 
ATOM     29  C   UNL     1      -2.343  13.492  20.961  0.00  0.00    +0.000 A 
ATOM     30  C   UNL     1      -3.303  14.243  21.633  0.00  0.00    +0.000 A 
ATOM     31  F   UNL     1      -2.917  15.123  22.565  0.00  0.00    +0.000 F 
ATOM     32  C   UNL     1      -4.653  14.084  21.358  0.00  0.00    +0.000 A 
ATOM     33  C   UNL     1      -5.048  13.179  20.376  0.00  0.00    +0.000 A 
ATOM     34  C   UNL     1      -4.091  12.414  19.694  0.00  0.00    +0.000 A 
ATOM     35 CL   UNL     1      -4.673  11.341  18.470  0.00  0.00    +0.000 Cl
ENDBRANCH  27  28
ENDBRANCH  25  27
ENDBRANCH   1  25
TORSDOF 5
ENDMDL
MODEL 6
REMARK VINA RESULT:      -8.6      2.998      4.373
REMARK  Name = 
REMARK  6 active torsions:
REMARK  status: ('A' for Active; 'I' for Inactive)
REMARK    1  A    between atoms: C_1  and  C_2
REMARK    2  A    between atoms: C_2  and  O_3
REMARK    3  A    between atoms: C_2  and  C_25
REMARK    4  A    between atoms: O_3  and  C_4
REMARK    5  A    between atoms: C_10  and  C_11
REMARK    6  A    between atoms: N_14  and  C_15
REMARK                            x       y       z     vdW  Elec       q    Type
REMARK                         _______ _______ _______ _____ _____    ______ ____
ROOT
ATOM      1  C   UNL     1       0.464   9.634  19.896  0.00  0.00    +0.000 A 
ATOM      2  C   UNL     1       0.945  10.357  18.796  0.00  0.00    +0.000 A 
ATOM      3  N   UNL     1       0.510  11.663  18.545  0.00  0.00    +0.000 N 
ATOM      4  N   UNL     1       1.822   9.879  17.891  0.00  0.00    +0.000 NA
ATOM      5  C   UNL     1       2.352   8.645  18.057  0.00  0.00    +0.000 A 
ATOM      6  C   UNL     1       2.036   7.887  19.184  0.00  0.00    +0.000 A 
ATOM      7  C   UNL     1       2.422   6.625  19.715  0.00  0.00    +0.000 A 
ATOM      8  C   UNL     1       1.692   6.446  20.867  0.00  0.00    +0.000 A 
ATOM      9  O   UNL     1       0.888   7.515  21.089  0.00  0.00    +0.000 OA
ATOM     10  C   UNL     1       1.085   8.398  20.065  0.00  0.00    +0.000 A 
ATOM     11  H   UNL     1       0.633  12.230  19.377  0.00  0.00    +0.000 HD
ATOM     12  H   UNL     1       1.053  12.006  17.757  0.00  0.00    +0.000 HD
ENDROOT
BRANCH   7  13
ATOM     13  C   UNL     1       3.349   5.689  19.116  0.00  0.00    +0.000 A 
ATOM     14  C   UNL     1       3.212   4.295  18.998  0.00  0.00    +0.000 A 
ATOM     15  N   UNL     1       4.317   3.723  18.516  0.00  0.00    +0.000 NA
ATOM     16  N   UNL     1       5.160   4.754  18.316  0.00  0.00    +0.000 N 
ATOM     17  C   UNL     1       4.580   5.969  18.577  0.00  0.00    +0.000 A 
BRANCH  16  18
ATOM     18  C   UNL     1       6.582   4.550  18.054  0.00  0.00    +0.000 C 
ATOM     19  C   UNL     1       7.444   5.704  18.575  0.00  0.00    +0.000 C 
ATOM     20  C   UNL     1       7.374   6.913  17.648  0.00  0.00    +0.000 C 
ATOM     21  N   UNL     1       7.765   6.570  16.282  0.00  0.00    +0.000 NA
ATOM     22  C   UNL     1       6.922   5.510  15.726  0.00  0.00    +0.000 C 
ATOM     23  C   UNL     1       6.932   4.250  16.590  0.00  0.00    +0.000 C 
ATOM     24  H   UNL     1       8.740   6.275  16.263  0.00  0.00    +0.000 HD
ENDBRANCH  16  18
ENDBRANCH   7  13
BRANCH   1  25
ATOM     25  O   UNL     1      -0.445  10.236  20.740  0.00  0.00    +0.000 OA
BRANCH  25  27
ATOM     26  C   UNL     1      -0.076   9.650  23.098  0.00  0.00    +0.000 C 
ATOM     27  C   UNL     1       0.036  10.721  22.010  0.00  0.00    +0.000 C 
BRANCH  27  28
ATOM     28  C   UNL     1      -0.807  11.936  22.393  0.00  0.00    +0.000 A 
ATOM     29  C   UNL     1      -2.023  11.761  23.085  0.00  0.00    +0.000 A 
ATOM     30  C   UNL     1      -2.825  12.853  23.405  0.00  0.00    +0.000 A 
ATOM     31  F   UNL     1      -3.986  12.652  24.040  0.00  0.00    +0.000 F 
ATOM     32  C   UNL     1      -2.442  14.142  23.066  0.00  0.00    +0.000 A 
ATOM     33  C   UNL     1      -1.226  14.346  22.420  0.00  0.00    +0.000 A 
ATOM     34  C   UNL     1      -0.410  13.254  22.088  0.00  0.00    +0.000 A 
ATOM     35 CL   UNL     1       1.097  13.607  21.317  0.00  0.00    +0.000 Cl
ENDBRANCH  27  28
ENDBRANCH  25  27
ENDBRANCH   1  25
TORSDOF 5
ENDMDL
MODEL 7
REMARK VINA RESULT:      -8.5      2.282      3.461
REMARK  Name = 
REMARK  6 active torsions:
REMARK  status: ('A' for Active; 'I' for Inactive)
REMARK    1  A    between atoms: C_1  and  C_2
REMARK    2  A    between atoms: C_2  and  O_3
REMARK    3  A    between atoms: C_2  and  C_25
REMARK    4  A    between atoms: O_3  and  C_4
REMARK    5  A    between atoms: C_10  and  C_11
REMARK    6  A    between atoms: N_14  and  C_15
REMARK                            x       y       z     vdW  Elec       q    Type
REMARK                         _______ _______ _______ _____ _____    ______ ____
ROOT
ATOM      1  C   UNL     1       0.079  10.334  20.393  0.00  0.00    +0.000 A 
ATOM      2  C   UNL     1       0.032   9.698  21.641  0.00  0.00    +0.000 A 
ATOM      3  N   UNL     1      -0.780  10.187  22.670  0.00  0.00    +0.000 N 
ATOM      4  N   UNL     1       0.753   8.608  21.972  0.00  0.00    +0.000 NA
ATOM      5  C   UNL     1       1.537   8.014  21.043  0.00  0.00    +0.000 A 
ATOM      6  C   UNL     1       1.563   8.491  19.732  0.00  0.00    +0.000 A 
ATOM      7  C   UNL     1       2.189   8.113  18.513  0.00  0.00    +0.000 A 
ATOM      8  C   UNL     1       1.823   9.052  17.577  0.00  0.00    +0.000 A 
ATOM      9  O   UNL     1       1.005   9.980  18.133  0.00  0.00    +0.000 OA
ATOM     10  C   UNL     1       0.844   9.651  19.449  0.00  0.00    +0.000 A 
ATOM     11  H   UNL     1      -1.730  10.297  22.333  0.00  0.00    +0.000 HD
ATOM     12  H   UNL     1      -0.714   9.523  23.437  0.00  0.00    +0.000 HD
ENDROOT
BRANCH   7  13
ATOM     13  C   UNL     1       3.091   6.998  18.322  0.00  0.00    +0.000 A 
ATOM     14  C   UNL     1       3.121   5.781  19.025  0.00  0.00    +0.000 A 
ATOM     15  N   UNL     1       4.170   5.031  18.685  0.00  0.00    +0.000 NA
ATOM     16  N   UNL     1       4.810   5.765  17.755  0.00  0.00    +0.000 N 
ATOM     17  C   UNL     1       4.139   6.918  17.438  0.00  0.00    +0.000 A 
BRANCH  16  18
ATOM     18  C   UNL     1       6.163   5.441  17.311  0.00  0.00    +0.000 C 
ATOM     19  C   UNL     1       6.986   4.750  18.404  0.00  0.00    +0.000 C 
ATOM     20  C   UNL     1       7.488   5.751  19.438  0.00  0.00    +0.000 C 
ATOM     21  N   UNL     1       8.269   6.821  18.821  0.00  0.00    +0.000 NA
ATOM     22  C   UNL     1       7.495   7.546  17.813  0.00  0.00    +0.000 C 
ATOM     23  C   UNL     1       6.951   6.621  16.726  0.00  0.00    +0.000 C 
ATOM     24  H   UNL     1       9.110   6.435  18.393  0.00  0.00    +0.000 HD
ENDBRANCH  16  18
ENDBRANCH   7  13
BRANCH   1  25
ATOM     25  O   UNL     1      -0.700  11.453  20.188  0.00  0.00    +0.000 OA
BRANCH  25  27
ATOM     26  C   UNL     1      -0.536  13.500  18.838  0.00  0.00    +0.000 C 
ATOM     27  C   UNL     1      -0.771  11.987  18.851  0.00  0.00    +0.000 C 
BRANCH  27  28
ATOM     28  C   UNL     1      -2.162  11.676  18.299  0.00  0.00    +0.000 A 
ATOM     29  C   UNL     1      -2.296  11.028  17.054  0.00  0.00    +0.000 A 
ATOM     30  C   UNL     1      -3.555  10.774  16.516  0.00  0.00    +0.000 A 
ATOM     31  F   UNL     1      -3.651  10.181  15.320  0.00  0.00    +0.000 F 
ATOM     32  C   UNL     1      -4.708  11.137  17.196  0.00  0.00    +0.000 A 
ATOM     33  C   UNL     1      -4.602  11.740  18.447  0.00  0.00    +0.000 A 
ATOM     34  C   UNL     1      -3.340  12.005  18.999  0.00  0.00    +0.000 A 
ATOM     35 CL   UNL     1      -3.308  12.725  20.570  0.00  0.00    +0.000 Cl
ENDBRANCH  27  28
ENDBRANCH  25  27
ENDBRANCH   1  25
TORSDOF 5
ENDMDL
MODEL 8
REMARK VINA RESULT:      -8.5      1.088      1.555
REMARK  Name = 
REMARK  6 active torsions:
REMARK  status: ('A' for Active; 'I' for Inactive)
REMARK    1  A    between atoms: C_1  and  C_2
REMARK    2  A    between atoms: C_2  and  O_3
REMARK    3  A    between atoms: C_2  and  C_25
REMARK    4  A    between atoms: O_3  and  C_4
REMARK    5  A    between atoms: C_10  and  C_11
REMARK    6  A    between atoms: N_14  and  C_15
REMARK                            x       y       z     vdW  Elec       q    Type
REMARK                         _______ _______ _______ _____ _____    ______ ____
ROOT
ATOM      1  C   UNL     1       0.243  10.856  20.795  0.00  0.00    +0.000 A 
ATOM      2  C   UNL     1      -0.012  10.049  21.912  0.00  0.00    +0.000 A 
ATOM      3  N   UNL     1      -0.770  10.525  22.988  0.00  0.00    +0.000 N 
ATOM      4  N   UNL     1       0.448   8.793  22.069  0.00  0.00    +0.000 NA
ATOM      5  C   UNL     1       1.151   8.206  21.073  0.00  0.00    +0.000 A 
ATOM      6  C   UNL     1       1.358   8.874  19.867  0.00  0.00    +0.000 A 
ATOM      7  C   UNL     1       1.970   8.577  18.618  0.00  0.00    +0.000 A 
ATOM      8  C   UNL     1       1.863   9.712  17.849  0.00  0.00    +0.000 A 
ATOM      9  O   UNL     1       1.219  10.688  18.535  0.00  0.00    +0.000 OA
ATOM     10  C   UNL     1       0.911  10.191  19.768  0.00  0.00    +0.000 A 
ATOM     11  H   UNL     1      -1.655  10.888  22.649  0.00  0.00    +0.000 HD
ATOM     12  H   UNL     1      -0.890   9.746  23.629  0.00  0.00    +0.000 HD
ENDROOT
BRANCH   7  13
ATOM     13  C   UNL     1       2.635   7.341  18.262  0.00  0.00    +0.000 A 
ATOM     14  C   UNL     1       3.857   7.183  17.585  0.00  0.00    +0.000 A 
ATOM     15  N   UNL     1       4.109   5.905  17.298  0.00  0.00    +0.000 NA
ATOM     16  N   UNL     1       3.049   5.242  17.801  0.00  0.00    +0.000 N 
ATOM     17  C   UNL     1       2.183   6.063  18.474  0.00  0.00    +0.000 A 
BRANCH  16  18
ATOM     18  C   UNL     1       2.783   3.845  17.466  0.00  0.00    +0.000 C 
ATOM     19  C   UNL     1       1.473   3.337  18.077  0.00  0.00    +0.000 C 
ATOM     20  C   UNL     1       1.635   3.026  19.561  0.00  0.00    +0.000 C 
ATOM     21  N   UNL     1       2.706   2.061  19.797  0.00  0.00    +0.000 NA
ATOM     22  C   UNL     1       3.990   2.538  19.281  0.00  0.00    +0.000 C 
ATOM     23  C   UNL     1       3.926   2.874  17.792  0.00  0.00    +0.000 C 
ATOM     24  H   UNL     1       2.474   1.169  19.361  0.00  0.00    +0.000 HD
ENDBRANCH  16  18
ENDBRANCH   7  13
BRANCH   1  25
ATOM     25  O   UNL     1      -0.276  12.133  20.766  0.00  0.00    +0.000 OA
BRANCH  25  27
ATOM     26  C   UNL     1      -0.692  13.829  19.036  0.00  0.00    +0.000 C 
ATOM     27  C   UNL     1      -1.116  12.492  19.650  0.00  0.00    +0.000 C 
BRANCH  27  28
ATOM     28  C   UNL     1      -2.552  12.592  20.163  0.00  0.00    +0.000 A 
ATOM     29  C   UNL     1      -2.806  13.108  21.450  0.00  0.00    +0.000 A 
ATOM     30  C   UNL     1      -4.104  13.167  21.951  0.00  0.00    +0.000 A 
ATOM     31  F   UNL     1      -4.312  13.638  23.186  0.00  0.00    +0.000 F 
ATOM     32  C   UNL     1      -5.181  12.734  21.192  0.00  0.00    +0.000 A 
ATOM     33  C   UNL     1      -4.961  12.260  19.901  0.00  0.00    +0.000 A 
ATOM     34  C   UNL     1      -3.658  12.191  19.386  0.00  0.00    +0.000 A 
ATOM     35 CL   UNL     1      -3.486  11.619  17.764  0.00  0.00    +0.000 Cl
ENDBRANCH  27  28
ENDBRANCH  25  27
ENDBRANCH   1  25
TORSDOF 5
ENDMDL
MODEL 9
REMARK VINA RESULT:      -8.4      1.898      3.083
REMARK  Name = 
REMARK  6 active torsions:
REMARK  status: ('A' for Active; 'I' for Inactive)
REMARK    1  A    between atoms: C_1  and  C_2
REMARK    2  A    between atoms: C_2  and  O_3
REMARK    3  A    between atoms: C_2  and  C_25
REMARK    4  A    between atoms: O_3  and  C_4
REMARK    5  A    between atoms: C_10  and  C_11
REMARK    6  A    between atoms: N_14  and  C_15
REMARK                            x       y       z     vdW  Elec       q    Type
REMARK                         _______ _______ _______ _____ _____    ______ ____
ROOT
ATOM      1  C   UNL     1       0.370  10.632  20.733  0.00  0.00    +0.000 A 
ATOM      2  C   UNL     1       0.174   9.833  21.868  0.00  0.00    +0.000 A 
ATOM      3  N   UNL     1      -0.560  10.302  22.963  0.00  0.00    +0.000 N 
ATOM      4  N   UNL     1       0.672   8.590  22.023  0.00  0.00    +0.000 NA
ATOM      5  C   UNL     1       1.356   8.009  21.011  0.00  0.00    +0.000 A 
ATOM      6  C   UNL     1       1.505   8.668  19.791  0.00  0.00    +0.000 A 
ATOM      7  C   UNL     1       2.082   8.370  18.526  0.00  0.00    +0.000 A 
ATOM      8  C   UNL     1       1.919   9.493  17.748  0.00  0.00    +0.000 A 
ATOM      9  O   UNL     1       1.273  10.460  18.443  0.00  0.00    +0.000 OA
ATOM     10  C   UNL     1       1.020   9.971  19.692  0.00  0.00    +0.000 A 
ATOM     11  H   UNL     1      -1.465  10.638  22.649  0.00  0.00    +0.000 HD
ATOM     12  H   UNL     1      -0.638   9.528  23.617  0.00  0.00    +0.000 HD
ENDROOT
BRANCH   7  13
ATOM     13  C   UNL     1       2.767   7.148  18.161  0.00  0.00    +0.000 A 
ATOM     14  C   UNL     1       2.436   5.832  18.525  0.00  0.00    +0.000 A 
ATOM     15  N   UNL     1       3.360   4.955  18.130  0.00  0.00    +0.000 NA
ATOM     16  N   UNL     1       4.282   5.711  17.503  0.00  0.00    +0.000 N 
ATOM     17  C   UNL     1       3.914   7.029  17.418  0.00  0.00    +0.000 A 
BRANCH  16  18
ATOM     18  C   UNL     1       5.601   5.190  17.155  0.00  0.00    +0.000 C 
ATOM     19  C   UNL     1       6.299   4.524  18.345  0.00  0.00    +0.000 C 
ATOM     20  C   UNL     1       6.882   5.560  19.299  0.00  0.00    +0.000 C 
ATOM     21  N   UNL     1       7.805   6.465  18.617  0.00  0.00    +0.000 NA
ATOM     22  C   UNL     1       7.157   7.168  17.509  0.00  0.00    +0.000 C 
ATOM     23  C   UNL     1       6.543   6.206  16.493  0.00  0.00    +0.000 C 
ATOM     24  H   UNL     1       8.608   5.943  18.267  0.00  0.00    +0.000 HD
ENDBRANCH  16  18
ENDBRANCH   7  13
BRANCH   1  25
ATOM     25  O   UNL     1      -0.184  11.894  20.706  0.00  0.00    +0.000 OA
BRANCH  25  27
ATOM     26  C   UNL     1      -0.807  13.228  18.739  0.00  0.00    +0.000 C 
ATOM     27  C   UNL     1      -1.225  12.152  19.743  0.00  0.00    +0.000 C 
BRANCH  27  28
ATOM     28  C   UNL     1      -2.464  12.614  20.510  0.00  0.00    +0.000 A 
ATOM     29  C   UNL     1      -2.322  13.230  21.770  0.00  0.00    +0.000 A 
ATOM     30  C   UNL     1      -3.441  13.619  22.502  0.00  0.00    +0.000 A 
ATOM     31  F   UNL     1      -3.276  14.179  23.707  0.00  0.00    +0.000 F 
ATOM     32  C   UNL     1      -4.721  13.425  22.006  0.00  0.00    +0.000 A 
ATOM     33  C   UNL     1      -4.886  12.857  20.745  0.00  0.00    +0.000 A 
ATOM     34  C   UNL     1      -3.767  12.457  19.998  0.00  0.00    +0.000 A 
ATOM     35 CL   UNL     1      -4.069  11.792  18.431  0.00  0.00    +0.000 Cl
ENDBRANCH  27  28
ENDBRANCH  25  27
ENDBRANCH   1  25
TORSDOF 5
ENDMDL
