MODEL 1
REMARK VINA RESULT:      -7.0      0.000      0.000
REMARK  Name = 
REMARK  6 active torsions:
REMARK  status: ('A' for Active; 'I' for Inactive)
REMARK    1  A    between atoms: C_1  and  O_2
REMARK    2  A    between atoms: O_2  and  C_3
REMARK    3  A    between atoms: C_6  and  O_7
REMARK    4  A    between atoms: O_7  and  C_8
REMARK    5  A    between atoms: C_8  and  C_9
REMARK    6  A    between atoms: N_11  and  C_12
REMARK                            x       y       z     vdW  Elec       q    Type
REMARK                         _______ _______ _______ _____ _____    ______ ____
ROOT
ATOM      1  C   UNL     1       2.432   5.186  19.813  0.00  0.00    +0.000 C 
ATOM      2  O   UNL     1       1.352   4.918  19.295  0.00  0.00    +0.000 OA
ATOM      3  N   UNL     1       2.952   6.459  19.977  0.00  0.00    +0.000 N 
ATOM      4  H   UNL     1       3.969   6.487  19.948  0.00  0.00    +0.000 HD
ENDROOT
BRANCH   3   5
ATOM      5  C   UNL     1       2.261   7.616  19.553  0.00  0.00    +0.000 A 
ATOM      6  C   UNL     1       2.494   8.153  18.265  0.00  0.00    +0.000 A 
ATOM      7 CL   UNL     1       3.634   7.376  17.207  0.00  0.00    +0.000 Cl
ATOM      8  C   UNL     1       1.806   9.277  17.748  0.00  0.00    +0.000 A 
ATOM      9  C   UNL     1       0.852   9.997  18.488  0.00  0.00    +0.000 A 
ATOM     10  C   UNL     1       0.623   9.554  19.812  0.00  0.00    +0.000 A 
ATOM     11  N   UNL     1      -0.208  10.134  20.692  0.00  0.00    +0.000 NA
ATOM     12  S   UNL     1      -0.084   9.259  22.098  0.00  0.00    +0.000 S 
ATOM     13  N   UNL     1       1.042   8.126  21.661  0.00  0.00    +0.000 NA
ATOM     14  C   UNL     1       1.338   8.342  20.367  0.00  0.00    +0.000 A 
ENDBRANCH   3   5
BRANCH   1  15
ATOM     15  C   UNL     1       3.369   4.090  20.320  0.00  0.00    +0.000 C 
BRANCH  15  16
ATOM     16  O   UNL     1       3.710   3.215  19.244  0.00  0.00    +0.000 OA
BRANCH  16  20
ATOM     17  C   UNL     1       6.287   4.828  16.389  0.00  0.00    +0.000 A 
ATOM     18  C   UNL     1       6.562   4.885  17.755  0.00  0.00    +0.000 A 
ATOM     19  C   UNL     1       5.676   4.329  18.681  0.00  0.00    +0.000 A 
ATOM     20  C   UNL     1       4.482   3.750  18.251  0.00  0.00    +0.000 A 
ATOM     21  C   UNL     1       4.197   3.704  16.887  0.00  0.00    +0.000 A 
ATOM     22  C   UNL     1       5.095   4.244  15.956  0.00  0.00    +0.000 A 
BRANCH  17  24
ATOM     23  C   UNL     1       7.212   4.975  14.220  0.00  0.00    +0.000 C 
ATOM     24  O   UNL     1       7.227   5.397  15.578  0.00  0.00    +0.000 OA
ENDBRANCH  17  24
ENDBRANCH  16  20
ENDBRANCH  15  16
ENDBRANCH   1  15
TORSDOF 5
ENDMDL
MODEL 2
REMARK VINA RESULT:      -6.8      0.500      1.120
REMARK  Name = 
REMARK  6 active torsions:
REMARK  status: ('A' for Active; 'I' for Inactive)
REMARK    1  A    between atoms: C_1  and  O_2
REMARK    2  A    between atoms: O_2  and  C_3
REMARK    3  A    between atoms: C_6  and  O_7
REMARK    4  A    between atoms: O_7  and  C_8
REMARK    5  A    between atoms: C_8  and  C_9
REMARK    6  A    between atoms: N_11  and  C_12
REMARK                            x       y       z     vdW  Elec       q    Type
REMARK                         _______ _______ _______ _____ _____    ______ ____
ROOT
ATOM      1  C   UNL     1       2.149   5.360  20.288  0.00  0.00    +0.000 C 
ATOM      2  O   UNL     1       0.983   5.102  20.003  0.00  0.00    +0.000 OA
ATOM      3  N   UNL     1       2.734   6.614  20.226  0.00  0.00    +0.000 N 
ATOM      4  H   UNL     1       3.728   6.586  20.010  0.00  0.00    +0.000 HD
ENDROOT
BRANCH   3   5
ATOM      5  C   UNL     1       2.017   7.761  19.819  0.00  0.00    +0.000 A 
ATOM      6  C   UNL     1       2.170   8.269  18.507  0.00  0.00    +0.000 A 
ATOM      7 CL   UNL     1       3.245   7.470  17.400  0.00  0.00    +0.000 Cl
ATOM      8  C   UNL     1       1.451   9.382  18.009  0.00  0.00    +0.000 A 
ATOM      9  C   UNL     1       0.542  10.118  18.789  0.00  0.00    +0.000 A 
ATOM     10  C   UNL     1       0.395   9.704  20.134  0.00  0.00    +0.000 A 
ATOM     11  N   UNL     1      -0.382  10.303  21.049  0.00  0.00    +0.000 NA
ATOM     12  S   UNL     1      -0.172   9.460  22.464  0.00  0.00    +0.000 S 
ATOM     13  N   UNL     1       0.927   8.318  21.985  0.00  0.00    +0.000 NA
ATOM     14  C   UNL     1       1.144   8.505  20.671  0.00  0.00    +0.000 A 
ENDBRANCH   3   5
BRANCH   1  15
ATOM     15  C   UNL     1       3.126   4.269  20.724  0.00  0.00    +0.000 C 
BRANCH  15  16
ATOM     16  O   UNL     1       3.479   3.464  19.599  0.00  0.00    +0.000 OA
BRANCH  16  20
ATOM     17  C   UNL     1       6.038   5.125  16.756  0.00  0.00    +0.000 A 
ATOM     18  C   UNL     1       4.878   4.437  16.400  0.00  0.00    +0.000 A 
ATOM     19  C   UNL     1       4.043   3.898  17.382  0.00  0.00    +0.000 A 
ATOM     20  C   UNL     1       4.386   4.003  18.730  0.00  0.00    +0.000 A 
ATOM     21  C   UNL     1       5.552   4.678  19.089  0.00  0.00    +0.000 A 
ATOM     22  C   UNL     1       6.379   5.236  18.105  0.00  0.00    +0.000 A 
BRANCH  17  24
ATOM     23  C   UNL     1       6.906   4.750  14.592  0.00  0.00    +0.000 C 
ATOM     24  O   UNL     1       6.771   5.614  15.713  0.00  0.00    +0.000 OA
ENDBRANCH  17  24
ENDBRANCH  16  20
ENDBRANCH  15  16
ENDBRANCH   1  15
TORSDOF 5
ENDMDL
MODEL 3
REMARK VINA RESULT:      -6.8      2.804      4.600
REMARK  Name = 
REMARK  6 active torsions:
REMARK  status: ('A' for Active; 'I' for Inactive)
REMARK    1  A    between atoms: C_1  and  O_2
REMARK    2  A    between atoms: O_2  and  C_3
REMARK    3  A    between atoms: C_6  and  O_7
REMARK    4  A    between atoms: O_7  and  C_8
REMARK    5  A    between atoms: C_8  and  C_9
REMARK    6  A    between atoms: N_11  and  C_12
REMARK                            x       y       z     vdW  Elec       q    Type
REMARK                         _______ _______ _______ _____ _____    ______ ____
ROOT
ATOM      1  C   UNL     1       6.438   5.253  17.905  0.00  0.00    +0.000 C 
ATOM      2  O   UNL     1       6.819   6.039  18.767  0.00  0.00    +0.000 OA
ATOM      3  N   UNL     1       5.144   4.780  17.761  0.00  0.00    +0.000 N 
ATOM      4  H   UNL     1       5.097   3.840  17.375  0.00  0.00    +0.000 HD
ENDROOT
BRANCH   3   5
ATOM      5  C   UNL     1       4.097   5.177  18.622  0.00  0.00    +0.000 A 
ATOM      6  C   UNL     1       3.642   4.305  19.640  0.00  0.00    +0.000 A 
ATOM      7 CL   UNL     1       4.383   2.744  19.823  0.00  0.00    +0.000 Cl
ATOM      8  C   UNL     1       2.633   4.648  20.573  0.00  0.00    +0.000 A 
ATOM      9  C   UNL     1       1.955   5.879  20.550  0.00  0.00    +0.000 A 
ATOM     10  C   UNL     1       2.315   6.771  19.512  0.00  0.00    +0.000 A 
ATOM     11  N   UNL     1       1.752   7.968  19.288  0.00  0.00    +0.000 NA
ATOM     12  S   UNL     1       2.499   8.591  17.942  0.00  0.00    +0.000 S 
ATOM     13  N   UNL     1       3.546   7.363  17.571  0.00  0.00    +0.000 NA
ATOM     14  C   UNL     1       3.404   6.422  18.521  0.00  0.00    +0.000 A 
ENDBRANCH   3   5
BRANCH   1  15
ATOM     15  C   UNL     1       7.404   4.661  16.879  0.00  0.00    +0.000 C 
BRANCH  15  16
ATOM     16  O   UNL     1       7.382   5.451  15.689  0.00  0.00    +0.000 OA
BRANCH  16  20
ATOM     17  C   UNL     1       5.870   3.502  12.327  0.00  0.00    +0.000 A 
ATOM     18  C   UNL     1       5.273   3.390  13.583  0.00  0.00    +0.000 A 
ATOM     19  C   UNL     1       5.806   4.062  14.684  0.00  0.00    +0.000 A 
ATOM     20  C   UNL     1       6.971   4.817  14.550  0.00  0.00    +0.000 A 
ATOM     21  C   UNL     1       7.579   4.920  13.300  0.00  0.00    +0.000 A 
ATOM     22  C   UNL     1       7.033   4.261  12.190  0.00  0.00    +0.000 A 
BRANCH  17  24
ATOM     23  C   UNL     1       3.917   3.187  11.036  0.00  0.00    +0.000 C 
ATOM     24  O   UNL     1       5.257   2.807  11.324  0.00  0.00    +0.000 OA
ENDBRANCH  17  24
ENDBRANCH  16  20
ENDBRANCH  15  16
ENDBRANCH   1  15
TORSDOF 5
ENDMDL
MODEL 4
REMARK VINA RESULT:      -6.7      1.028      1.230
REMARK  Name = 
REMARK  6 active torsions:
REMARK  status: ('A' for Active; 'I' for Inactive)
REMARK    1  A    between atoms: C_1  and  O_2
REMARK    2  A    between atoms: O_2  and  C_3
REMARK    3  A    between atoms: C_6  and  O_7
REMARK    4  A    between atoms: O_7  and  C_8
REMARK    5  A    between atoms: C_8  and  C_9
REMARK    6  A    between atoms: N_11  and  C_12
REMARK                            x       y       z     vdW  Elec       q    Type
REMARK                         _______ _______ _______ _____ _____    ______ ____
ROOT
ATOM      1  C   UNL     1       1.735   5.336  20.670  0.00  0.00    +0.000 C 
ATOM      2  O   UNL     1       0.571   5.185  20.310  0.00  0.00    +0.000 OA
ATOM      3  N   UNL     1       2.472   6.502  20.543  0.00  0.00    +0.000 N 
ATOM      4  H   UNL     1       3.469   6.338  20.418  0.00  0.00    +0.000 HD
ENDROOT
BRANCH   3   5
ATOM      5  C   UNL     1       1.934   7.675  19.970  0.00  0.00    +0.000 A 
ATOM      6  C   UNL     1       2.218   8.007  18.624  0.00  0.00    +0.000 A 
ATOM      7 CL   UNL     1       3.232   6.957  17.680  0.00  0.00    +0.000 Cl
ATOM      8  C   UNL     1       1.677   9.136  17.964  0.00  0.00    +0.000 A 
ATOM      9  C   UNL     1       0.835  10.064  18.600  0.00  0.00    +0.000 A 
ATOM     10  C   UNL     1       0.567   9.829  19.970  0.00  0.00    +0.000 A 
ATOM     11  N   UNL     1      -0.169  10.621  20.764  0.00  0.00    +0.000 NA
ATOM     12  S   UNL     1      -0.143   9.926  22.271  0.00  0.00    +0.000 S 
ATOM     13  N   UNL     1       0.819   8.608  21.989  0.00  0.00    +0.000 NA
ATOM     14  C   UNL     1       1.125   8.615  20.679  0.00  0.00    +0.000 A 
ENDBRANCH   3   5
BRANCH   1  15
ATOM     15  C   UNL     1       2.536   4.191  21.290  0.00  0.00    +0.000 C 
BRANCH  15  16
ATOM     16  O   UNL     1       2.634   3.115  20.356  0.00  0.00    +0.000 OA
BRANCH  16  20
ATOM     17  C   UNL     1       4.918   3.893  16.955  0.00  0.00    +0.000 A 
ATOM     18  C   UNL     1       5.420   4.073  18.244  0.00  0.00    +0.000 A 
ATOM     19  C   UNL     1       4.625   3.796  19.359  0.00  0.00    +0.000 A 
ATOM     20  C   UNL     1       3.304   3.381  19.194  0.00  0.00    +0.000 A 
ATOM     21  C   UNL     1       2.794   3.214  17.907  0.00  0.00    +0.000 A 
ATOM     22  C   UNL     1       3.597   3.472  16.789  0.00  0.00    +0.000 A 
BRANCH  17  24
ATOM     23  C   UNL     1       7.095   4.575  16.343  0.00  0.00    +0.000 C 
ATOM     24  O   UNL     1       5.787   4.187  15.943  0.00  0.00    +0.000 OA
ENDBRANCH  17  24
ENDBRANCH  16  20
ENDBRANCH  15  16
ENDBRANCH   1  15
TORSDOF 5
ENDMDL
MODEL 5
REMARK VINA RESULT:      -6.7      0.966      1.171
REMARK  Name = 
REMARK  6 active torsions:
REMARK  status: ('A' for Active; 'I' for Inactive)
REMARK    1  A    between atoms: C_1  and  O_2
REMARK    2  A    between atoms: O_2  and  C_3
REMARK    3  A    between atoms: C_6  and  O_7
REMARK    4  A    between atoms: O_7  and  C_8
REMARK    5  A    between atoms: C_8  and  C_9
REMARK    6  A    between atoms: N_11  and  C_12
REMARK                            x       y       z     vdW  Elec       q    Type
REMARK                         _______ _______ _______ _____ _____    ______ ____
ROOT
ATOM      1  C   UNL     1       2.338   5.272  19.756  0.00  0.00    +0.000 C 
ATOM      2  O   UNL     1       1.340   5.014  19.089  0.00  0.00    +0.000 OA
ATOM      3  N   UNL     1       2.769   6.542  20.103  0.00  0.00    +0.000 N 
ATOM      4  H   UNL     1       3.780   6.614  20.198  0.00  0.00    +0.000 HD
ENDROOT
BRANCH   3   5
ATOM      5  C   UNL     1       2.073   7.707  19.713  0.00  0.00    +0.000 A 
ATOM      6  C   UNL     1       2.277   8.263  18.427  0.00  0.00    +0.000 A 
ATOM      7 CL   UNL     1       3.390   7.499  17.332  0.00  0.00    +0.000 Cl
ATOM      8  C   UNL     1       1.581   9.397  17.944  0.00  0.00    +0.000 A 
ATOM      9  C   UNL     1       0.647  10.108  18.716  0.00  0.00    +0.000 A 
ATOM     10  C   UNL     1       0.447   9.645  20.038  0.00  0.00    +0.000 A 
ATOM     11  N   UNL     1      -0.362  10.214  20.945  0.00  0.00    +0.000 NA
ATOM     12  S   UNL     1      -0.209   9.317  22.335  0.00  0.00    +0.000 S 
ATOM     13  N   UNL     1       0.904   8.188  21.855  0.00  0.00    +0.000 NA
ATOM     14  C   UNL     1       1.171   8.423  20.558  0.00  0.00    +0.000 A 
ENDBRANCH   3   5
BRANCH   1  15
ATOM     15  C   UNL     1       3.267   4.170  20.264  0.00  0.00    +0.000 C 
BRANCH  15  16
ATOM     16  O   UNL     1       3.917   3.543  19.157  0.00  0.00    +0.000 OA
BRANCH  16  20
ATOM     17  C   UNL     1       6.731   5.921  17.203  0.00  0.00    +0.000 A 
ATOM     18  C   UNL     1       6.657   5.848  18.594  0.00  0.00    +0.000 A 
ATOM     19  C   UNL     1       5.703   5.036  19.212  0.00  0.00    +0.000 A 
ATOM     20  C   UNL     1       4.783   4.324  18.443  0.00  0.00    +0.000 A 
ATOM     21  C   UNL     1       4.844   4.405  17.053  0.00  0.00    +0.000 A 
ATOM     22  C   UNL     1       5.814   5.204  16.432  0.00  0.00    +0.000 A 
BRANCH  17  24
ATOM     23  C   UNL     1       7.887   7.972  17.399  0.00  0.00    +0.000 C 
ATOM     24  O   UNL     1       7.707   6.740  16.711  0.00  0.00    +0.000 OA
ENDBRANCH  17  24
ENDBRANCH  16  20
ENDBRANCH  15  16
ENDBRANCH   1  15
TORSDOF 5
ENDMDL
MODEL 6
REMARK VINA RESULT:      -6.6      3.565      5.132
REMARK  Name = 
REMARK  6 active torsions:
REMARK  status: ('A' for Active; 'I' for Inactive)
REMARK    1  A    between atoms: C_1  and  O_2
REMARK    2  A    between atoms: O_2  and  C_3
REMARK    3  A    between atoms: C_6  and  O_7
REMARK    4  A    between atoms: O_7  and  C_8
REMARK    5  A    between atoms: C_8  and  C_9
REMARK    6  A    between atoms: N_11  and  C_12
REMARK                            x       y       z     vdW  Elec       q    Type
REMARK                         _______ _______ _______ _____ _____    ______ ____
ROOT
ATOM      1  C   UNL     1       5.430   5.996  17.663  0.00  0.00    +0.000 C 
ATOM      2  O   UNL     1       6.062   5.517  18.601  0.00  0.00    +0.000 OA
ATOM      3  N   UNL     1       4.055   5.940  17.507  0.00  0.00    +0.000 N 
ATOM      4  H   UNL     1       3.760   5.921  16.533  0.00  0.00    +0.000 HD
ENDROOT
BRANCH   3   5
ATOM      5  C   UNL     1       3.214   5.308  18.449  0.00  0.00    +0.000 A 
ATOM      6  C   UNL     1       2.420   6.082  19.328  0.00  0.00    +0.000 A 
ATOM      7 CL   UNL     1       2.487   7.817  19.238  0.00  0.00    +0.000 Cl
ATOM      8  C   UNL     1       1.516   5.525  20.265  0.00  0.00    +0.000 A 
ATOM      9  C   UNL     1       1.352   4.140  20.440  0.00  0.00    +0.000 A 
ATOM     10  C   UNL     1       2.169   3.308  19.639  0.00  0.00    +0.000 A 
ATOM     11  N   UNL     1       2.199   1.968  19.691  0.00  0.00    +0.000 NA
ATOM     12  S   UNL     1       3.340   1.482  18.588  0.00  0.00    +0.000 S 
ATOM     13  N   UNL     1       3.863   2.946  18.015  0.00  0.00    +0.000 NA
ATOM     14  C   UNL     1       3.125   3.893  18.622  0.00  0.00    +0.000 A 
ENDBRANCH   3   5
BRANCH   1  15
ATOM     15  C   UNL     1       6.133   6.702  16.504  0.00  0.00    +0.000 C 
BRANCH  15  16
ATOM     16  O   UNL     1       7.189   5.877  16.009  0.00  0.00    +0.000 OA
BRANCH  16  20
ATOM     17  C   UNL     1       6.068   3.615  12.691  0.00  0.00    +0.000 A 
ATOM     18  C   UNL     1       5.371   3.559  13.897  0.00  0.00    +0.000 A 
ATOM     19  C   UNL     1       5.774   4.336  14.986  0.00  0.00    +0.000 A 
ATOM     20  C   UNL     1       6.908   5.142  14.891  0.00  0.00    +0.000 A 
ATOM     21  C   UNL     1       7.616   5.190  13.691  0.00  0.00    +0.000 A 
ATOM     22  C   UNL     1       7.200   4.426  12.592  0.00  0.00    +0.000 A 
BRANCH  17  24
ATOM     23  C   UNL     1       4.238   3.080  11.294  0.00  0.00    +0.000 C 
ATOM     24  O   UNL     1       5.578   2.818  11.695  0.00  0.00    +0.000 OA
ENDBRANCH  17  24
ENDBRANCH  16  20
ENDBRANCH  15  16
ENDBRANCH   1  15
TORSDOF 5
ENDMDL
MODEL 7
REMARK VINA RESULT:      -6.6      0.734      1.235
REMARK  Name = 
REMARK  6 active torsions:
REMARK  status: ('A' for Active; 'I' for Inactive)
REMARK    1  A    between atoms: C_1  and  O_2
REMARK    2  A    between atoms: O_2  and  C_3
REMARK    3  A    between atoms: C_6  and  O_7
REMARK    4  A    between atoms: O_7  and  C_8
REMARK    5  A    between atoms: C_8  and  C_9
REMARK    6  A    between atoms: N_11  and  C_12
REMARK                            x       y       z     vdW  Elec       q    Type
REMARK                         _______ _______ _______ _____ _____    ______ ____
ROOT
ATOM      1  C   UNL     1       2.599   5.110  19.112  0.00  0.00    +0.000 C 
ATOM      2  O   UNL     1       1.705   4.966  18.283  0.00  0.00    +0.000 OA
ATOM      3  N   UNL     1       2.977   6.312  19.687  0.00  0.00    +0.000 N 
ATOM      4  H   UNL     1       3.964   6.351  19.931  0.00  0.00    +0.000 HD
ENDROOT
BRANCH   3   5
ATOM      5  C   UNL     1       2.343   7.533  19.367  0.00  0.00    +0.000 A 
ATOM      6  C   UNL     1       2.640   8.194  18.151  0.00  0.00    +0.000 A 
ATOM      7 CL   UNL     1       3.789   7.489  17.054  0.00  0.00    +0.000 Cl
ATOM      8  C   UNL     1       2.011   9.393  17.736  0.00  0.00    +0.000 A 
ATOM      9  C   UNL     1       1.057  10.067  18.518  0.00  0.00    +0.000 A 
ATOM     10  C   UNL     1       0.766   9.495  19.779  0.00  0.00    +0.000 A 
ATOM     11  N   UNL     1      -0.075  10.011  20.688  0.00  0.00    +0.000 NA
ATOM     12  S   UNL     1      -0.033   8.988  21.996  0.00  0.00    +0.000 S 
ATOM     13  N   UNL     1       1.068   7.865  21.477  0.00  0.00    +0.000 NA
ATOM     14  C   UNL     1       1.418   8.205  20.223  0.00  0.00    +0.000 A 
ENDBRANCH   3   5
BRANCH   1  15
ATOM     15  C   UNL     1       3.446   3.931  19.587  0.00  0.00    +0.000 C 
BRANCH  15  16
ATOM     16  O   UNL     1       4.819   4.318  19.642  0.00  0.00    +0.000 OA
BRANCH  16  20
ATOM     17  C   UNL     1       6.500   4.739  15.849  0.00  0.00    +0.000 A 
ATOM     18  C   UNL     1       5.397   3.919  16.086  0.00  0.00    +0.000 A 
ATOM     19  C   UNL     1       4.860   3.807  17.370  0.00  0.00    +0.000 A 
ATOM     20  C   UNL     1       5.449   4.481  18.440  0.00  0.00    +0.000 A 
ATOM     21  C   UNL     1       6.560   5.291  18.209  0.00  0.00    +0.000 A 
ATOM     22  C   UNL     1       7.088   5.419  16.917  0.00  0.00    +0.000 A 
BRANCH  17  24
ATOM     23  C   UNL     1       6.273   3.895  13.654  0.00  0.00    +0.000 C 
ATOM     24  O   UNL     1       6.934   4.776  14.554  0.00  0.00    +0.000 OA
ENDBRANCH  17  24
ENDBRANCH  16  20
ENDBRANCH  15  16
ENDBRANCH   1  15
TORSDOF 5
ENDMDL
MODEL 8
REMARK VINA RESULT:      -6.6      5.682      7.454
REMARK  Name = 
REMARK  6 active torsions:
REMARK  status: ('A' for Active; 'I' for Inactive)
REMARK    1  A    between atoms: C_1  and  O_2
REMARK    2  A    between atoms: O_2  and  C_3
REMARK    3  A    between atoms: C_6  and  O_7
REMARK    4  A    between atoms: O_7  and  C_8
REMARK    5  A    between atoms: C_8  and  C_9
REMARK    6  A    between atoms: N_11  and  C_12
REMARK                            x       y       z     vdW  Elec       q    Type
REMARK                         _______ _______ _______ _____ _____    ______ ____
ROOT
ATOM      1  C   UNL     1       7.471   7.393  17.831  0.00  0.00    +0.000 C 
ATOM      2  O   UNL     1       7.825   6.557  18.657  0.00  0.00    +0.000 OA
ATOM      3  N   UNL     1       6.439   7.238  16.921  0.00  0.00    +0.000 N 
ATOM      4  H   UNL     1       6.586   7.747  16.052  0.00  0.00    +0.000 HD
ENDROOT
BRANCH   3   5
ATOM      5  C   UNL     1       5.662   6.061  16.855  0.00  0.00    +0.000 A 
ATOM      6  C   UNL     1       6.034   5.009  15.986  0.00  0.00    +0.000 A 
ATOM      7 CL   UNL     1       7.457   5.175  15.001  0.00  0.00    +0.000 Cl
ATOM      8  C   UNL     1       5.337   3.779  15.900  0.00  0.00    +0.000 A 
ATOM      9  C   UNL     1       4.177   3.502  16.643  0.00  0.00    +0.000 A 
ATOM     10  C   UNL     1       3.711   4.542  17.483  0.00  0.00    +0.000 A 
ATOM     11  N   UNL     1       2.599   4.494  18.232  0.00  0.00    +0.000 NA
ATOM     12  S   UNL     1       2.482   5.967  18.990  0.00  0.00    +0.000 S 
ATOM     13  N   UNL     1       3.818   6.735  18.384  0.00  0.00    +0.000 NA
ATOM     14  C   UNL     1       4.458   5.852  17.596  0.00  0.00    +0.000 A 
ENDBRANCH   3   5
BRANCH   1  15
ATOM     15  C   UNL     1       8.188   8.736  17.695  0.00  0.00    +0.000 C 
BRANCH  15  16
ATOM     16  O   UNL     1       8.745   9.112  18.955  0.00  0.00    +0.000 OA
BRANCH  16  20
ATOM     17  C   UNL     1      10.685  12.780  19.370  0.00  0.00    +0.000 A 
ATOM     18  C   UNL     1      10.322  12.003  20.470  0.00  0.00    +0.000 A 
ATOM     19  C   UNL     1       9.677  10.777  20.290  0.00  0.00    +0.000 A 
ATOM     20  C   UNL     1       9.348  10.338  19.008  0.00  0.00    +0.000 A 
ATOM     21  C   UNL     1       9.697  11.118  17.907  0.00  0.00    +0.000 A 
ATOM     22  C   UNL     1      10.362  12.339  18.086  0.00  0.00    +0.000 A 
BRANCH  17  24
ATOM     23  C   UNL     1      10.731  14.726  20.708  0.00  0.00    +0.000 C 
ATOM     24  O   UNL     1      11.317  13.954  19.667  0.00  0.00    +0.000 OA
ENDBRANCH  17  24
ENDBRANCH  16  20
ENDBRANCH  15  16
ENDBRANCH   1  15
TORSDOF 5
ENDMDL
MODEL 9
REMARK VINA RESULT:      -6.6      5.671      7.379
REMARK  Name = 
REMARK  6 active torsions:
REMARK  status: ('A' for Active; 'I' for Inactive)
REMARK    1  A    between atoms: C_1  and  O_2
REMARK    2  A    between atoms: O_2  and  C_3
REMARK    3  A    between atoms: C_6  and  O_7
REMARK    4  A    between atoms: O_7  and  C_8
REMARK    5  A    between atoms: C_8  and  C_9
REMARK    6  A    between atoms: N_11  and  C_12
REMARK                            x       y       z     vdW  Elec       q    Type
REMARK                         _______ _______ _______ _____ _____    ______ ____
ROOT
ATOM      1  C   UNL     1       7.477   7.424  17.833  0.00  0.00    +0.000 C 
ATOM      2  O   UNL     1       7.881   6.569  18.616  0.00  0.00    +0.000 OA
ATOM      3  N   UNL     1       6.386   7.292  16.991  0.00  0.00    +0.000 N 
ATOM      4  H   UNL     1       6.478   7.818  16.124  0.00  0.00    +0.000 HD
ENDROOT
BRANCH   3   5
ATOM      5  C   UNL     1       5.599   6.120  16.953  0.00  0.00    +0.000 A 
ATOM      6  C   UNL     1       5.951   5.052  16.094  0.00  0.00    +0.000 A 
ATOM      7 CL   UNL     1       7.361   5.194  15.086  0.00  0.00    +0.000 Cl
ATOM      8  C   UNL     1       5.244   3.827  16.035  0.00  0.00    +0.000 A 
ATOM      9  C   UNL     1       4.094   3.570  16.800  0.00  0.00    +0.000 A 
ATOM     10  C   UNL     1       3.647   4.624  17.630  0.00  0.00    +0.000 A 
ATOM     11  N   UNL     1       2.545   4.595  18.396  0.00  0.00    +0.000 NA
ATOM     12  S   UNL     1       2.450   6.080  19.135  0.00  0.00    +0.000 S 
ATOM     13  N   UNL     1       3.783   6.830  18.498  0.00  0.00    +0.000 NA
ATOM     14  C   UNL     1       4.405   5.931  17.714  0.00  0.00    +0.000 A 
ENDBRANCH   3   5
BRANCH   1  15
ATOM     15  C   UNL     1       8.191   8.766  17.676  0.00  0.00    +0.000 C 
BRANCH  15  16
ATOM     16  O   UNL     1       8.687   9.196  18.945  0.00  0.00    +0.000 OA
BRANCH  16  20
ATOM     17  C   UNL     1      10.315  13.034  18.863  0.00  0.00    +0.000 A 
ATOM     18  C   UNL     1       9.488  12.556  17.847  0.00  0.00    +0.000 A 
ATOM     19  C   UNL     1       8.958  11.266  17.913  0.00  0.00    +0.000 A 
ATOM     20  C   UNL     1       9.288  10.423  18.974  0.00  0.00    +0.000 A 
ATOM     21  C   UNL     1      10.126  10.893  19.984  0.00  0.00    +0.000 A 
ATOM     22  C   UNL     1      10.643  12.194  19.929  0.00  0.00    +0.000 A 
BRANCH  17  24
ATOM     23  C   UNL     1      12.049  14.441  18.092  0.00  0.00    +0.000 C 
ATOM     24  O   UNL     1      10.768  14.312  18.697  0.00  0.00    +0.000 OA
ENDBRANCH  17  24
ENDBRANCH  16  20
ENDBRANCH  15  16
ENDBRANCH   1  15
TORSDOF 5
ENDMDL
