MODEL 1
REMARK VINA RESULT:      -8.5      0.000      0.000
REMARK  Name = 
REMARK  5 active torsions:
REMARK  status: ('A' for Active; 'I' for Inactive)
REMARK    1  A    between atoms: C_1  and  C_2
REMARK    2  A    between atoms: C_7  and  C_8
REMARK    3  A    between atoms: C_8  and  O_9
REMARK    4  A    between atoms: C_8  and  C_10
REMARK    5  A    between atoms: C_13  and  C_14
REMARK                            x       y       z     vdW  Elec       q    Type
REMARK                         _______ _______ _______ _____ _____    ______ ____
ROOT
ATOM      1  C   UNL     1       6.373   5.068  17.491  0.00  0.00    +0.000 C 
ENDROOT
BRANCH   1   8
ATOM      2  C   UNL     1       4.192   7.139  17.206  0.00  0.00    +0.000 C 
ATOM      3  C   UNL     1       3.955   5.818  17.877  0.00  0.00    +0.000 A 
ATOM      4  C   UNL     1       2.689   5.521  18.386  0.00  0.00    +0.000 A 
ATOM      5  C   UNL     1       2.447   4.312  19.046  0.00  0.00    +0.000 A 
ATOM      6  C   UNL     1       3.502   3.416  19.180  0.00  0.00    +0.000 A 
ATOM      7  N   UNL     1       4.744   3.676  18.694  0.00  0.00    +0.000 NA
ATOM      8  C   UNL     1       4.962   4.862  18.046  0.00  0.00    +0.000 A 
ATOM      9  C   UNL     1       3.324   2.098  19.893  0.00  0.00    +0.000 C 
ATOM     10  C   UNL     1       3.025   2.258  21.385  0.00  0.00    +0.000 C 
ATOM     11  C   UNL     1       1.582   2.651  21.712  0.00  0.00    +0.000 C 
ATOM     12  C   UNL     1       1.127   3.999  21.155  0.00  0.00    +0.000 C 
ATOM     13  C   UNL     1       1.085   4.038  19.628  0.00  0.00    +0.000 C 
ENDBRANCH   1   8
BRANCH   1  14
ATOM     14  C   UNL     1       6.561   4.695  16.032  0.00  0.00    +0.000 A 
ATOM     15  C   UNL     1       5.780   3.676  15.466  0.00  0.00    +0.000 A 
ATOM     16  C   UNL     1       5.869   3.381  14.099  0.00  0.00    +0.000 A 
ATOM     17  C   UNL     1       6.735   4.102  13.270  0.00  0.00    +0.000 A 
ATOM     18  C   UNL     1       7.526   5.114  13.833  0.00  0.00    +0.000 A 
ATOM     19  C   UNL     1       7.435   5.410  15.196  0.00  0.00    +0.000 A 
BRANCH  17  20
ATOM     20  C   UNL     1       6.810   3.834  11.788  0.00  0.00    +0.000 C 
ATOM     21  F   UNL     1       7.534   2.726  11.467  0.00  0.00    +0.000 F 
ATOM     22  F   UNL     1       5.581   3.649  11.227  0.00  0.00    +0.000 F 
ATOM     23  F   UNL     1       7.381   4.862  11.100  0.00  0.00    +0.000 F 
ENDBRANCH  17  20
ENDBRANCH   1  14
BRANCH   1  24
ATOM     24  O   UNL     1       7.316   4.271  18.223  0.00  0.00    +0.000 OA
ATOM     25  H   UNL     1       7.757   3.731  17.530  0.00  0.00    +0.000 HD
ENDBRANCH   1  24
TORSDOF 4
ENDMDL
MODEL 2
REMARK VINA RESULT:      -8.2      0.287      1.252
REMARK  Name = 
REMARK  5 active torsions:
REMARK  status: ('A' for Active; 'I' for Inactive)
REMARK    1  A    between atoms: C_1  and  C_2
REMARK    2  A    between atoms: C_7  and  C_8
REMARK    3  A    between atoms: C_8  and  O_9
REMARK    4  A    between atoms: C_8  and  C_10
REMARK    5  A    between atoms: C_13  and  C_14
REMARK                            x       y       z     vdW  Elec       q    Type
REMARK                         _______ _______ _______ _____ _____    ______ ____
ROOT
ATOM      1  C   UNL     1       6.196   5.176  17.426  0.00  0.00    +0.000 C 
ENDROOT
BRANCH   1   8
ATOM      2  C   UNL     1       4.021   7.272  17.390  0.00  0.00    +0.000 C 
ATOM      3  C   UNL     1       3.813   5.916  17.997  0.00  0.00    +0.000 A 
ATOM      4  C   UNL     1       2.576   5.598  18.562  0.00  0.00    +0.000 A 
ATOM      5  C   UNL     1       2.362   4.355  19.166  0.00  0.00    +0.000 A 
ATOM      6  C   UNL     1       3.416   3.446  19.186  0.00  0.00    +0.000 A 
ATOM      7  N   UNL     1       4.629   3.727  18.642  0.00  0.00    +0.000 NA
ATOM      8  C   UNL     1       4.819   4.947  18.051  0.00  0.00    +0.000 A 
ATOM      9  C   UNL     1       3.267   2.090  19.832  0.00  0.00    +0.000 C 
ATOM     10  C   UNL     1       3.058   2.166  21.345  0.00  0.00    +0.000 C 
ATOM     11  C   UNL     1       1.641   2.547  21.779  0.00  0.00    +0.000 C 
ATOM     12  C   UNL     1       1.166   3.928  21.327  0.00  0.00    +0.000 C 
ATOM     13  C   UNL     1       1.034   4.055  19.810  0.00  0.00    +0.000 C 
ENDBRANCH   1   8
BRANCH   1  14
ATOM     14  C   UNL     1       6.294   4.891  15.939  0.00  0.00    +0.000 A 
ATOM     15  C   UNL     1       7.472   5.204  15.244  0.00  0.00    +0.000 A 
ATOM     16  C   UNL     1       7.619   4.863  13.893  0.00  0.00    +0.000 A 
ATOM     17  C   UNL     1       6.594   4.198  13.211  0.00  0.00    +0.000 A 
ATOM     18  C   UNL     1       5.410   3.893  13.898  0.00  0.00    +0.000 A 
ATOM     19  C   UNL     1       5.265   4.231  15.246  0.00  0.00    +0.000 A 
BRANCH  17  20
ATOM     20  C   UNL     1       6.752   3.777  11.772  0.00  0.00    +0.000 C 
ATOM     21  F   UNL     1       7.336   4.724  10.985  0.00  0.00    +0.000 F 
ATOM     22  F   UNL     1       7.516   2.658  11.634  0.00  0.00    +0.000 F 
ATOM     23  F   UNL     1       5.559   3.489  11.179  0.00  0.00    +0.000 F 
ENDBRANCH  17  20
ENDBRANCH   1  14
BRANCH   1  24
ATOM     24  O   UNL     1       7.173   4.330  18.051  0.00  0.00    +0.000 OA
ATOM     25  H   UNL     1       6.988   4.425  19.011  0.00  0.00    +0.000 HD
ENDBRANCH   1  24
TORSDOF 4
ENDMDL
MODEL 3
REMARK VINA RESULT:      -7.8      3.947      4.953
REMARK  Name = 
REMARK  5 active torsions:
REMARK  status: ('A' for Active; 'I' for Inactive)
REMARK    1  A    between atoms: C_1  and  C_2
REMARK    2  A    between atoms: C_7  and  C_8
REMARK    3  A    between atoms: C_8  and  O_9
REMARK    4  A    between atoms: C_8  and  C_10
REMARK    5  A    between atoms: C_13  and  C_14
REMARK                            x       y       z     vdW  Elec       q    Type
REMARK                         _______ _______ _______ _____ _____    ______ ____
ROOT
ATOM      1  C   UNL     1       7.173   4.444  17.817  0.00  0.00    +0.000 C 
ENDROOT
BRANCH   1   8
ATOM      2  C   UNL     1       5.255   4.750  15.503  0.00  0.00    +0.000 C 
ATOM      3  C   UNL     1       4.829   4.177  16.822  0.00  0.00    +0.000 A 
ATOM      4  C   UNL     1       3.507   3.763  16.999  0.00  0.00    +0.000 A 
ATOM      5  C   UNL     1       3.071   3.257  18.227  0.00  0.00    +0.000 A 
ATOM      6  C   UNL     1       3.992   3.178  19.267  0.00  0.00    +0.000 A 
ATOM      7  N   UNL     1       5.285   3.571  19.125  0.00  0.00    +0.000 NA
ATOM      8  C   UNL     1       5.695   4.060  17.914  0.00  0.00    +0.000 A 
ATOM      9  C   UNL     1       3.594   2.658  20.626  0.00  0.00    +0.000 C 
ATOM     10  C   UNL     1       2.584   3.557  21.341  0.00  0.00    +0.000 C 
ATOM     11  C   UNL     1       1.141   3.419  20.847  0.00  0.00    +0.000 C 
ATOM     12  C   UNL     1       0.912   3.792  19.383  0.00  0.00    +0.000 C 
ATOM     13  C   UNL     1       1.628   2.863  18.404  0.00  0.00    +0.000 C 
ENDBRANCH   1   8
BRANCH   1  14
ATOM     14  C   UNL     1       7.474   5.923  17.976  0.00  0.00    +0.000 A 
ATOM     15  C   UNL     1       8.224   6.368  19.075  0.00  0.00    +0.000 A 
ATOM     16  C   UNL     1       8.595   7.715  19.191  0.00  0.00    +0.000 A 
ATOM     17  C   UNL     1       8.229   8.641  18.208  0.00  0.00    +0.000 A 
ATOM     18  C   UNL     1       7.469   8.203  17.114  0.00  0.00    +0.000 A 
ATOM     19  C   UNL     1       7.102   6.860  16.997  0.00  0.00    +0.000 A 
BRANCH  17  20
ATOM     20  C   UNL     1       8.660  10.084  18.289  0.00  0.00    +0.000 C 
ATOM     21  F   UNL     1       9.882  10.322  17.737  0.00  0.00    +0.000 F 
ATOM     22  F   UNL     1       7.795  10.925  17.655  0.00  0.00    +0.000 F 
ATOM     23  F   UNL     1       8.740  10.533  19.574  0.00  0.00    +0.000 F 
ENDBRANCH  17  20
ENDBRANCH   1  14
BRANCH   1  24
ATOM     24  O   UNL     1       7.701   4.073  16.536  0.00  0.00    +0.000 OA
ATOM     25  H   UNL     1       7.194   3.267  16.295  0.00  0.00    +0.000 HD
ENDBRANCH   1  24
TORSDOF 4
ENDMDL
MODEL 4
REMARK VINA RESULT:      -7.6      6.977      9.265
REMARK  Name = 
REMARK  5 active torsions:
REMARK  status: ('A' for Active; 'I' for Inactive)
REMARK    1  A    between atoms: C_1  and  C_2
REMARK    2  A    between atoms: C_7  and  C_8
REMARK    3  A    between atoms: C_8  and  O_9
REMARK    4  A    between atoms: C_8  and  C_10
REMARK    5  A    between atoms: C_13  and  C_14
REMARK                            x       y       z     vdW  Elec       q    Type
REMARK                         _______ _______ _______ _____ _____    ______ ____
ROOT
ATOM      1  C   UNL     1       1.283  10.427  18.896  0.00  0.00    +0.000 C 
ENDROOT
BRANCH   1   8
ATOM      2  C   UNL     1       0.696   8.669  21.282  0.00  0.00    +0.000 C 
ATOM      3  C   UNL     1       1.529   8.196  20.128  0.00  0.00    +0.000 A 
ATOM      4  C   UNL     1       2.053   6.901  20.141  0.00  0.00    +0.000 A 
ATOM      5  C   UNL     1       2.862   6.443  19.097  0.00  0.00    +0.000 A 
ATOM      6  C   UNL     1       3.128   7.314  18.045  0.00  0.00    +0.000 A 
ATOM      7  N   UNL     1       2.632   8.578  18.003  0.00  0.00    +0.000 NA
ATOM      8  C   UNL     1       1.838   9.008  19.032  0.00  0.00    +0.000 A 
ATOM      9  C   UNL     1       4.004   6.899  16.888  0.00  0.00    +0.000 C 
ATOM     10  C   UNL     1       5.458   6.649  17.296  0.00  0.00    +0.000 C 
ATOM     11  C   UNL     1       5.708   5.308  17.989  0.00  0.00    +0.000 C 
ATOM     12  C   UNL     1       4.972   5.108  19.314  0.00  0.00    +0.000 C 
ATOM     13  C   UNL     1       3.452   5.060  19.160  0.00  0.00    +0.000 C 
ENDBRANCH   1   8
BRANCH   1  14
ATOM     14  C   UNL     1      -0.204  10.522  18.608  0.00  0.00    +0.000 A 
ATOM     15  C   UNL     1      -0.991  11.452  19.303  0.00  0.00    +0.000 A 
ATOM     16  C   UNL     1      -2.345  11.623  18.986  0.00  0.00    +0.000 A 
ATOM     17  C   UNL     1      -2.938  10.872  17.965  0.00  0.00    +0.000 A 
ATOM     18  C   UNL     1      -2.158   9.933  17.275  0.00  0.00    +0.000 A 
ATOM     19  C   UNL     1      -0.806   9.765  17.590  0.00  0.00    +0.000 A 
BRANCH  17  20
ATOM     20  C   UNL     1      -4.380  11.076  17.575  0.00  0.00    +0.000 C 
ATOM     21  F   UNL     1      -4.630  10.840  16.257  0.00  0.00    +0.000 F 
ATOM     22  F   UNL     1      -5.229  10.263  18.265  0.00  0.00    +0.000 F 
ATOM     23  F   UNL     1      -4.809  12.348  17.811  0.00  0.00    +0.000 F 
ENDBRANCH  17  20
ENDBRANCH   1  14
BRANCH   1  24
ATOM     24  O   UNL     1       1.935  11.115  17.819  0.00  0.00    +0.000 OA
ATOM     25  H   UNL     1       2.658  10.506  17.552  0.00  0.00    +0.000 HD
ENDBRANCH   1  24
TORSDOF 4
ENDMDL
MODEL 5
REMARK VINA RESULT:      -7.4      7.243      9.498
REMARK  Name = 
REMARK  5 active torsions:
REMARK  status: ('A' for Active; 'I' for Inactive)
REMARK    1  A    between atoms: C_1  and  C_2
REMARK    2  A    between atoms: C_7  and  C_8
REMARK    3  A    between atoms: C_8  and  O_9
REMARK    4  A    between atoms: C_8  and  C_10
REMARK    5  A    between atoms: C_13  and  C_14
REMARK                            x       y       z     vdW  Elec       q    Type
REMARK                         _______ _______ _______ _____ _____    ______ ____
ROOT
ATOM      1  C   UNL     1       1.040  10.788  19.177  0.00  0.00    +0.000 C 
ENDROOT
BRANCH   1   8
ATOM      2  C   UNL     1       0.539   9.119  21.645  0.00  0.00    +0.000 C 
ATOM      3  C   UNL     1       1.268   8.579  20.451  0.00  0.00    +0.000 A 
ATOM      4  C   UNL     1       1.732   7.261  20.465  0.00  0.00    +0.000 A 
ATOM      5  C   UNL     1       2.445   6.740  19.381  0.00  0.00    +0.000 A 
ATOM      6  C   UNL     1       2.679   7.571  18.290  0.00  0.00    +0.000 A 
ATOM      7  N   UNL     1       2.239   8.855  18.246  0.00  0.00    +0.000 NA
ATOM      8  C   UNL     1       1.538   9.348  19.315  0.00  0.00    +0.000 A 
ATOM      9  C   UNL     1       3.453   7.086  17.089  0.00  0.00    +0.000 C 
ATOM     10  C   UNL     1       4.918   6.777  17.405  0.00  0.00    +0.000 C 
ATOM     11  C   UNL     1       5.154   5.443  18.117  0.00  0.00    +0.000 C 
ATOM     12  C   UNL     1       4.502   5.311  19.493  0.00  0.00    +0.000 C 
ATOM     13  C   UNL     1       2.975   5.332  19.443  0.00  0.00    +0.000 C 
ENDBRANCH   1   8
BRANCH   1  14
ATOM     14  C   UNL     1      -0.408  10.941  18.749  0.00  0.00    +0.000 A 
ATOM     15  C   UNL     1      -0.953  10.056  17.807  0.00  0.00    +0.000 A 
ATOM     16  C   UNL     1      -2.312  10.118  17.469  0.00  0.00    +0.000 A 
ATOM     17  C   UNL     1      -3.153  11.061  18.070  0.00  0.00    +0.000 A 
ATOM     18  C   UNL     1      -2.609  11.956  19.004  0.00  0.00    +0.000 A 
ATOM     19  C   UNL     1      -1.255  11.891  19.343  0.00  0.00    +0.000 A 
BRANCH  17  20
ATOM     20  C   UNL     1      -4.627  11.112  17.758  0.00  0.00    +0.000 C 
ATOM     21  F   UNL     1      -5.350  10.131  18.366  0.00  0.00    +0.000 F 
ATOM     22  F   UNL     1      -5.202  12.287  18.138  0.00  0.00    +0.000 F 
ATOM     23  F   UNL     1      -4.881  10.988  16.424  0.00  0.00    +0.000 F 
ENDBRANCH  17  20
ENDBRANCH   1  14
BRANCH   1  24
ATOM     24  O   UNL     1       1.815  11.490  18.193  0.00  0.00    +0.000 OA
ATOM     25  H   UNL     1       2.674  11.654  18.642  0.00  0.00    +0.000 HD
ENDBRANCH   1  24
TORSDOF 4
ENDMDL
MODEL 6
REMARK VINA RESULT:      -7.3      6.926      9.069
REMARK  Name = 
REMARK  5 active torsions:
REMARK  status: ('A' for Active; 'I' for Inactive)
REMARK    1  A    between atoms: C_1  and  C_2
REMARK    2  A    between atoms: C_7  and  C_8
REMARK    3  A    between atoms: C_8  and  O_9
REMARK    4  A    between atoms: C_8  and  C_10
REMARK    5  A    between atoms: C_13  and  C_14
REMARK                            x       y       z     vdW  Elec       q    Type
REMARK                         _______ _______ _______ _____ _____    ______ ____
ROOT
ATOM      1  C   UNL     1       1.431   9.895  18.684  0.00  0.00    +0.000 C 
ENDROOT
BRANCH   1   8
ATOM      2  C   UNL     1       0.985   8.912  21.505  0.00  0.00    +0.000 C 
ATOM      3  C   UNL     1       1.504   8.016  20.421  0.00  0.00    +0.000 A 
ATOM      4  C   UNL     1       1.791   6.679  20.710  0.00  0.00    +0.000 A 
ATOM      5  C   UNL     1       2.308   5.828  19.729  0.00  0.00    +0.000 A 
ATOM      6  C   UNL     1       2.529   6.351  18.458  0.00  0.00    +0.000 A 
ATOM      7  N   UNL     1       2.259   7.645  18.147  0.00  0.00    +0.000 NA
ATOM      8  C   UNL     1       1.748   8.463  19.119  0.00  0.00    +0.000 A 
ATOM      9  C   UNL     1       3.100   5.499  17.351  0.00  0.00    +0.000 C 
ATOM     10  C   UNL     1       4.537   5.049  17.619  0.00  0.00    +0.000 C 
ATOM     11  C   UNL     1       4.672   3.886  18.606  0.00  0.00    +0.000 C 
ATOM     12  C   UNL     1       4.161   4.164  20.019  0.00  0.00    +0.000 C 
ATOM     13  C   UNL     1       2.653   4.405  20.080  0.00  0.00    +0.000 C 
ENDBRANCH   1   8
BRANCH   1  14
ATOM     14  C   UNL     1      -0.044  10.220  18.533  0.00  0.00    +0.000 A 
ATOM     15  C   UNL     1      -0.617  11.236  19.314  0.00  0.00    +0.000 A 
ATOM     16  C   UNL     1      -1.952  11.617  19.124  0.00  0.00    +0.000 A 
ATOM     17  C   UNL     1      -2.738  10.996  18.147  0.00  0.00    +0.000 A 
ATOM     18  C   UNL     1      -2.174   9.972  17.373  0.00  0.00    +0.000 A 
ATOM     19  C   UNL     1      -0.841   9.594  17.561  0.00  0.00    +0.000 A 
BRANCH  17  20
ATOM     20  C   UNL     1      -4.161  11.426  17.894  0.00  0.00    +0.000 C 
ATOM     21  F   UNL     1      -4.609  12.377  18.760  0.00  0.00    +0.000 F 
ATOM     22  F   UNL     1      -4.336  11.947  16.647  0.00  0.00    +0.000 F 
ATOM     23  F   UNL     1      -5.043  10.391  17.991  0.00  0.00    +0.000 F 
ENDBRANCH  17  20
ENDBRANCH   1  14
BRANCH   1  24
ATOM     24  O   UNL     1       2.024  10.170  17.406  0.00  0.00    +0.000 OA
ATOM     25  H   UNL     1       1.597  11.007  17.122  0.00  0.00    +0.000 HD
ENDBRANCH   1  24
TORSDOF 4
ENDMDL
MODEL 7
REMARK VINA RESULT:      -7.3      6.537      8.562
REMARK  Name = 
REMARK  5 active torsions:
REMARK  status: ('A' for Active; 'I' for Inactive)
REMARK    1  A    between atoms: C_1  and  C_2
REMARK    2  A    between atoms: C_7  and  C_8
REMARK    3  A    between atoms: C_8  and  O_9
REMARK    4  A    between atoms: C_8  and  C_10
REMARK    5  A    between atoms: C_13  and  C_14
REMARK                            x       y       z     vdW  Elec       q    Type
REMARK                         _______ _______ _______ _____ _____    ______ ____
ROOT
ATOM      1  C   UNL     1       1.884   9.242  18.656  0.00  0.00    +0.000 C 
ENDROOT
BRANCH   1   8
ATOM      2  C   UNL     1       1.311   8.489  21.525  0.00  0.00    +0.000 C 
ATOM      3  C   UNL     1       1.623   7.462  20.478  0.00  0.00    +0.000 A 
ATOM      4  C   UNL     1       1.648   6.109  20.825  0.00  0.00    +0.000 A 
ATOM      5  C   UNL     1       1.970   5.131  19.880  0.00  0.00    +0.000 A 
ATOM      6  C   UNL     1       2.264   5.545  18.584  0.00  0.00    +0.000 A 
ATOM      7  N   UNL     1       2.245   6.852  18.215  0.00  0.00    +0.000 NA
ATOM      8  C   UNL     1       1.923   7.796  19.154  0.00  0.00    +0.000 A 
ATOM      9  C   UNL     1       2.634   4.550  17.511  0.00  0.00    +0.000 C 
ATOM     10  C   UNL     1       3.961   3.839  17.784  0.00  0.00    +0.000 C 
ATOM     11  C   UNL     1       3.886   2.717  18.822  0.00  0.00    +0.000 C 
ATOM     12  C   UNL     1       3.467   3.150  20.226  0.00  0.00    +0.000 C 
ATOM     13  C   UNL     1       2.037   3.685  20.293  0.00  0.00    +0.000 C 
ENDBRANCH   1   8
BRANCH   1  14
ATOM     14  C   UNL     1       0.497   9.828  18.461  0.00  0.00    +0.000 A 
ATOM     15  C   UNL     1      -0.306   9.380  17.402  0.00  0.00    +0.000 A 
ATOM     16  C   UNL     1      -1.624   9.836  17.261  0.00  0.00    +0.000 A 
ATOM     17  C   UNL     1      -2.165  10.745  18.177  0.00  0.00    +0.000 A 
ATOM     18  C   UNL     1      -1.361  11.205  19.230  0.00  0.00    +0.000 A 
ATOM     19  C   UNL     1      -0.049  10.746  19.373  0.00  0.00    +0.000 A 
BRANCH  17  20
ATOM     20  C   UNL     1      -3.596  11.210  18.071  0.00  0.00    +0.000 C 
ATOM     21  F   UNL     1      -3.868  11.887  16.920  0.00  0.00    +0.000 F 
ATOM     22  F   UNL     1      -4.486  10.179  18.115  0.00  0.00    +0.000 F 
ATOM     23  F   UNL     1      -3.947  12.049  19.086  0.00  0.00    +0.000 F 
ENDBRANCH  17  20
ENDBRANCH   1  14
BRANCH   1  24
ATOM     24  O   UNL     1       2.536   9.348  17.382  0.00  0.00    +0.000 OA
ATOM     25  H   UNL     1       3.277   9.971  17.546  0.00  0.00    +0.000 HD
ENDBRANCH   1  24
TORSDOF 4
ENDMDL
MODEL 8
REMARK VINA RESULT:      -7.2      6.920      8.983
REMARK  Name = 
REMARK  5 active torsions:
REMARK  status: ('A' for Active; 'I' for Inactive)
REMARK    1  A    between atoms: C_1  and  C_2
REMARK    2  A    between atoms: C_7  and  C_8
REMARK    3  A    between atoms: C_8  and  O_9
REMARK    4  A    between atoms: C_8  and  C_10
REMARK    5  A    between atoms: C_13  and  C_14
REMARK                            x       y       z     vdW  Elec       q    Type
REMARK                         _______ _______ _______ _____ _____    ______ ____
ROOT
ATOM      1  C   UNL     1       1.524   9.874  18.653  0.00  0.00    +0.000 C 
ENDROOT
BRANCH   1   8
ATOM      2  C   UNL     1       0.952   9.099  21.516  0.00  0.00    +0.000 C 
ATOM      3  C   UNL     1       1.416   8.101  20.497  0.00  0.00    +0.000 A 
ATOM      4  C   UNL     1       1.588   6.766  20.869  0.00  0.00    +0.000 A 
ATOM      5  C   UNL     1       2.051   5.819  19.951  0.00  0.00    +0.000 A 
ATOM      6  C   UNL     1       2.335   6.246  18.657  0.00  0.00    +0.000 A 
ATOM      7  N   UNL     1       2.176   7.537  18.266  0.00  0.00    +0.000 NA
ATOM      8  C   UNL     1       1.716   8.449  19.177  0.00  0.00    +0.000 A 
ATOM      9  C   UNL     1       2.854   5.287  17.613  0.00  0.00    +0.000 C 
ATOM     10  C   UNL     1       4.245   4.741  17.939  0.00  0.00    +0.000 C 
ATOM     11  C   UNL     1       4.268   3.632  18.993  0.00  0.00    +0.000 C 
ATOM     12  C   UNL     1       3.758   4.033  20.377  0.00  0.00    +0.000 C 
ATOM     13  C   UNL     1       2.274   4.396  20.391  0.00  0.00    +0.000 C 
ENDBRANCH   1   8
BRANCH   1  14
ATOM     14  C   UNL     1       0.083  10.312  18.468  0.00  0.00    +0.000 A 
ATOM     15  C   UNL     1      -0.741   9.634  17.557  0.00  0.00    +0.000 A 
ATOM     16  C   UNL     1      -2.099   9.959  17.440  0.00  0.00    +0.000 A 
ATOM     17  C   UNL     1      -2.661  10.965  18.234  0.00  0.00    +0.000 A 
ATOM     18  C   UNL     1      -1.839  11.654  19.137  0.00  0.00    +0.000 A 
ATOM     19  C   UNL     1      -0.485  11.327  19.256  0.00  0.00    +0.000 A 
BRANCH  17  20
ATOM     20  C   UNL     1      -4.130  11.296  18.159  0.00  0.00    +0.000 C 
ATOM     21  F   UNL     1      -4.942  10.204  18.214  0.00  0.00    +0.000 F 
ATOM     22  F   UNL     1      -4.536  12.112  19.173  0.00  0.00    +0.000 F 
ATOM     23  F   UNL     1      -4.460  11.945  17.006  0.00  0.00    +0.000 F 
ENDBRANCH  17  20
ENDBRANCH   1  14
BRANCH   1  24
ATOM     24  O   UNL     1       2.146  10.019  17.368  0.00  0.00    +0.000 OA
ATOM     25  H   UNL     1       1.389  10.090  16.746  0.00  0.00    +0.000 HD
ENDBRANCH   1  24
TORSDOF 4
ENDMDL
MODEL 9
REMARK VINA RESULT:      -7.1      5.543      8.206
REMARK  Name = 
REMARK  5 active torsions:
REMARK  status: ('A' for Active; 'I' for Inactive)
REMARK    1  A    between atoms: C_1  and  C_2
REMARK    2  A    between atoms: C_7  and  C_8
REMARK    3  A    between atoms: C_8  and  O_9
REMARK    4  A    between atoms: C_8  and  C_10
REMARK    5  A    between atoms: C_13  and  C_14
REMARK                            x       y       z     vdW  Elec       q    Type
REMARK                         _______ _______ _______ _____ _____    ______ ____
ROOT
ATOM      1  C   UNL     1       1.910   5.812  19.997  0.00  0.00    +0.000 C 
ENDROOT
BRANCH   1   8
ATOM      2  C   UNL     1       1.333   3.274  18.465  0.00  0.00    +0.000 C 
ATOM      3  C   UNL     1       2.449   4.200  18.083  0.00  0.00    +0.000 A 
ATOM      4  C   UNL     1       3.253   3.893  16.983  0.00  0.00    +0.000 A 
ATOM      5  C   UNL     1       4.323   4.718  16.623  0.00  0.00    +0.000 A 
ATOM      6  C   UNL     1       4.563   5.852  17.393  0.00  0.00    +0.000 A 
ATOM      7  N   UNL     1       3.798   6.178  18.467  0.00  0.00    +0.000 NA
ATOM      8  C   UNL     1       2.751   5.361  18.801  0.00  0.00    +0.000 A 
ATOM      9  C   UNL     1       5.708   6.783  17.077  0.00  0.00    +0.000 C 
ATOM     10  C   UNL     1       7.080   6.135  17.270  0.00  0.00    +0.000 C 
ATOM     11  C   UNL     1       7.510   5.196  16.139  0.00  0.00    +0.000 C 
ATOM     12  C   UNL     1       6.614   3.977  15.924  0.00  0.00    +0.000 C 
ATOM     13  C   UNL     1       5.203   4.338  15.462  0.00  0.00    +0.000 C 
ENDBRANCH   1   8
BRANCH   1  14
ATOM     14  C   UNL     1       1.635   7.303  20.076  0.00  0.00    +0.000 A 
ATOM     15  C   UNL     1       1.725   8.090  18.918  0.00  0.00    +0.000 A 
ATOM     16  C   UNL     1       1.382   9.449  18.948  0.00  0.00    +0.000 A 
ATOM     17  C   UNL     1       0.937  10.045  20.133  0.00  0.00    +0.000 A 
ATOM     18  C   UNL     1       0.857   9.265  21.296  0.00  0.00    +0.000 A 
ATOM     19  C   UNL     1       1.196   7.909  21.264  0.00  0.00    +0.000 A 
BRANCH  17  20
ATOM     20  C   UNL     1       0.516  11.493  20.175  0.00  0.00    +0.000 C 
ATOM     21  F   UNL     1      -0.700  11.693  20.754  0.00  0.00    +0.000 F 
ATOM     22  F   UNL     1       1.391  12.272  20.870  0.00  0.00    +0.000 F 
ATOM     23  F   UNL     1       0.431  12.046  18.932  0.00  0.00    +0.000 F 
ENDBRANCH  17  20
ENDBRANCH   1  14
BRANCH   1  24
ATOM     24  O   UNL     1       2.570   5.471  21.226  0.00  0.00    +0.000 OA
ATOM     25  H   UNL     1       3.436   5.109  20.937  0.00  0.00    +0.000 HD
ENDBRANCH   1  24
TORSDOF 4
ENDMDL
