MODEL 1
REMARK VINA RESULT:      -8.4      0.000      0.000
REMARK  Name = 
REMARK  10 active torsions:
REMARK  status: ('A' for Active; 'I' for Inactive)
REMARK    1  A    between atoms: C_1  and  O_2
REMARK    2  A    between atoms: O_2  and  C_3
REMARK    3  A    between atoms: C_5  and  C_6
REMARK    4  A    between atoms: C_7  and  C_8
REMARK    5  A    between atoms: C_8  and  C_10
REMARK    6  A    between atoms: C_15  and  O_16
REMARK    7  A    between atoms: C_23  and  O_24
REMARK    8  A    between atoms: O_24  and  C_25
REMARK    9  A    between atoms: C_26  and  O_27
REMARK   10  A    between atoms: O_27  and  C_28
REMARK                            x       y       z     vdW  Elec       q    Type
REMARK                         _______ _______ _______ _____ _____    ______ ____
ROOT
ATOM      1  C   UNL     1       7.334   6.751  17.401  0.00  0.00    +0.000 C 
ATOM      2  O   UNL     1       7.548   6.551  16.206  0.00  0.00    +0.000 OA
ENDROOT
BRANCH   1   3
ATOM      3  C   UNL     1       6.215   6.041  18.113  0.00  0.00    +0.000 A 
ATOM      4  C   UNL     1       5.042   5.965  17.454  0.00  0.00    +0.000 A 
ATOM      5  C   UNL     1       3.887   5.313  18.053  0.00  0.00    +0.000 A 
ATOM      6  C   UNL     1       2.715   5.035  17.345  0.00  0.00    +0.000 A 
ATOM      7  C   UNL     1       1.634   4.426  17.993  0.00  0.00    +0.000 A 
ATOM      8  C   UNL     1       1.716   4.127  19.352  0.00  0.00    +0.000 A 
ATOM      9  C   UNL     1       2.870   4.409  20.070  0.00  0.00    +0.000 A 
ATOM     10  C   UNL     1       3.947   4.979  19.402  0.00  0.00    +0.000 A 
ATOM     11  O   UNL     1       5.138   5.146  20.125  0.00  0.00    +0.000 OA
ATOM     12  C   UNL     1       6.324   5.401  19.449  0.00  0.00    +0.000 A 
ATOM     13  O   UNL     1       7.395   5.117  19.976  0.00  0.00    +0.000 OA
BRANCH   8  14
ATOM     14  O   UNL     1       0.687   3.534  20.017  0.00  0.00    +0.000 OA
ATOM     15  H   UNL     1       0.163   3.008  19.390  0.00  0.00    +0.000 HD
ENDBRANCH   8  14
ENDBRANCH   1   3
BRANCH   1  17
ATOM     16  C   UNL     1       8.148   9.034  17.900  0.00  0.00    +0.000 C 
ATOM     17  C   UNL     1       8.186   7.713  18.159  0.00  0.00    +0.000 C 
BRANCH  16  20
ATOM     18  C   UNL     1      10.664  11.855  18.333  0.00  0.00    +0.000 A 
ATOM     19  C   UNL     1       9.956  10.780  17.771  0.00  0.00    +0.000 A 
ATOM     20  C   UNL     1       9.046  10.029  18.518  0.00  0.00    +0.000 A 
ATOM     21  C   UNL     1       8.916  10.336  19.871  0.00  0.00    +0.000 A 
ATOM     22  C   UNL     1       9.676  11.350  20.481  0.00  0.00    +0.000 A 
ATOM     23  C   UNL     1      10.573  12.131  19.713  0.00  0.00    +0.000 A 
BRANCH  18  25
ATOM     24  C   UNL     1      10.846  13.738  16.896  0.00  0.00    +0.000 C 
ATOM     25  O   UNL     1      11.481  12.626  17.537  0.00  0.00    +0.000 OA
ENDBRANCH  18  25
BRANCH  22  26
ATOM     26  O   UNL     1       9.389  11.449  21.822  0.00  0.00    +0.000 OA
ATOM     27  C   UNL     1       8.133  11.966  22.241  0.00  0.00    +0.000 C 
ENDBRANCH  22  26
BRANCH  23  28
ATOM     28  O   UNL     1      11.281  13.082  20.393  0.00  0.00    +0.000 OA
ATOM     29  C   UNL     1      10.749  14.383  20.592  0.00  0.00    +0.000 C 
ENDBRANCH  23  28
ENDBRANCH  16  20
ENDBRANCH   1  17
TORSDOF 7
ENDMDL
MODEL 2
REMARK VINA RESULT:      -8.4      0.718      2.439
REMARK  Name = 
REMARK  10 active torsions:
REMARK  status: ('A' for Active; 'I' for Inactive)
REMARK    1  A    between atoms: C_1  and  O_2
REMARK    2  A    between atoms: O_2  and  C_3
REMARK    3  A    between atoms: C_5  and  C_6
REMARK    4  A    between atoms: C_7  and  C_8
REMARK    5  A    between atoms: C_8  and  C_10
REMARK    6  A    between atoms: C_15  and  O_16
REMARK    7  A    between atoms: C_23  and  O_24
REMARK    8  A    between atoms: O_24  and  C_25
REMARK    9  A    between atoms: C_26  and  O_27
REMARK   10  A    between atoms: O_27  and  C_28
REMARK                            x       y       z     vdW  Elec       q    Type
REMARK                         _______ _______ _______ _____ _____    ______ ____
ROOT
ATOM      1  C   UNL     1       7.243   7.033  17.155  0.00  0.00    +0.000 C 
ATOM      2  O   UNL     1       7.820   6.514  16.201  0.00  0.00    +0.000 OA
ENDROOT
BRANCH   1   3
ATOM      3  C   UNL     1       6.224   6.263  17.951  0.00  0.00    +0.000 A 
ATOM      4  C   UNL     1       4.973   6.240  17.453  0.00  0.00    +0.000 A 
ATOM      5  C   UNL     1       3.903   5.538  18.146  0.00  0.00    +0.000 A 
ATOM      6  C   UNL     1       2.643   5.319  17.583  0.00  0.00    +0.000 A 
ATOM      7  C   UNL     1       1.654   4.657  18.319  0.00  0.00    +0.000 A 
ATOM      8  C   UNL     1       1.916   4.245  19.624  0.00  0.00    +0.000 A 
ATOM      9  C   UNL     1       3.159   4.467  20.200  0.00  0.00    +0.000 A 
ATOM     10  C   UNL     1       4.142   5.093  19.442  0.00  0.00    +0.000 A 
ATOM     11  O   UNL     1       5.420   5.201  20.008  0.00  0.00    +0.000 OA
ATOM     12  C   UNL     1       6.507   5.513  19.202  0.00  0.00    +0.000 A 
ATOM     13  O   UNL     1       7.637   5.188  19.552  0.00  0.00    +0.000 OA
BRANCH   8  14
ATOM     14  O   UNL     1       0.981   3.596  20.371  0.00  0.00    +0.000 OA
ATOM     15  H   UNL     1       0.808   2.724  19.978  0.00  0.00    +0.000 HD
ENDBRANCH   8  14
ENDBRANCH   1   3
BRANCH   1  17
ATOM     16  C   UNL     1       8.639   8.751  18.259  0.00  0.00    +0.000 C 
ATOM     17  C   UNL     1       7.549   8.444  17.532  0.00  0.00    +0.000 C 
BRANCH  16  20
ATOM     18  C   UNL     1       9.439  11.620  20.627  0.00  0.00    +0.000 A 
ATOM     19  C   UNL     1       8.964  10.391  20.141  0.00  0.00    +0.000 A 
ATOM     20  C   UNL     1       8.942  10.101  18.775  0.00  0.00    +0.000 A 
ATOM     21  C   UNL     1       9.341  11.107  17.896  0.00  0.00    +0.000 A 
ATOM     22  C   UNL     1       9.740  12.377  18.350  0.00  0.00    +0.000 A 
ATOM     23  C   UNL     1       9.793  12.656  19.737  0.00  0.00    +0.000 A 
BRANCH  18  25
ATOM     24  C   UNL     1       8.283  11.865  22.688  0.00  0.00    +0.000 C 
ATOM     25  O   UNL     1       9.530  11.829  21.985  0.00  0.00    +0.000 OA
ENDBRANCH  18  25
BRANCH  22  26
ATOM     26  O   UNL     1      10.065  13.201  17.299  0.00  0.00    +0.000 OA
ATOM     27  C   UNL     1      11.405  13.255  16.829  0.00  0.00    +0.000 C 
ENDBRANCH  22  26
BRANCH  23  28
ATOM     28  O   UNL     1      10.176  13.922  20.085  0.00  0.00    +0.000 OA
ATOM     29  C   UNL     1       9.213  14.947  20.277  0.00  0.00    +0.000 C 
ENDBRANCH  23  28
ENDBRANCH  16  20
ENDBRANCH   1  17
TORSDOF 7
ENDMDL
MODEL 3
REMARK VINA RESULT:      -8.1      5.824      9.502
REMARK  Name = 
REMARK  10 active torsions:
REMARK  status: ('A' for Active; 'I' for Inactive)
REMARK    1  A    between atoms: C_1  and  O_2
REMARK    2  A    between atoms: O_2  and  C_3
REMARK    3  A    between atoms: C_5  and  C_6
REMARK    4  A    between atoms: C_7  and  C_8
REMARK    5  A    between atoms: C_8  and  C_10
REMARK    6  A    between atoms: C_15  and  O_16
REMARK    7  A    between atoms: C_23  and  O_24
REMARK    8  A    between atoms: O_24  and  C_25
REMARK    9  A    between atoms: C_26  and  O_27
REMARK   10  A    between atoms: O_27  and  C_28
REMARK                            x       y       z     vdW  Elec       q    Type
REMARK                         _______ _______ _______ _____ _____    ______ ____
ROOT
ATOM      1  C   UNL     1       1.533   9.806  18.116  0.00  0.00    +0.000 C 
ATOM      2  O   UNL     1       2.302  10.435  17.391  0.00  0.00    +0.000 OA
ENDROOT
BRANCH   1   3
ATOM      3  C   UNL     1       0.220  10.403  18.548  0.00  0.00    +0.000 A 
ATOM      4  C   UNL     1      -0.856  10.076  17.808  0.00  0.00    +0.000 A 
ATOM      5  C   UNL     1      -2.173  10.607  18.125  0.00  0.00    +0.000 A 
ATOM      6  C   UNL     1      -3.346  10.152  17.517  0.00  0.00    +0.000 A 
ATOM      7  C   UNL     1      -4.577  10.726  17.855  0.00  0.00    +0.000 A 
ATOM      8  C   UNL     1      -4.628  11.772  18.774  0.00  0.00    +0.000 A 
ATOM      9  C   UNL     1      -3.469  12.242  19.377  0.00  0.00    +0.000 A 
ATOM     10  C   UNL     1      -2.260  11.635  19.058  0.00  0.00    +0.000 A 
ATOM     11  O   UNL     1      -1.123  12.052  19.766  0.00  0.00    +0.000 OA
ATOM     12  C   UNL     1       0.031  11.281  19.732  0.00  0.00    +0.000 A 
ATOM     13  O   UNL     1       0.845  11.366  20.646  0.00  0.00    +0.000 OA
BRANCH   8  14
ATOM     14  O   UNL     1      -5.806  12.356  19.131  0.00  0.00    +0.000 OA
ATOM     15  H   UNL     1      -6.156  11.909  19.920  0.00  0.00    +0.000 HD
ENDBRANCH   8  14
ENDBRANCH   1   3
BRANCH   1  17
ATOM     16  C   UNL     1       2.778   7.679  17.898  0.00  0.00    +0.000 C 
ATOM     17  C   UNL     1       1.899   8.437  18.582  0.00  0.00    +0.000 C 
BRANCH  16  20
ATOM     18  C   UNL     1       2.580   3.886  18.119  0.00  0.00    +0.000 A 
ATOM     19  C   UNL     1       2.199   5.232  17.988  0.00  0.00    +0.000 A 
ATOM     20  C   UNL     1       3.096   6.275  18.225  0.00  0.00    +0.000 A 
ATOM     21  C   UNL     1       4.372   5.939  18.672  0.00  0.00    +0.000 A 
ATOM     22  C   UNL     1       4.755   4.603  18.896  0.00  0.00    +0.000 A 
ATOM     23  C   UNL     1       3.854   3.547  18.623  0.00  0.00    +0.000 A 
BRANCH  18  25
ATOM     24  C   UNL     1       0.747   2.539  18.804  0.00  0.00    +0.000 C 
ATOM     25  O   UNL     1       1.692   2.888  17.786  0.00  0.00    +0.000 OA
ENDBRANCH  18  25
BRANCH  22  26
ATOM     26  O   UNL     1       6.049   4.527  19.355  0.00  0.00    +0.000 OA
ATOM     27  C   UNL     1       6.961   5.581  19.078  0.00  0.00    +0.000 C 
ENDBRANCH  22  26
BRANCH  23  28
ATOM     28  O   UNL     1       4.306   2.284  18.885  0.00  0.00    +0.000 OA
ATOM     29  C   UNL     1       4.408   1.809  20.219  0.00  0.00    +0.000 C 
ENDBRANCH  23  28
ENDBRANCH  16  20
ENDBRANCH   1  17
TORSDOF 7
ENDMDL
MODEL 4
REMARK VINA RESULT:      -8.0      1.663      2.147
REMARK  Name = 
REMARK  10 active torsions:
REMARK  status: ('A' for Active; 'I' for Inactive)
REMARK    1  A    between atoms: C_1  and  O_2
REMARK    2  A    between atoms: O_2  and  C_3
REMARK    3  A    between atoms: C_5  and  C_6
REMARK    4  A    between atoms: C_7  and  C_8
REMARK    5  A    between atoms: C_8  and  C_10
REMARK    6  A    between atoms: C_15  and  O_16
REMARK    7  A    between atoms: C_23  and  O_24
REMARK    8  A    between atoms: O_24  and  C_25
REMARK    9  A    between atoms: C_26  and  O_27
REMARK   10  A    between atoms: O_27  and  C_28
REMARK                            x       y       z     vdW  Elec       q    Type
REMARK                         _______ _______ _______ _____ _____    ______ ____
ROOT
ATOM      1  C   UNL     1       7.429   6.758  17.329  0.00  0.00    +0.000 C 
ATOM      2  O   UNL     1       7.841   6.556  16.187  0.00  0.00    +0.000 OA
ENDROOT
BRANCH   1   3
ATOM      3  C   UNL     1       6.484   5.792  17.989  0.00  0.00    +0.000 A 
ATOM      4  C   UNL     1       5.471   5.335  17.228  0.00  0.00    +0.000 A 
ATOM      5  C   UNL     1       4.487   4.407  17.767  0.00  0.00    +0.000 A 
ATOM      6  C   UNL     1       3.538   3.755  16.976  0.00  0.00    +0.000 A 
ATOM      7  C   UNL     1       2.607   2.893  17.567  0.00  0.00    +0.000 A 
ATOM      8  C   UNL     1       2.607   2.712  18.949  0.00  0.00    +0.000 A 
ATOM      9  C   UNL     1       3.537   3.363  19.749  0.00  0.00    +0.000 A 
ATOM     10  C   UNL     1       4.478   4.185  19.141  0.00  0.00    +0.000 A 
ATOM     11  O   UNL     1       5.474   4.738  19.959  0.00  0.00    +0.000 OA
ATOM     12  C   UNL     1       6.610   5.291  19.383  0.00  0.00    +0.000 A 
ATOM     13  O   UNL     1       7.646   5.368  20.035  0.00  0.00    +0.000 OA
BRANCH   8  14
ATOM     14  O   UNL     1       1.719   1.881  19.561  0.00  0.00    +0.000 OA
ATOM     15  H   UNL     1       0.828   2.264  19.497  0.00  0.00    +0.000 HD
ENDBRANCH   8  14
ENDBRANCH   1   3
BRANCH   1  17
ATOM     16  C   UNL     1       7.865   9.188  17.488  0.00  0.00    +0.000 C 
ATOM     17  C   UNL     1       7.865   7.976  18.073  0.00  0.00    +0.000 C 
BRANCH  16  20
ATOM     18  C   UNL     1      10.009  11.549  19.563  0.00  0.00    +0.000 A 
ATOM     19  C   UNL     1       9.373  10.381  19.112  0.00  0.00    +0.000 A 
ATOM     20  C   UNL     1       8.396  10.415  18.115  0.00  0.00    +0.000 A 
ATOM     21  C   UNL     1       8.015  11.664  17.629  0.00  0.00    +0.000 A 
ATOM     22  C   UNL     1       8.573  12.857  18.123  0.00  0.00    +0.000 A 
ATOM     23  C   UNL     1       9.587  12.817  19.110  0.00  0.00    +0.000 A 
BRANCH  18  25
ATOM     24  C   UNL     1      12.333  11.802  19.988  0.00  0.00    +0.000 C 
ATOM     25  O   UNL     1      11.032  11.460  20.480  0.00  0.00    +0.000 OA
ENDBRANCH  18  25
BRANCH  22  26
ATOM     26  O   UNL     1       8.023  13.956  17.507  0.00  0.00    +0.000 OA
ATOM     27  C   UNL     1       6.680  14.326  17.786  0.00  0.00    +0.000 C 
ENDBRANCH  22  26
BRANCH  23  28
ATOM     28  O   UNL     1      10.058  14.025  19.542  0.00  0.00    +0.000 OA
ATOM     29  C   UNL     1      10.906  14.813  18.720  0.00  0.00    +0.000 C 
ENDBRANCH  23  28
ENDBRANCH  16  20
ENDBRANCH   1  17
TORSDOF 7
ENDMDL
MODEL 5
REMARK VINA RESULT:      -8.0      5.757      9.302
REMARK  Name = 
REMARK  10 active torsions:
REMARK  status: ('A' for Active; 'I' for Inactive)
REMARK    1  A    between atoms: C_1  and  O_2
REMARK    2  A    between atoms: O_2  and  C_3
REMARK    3  A    between atoms: C_5  and  C_6
REMARK    4  A    between atoms: C_7  and  C_8
REMARK    5  A    between atoms: C_8  and  C_10
REMARK    6  A    between atoms: C_15  and  O_16
REMARK    7  A    between atoms: C_23  and  O_24
REMARK    8  A    between atoms: O_24  and  C_25
REMARK    9  A    between atoms: C_26  and  O_27
REMARK   10  A    between atoms: O_27  and  C_28
REMARK                            x       y       z     vdW  Elec       q    Type
REMARK                         _______ _______ _______ _____ _____    ______ ____
ROOT
ATOM      1  C   UNL     1       1.462  10.085  18.495  0.00  0.00    +0.000 C 
ATOM      2  O   UNL     1       2.295  10.954  18.246  0.00  0.00    +0.000 OA
ENDROOT
BRANCH   1   3
ATOM      3  C   UNL     1      -0.005  10.417  18.549  0.00  0.00    +0.000 A 
ATOM      4  C   UNL     1      -0.704  10.213  17.417  0.00  0.00    +0.000 A 
ATOM      5  C   UNL     1      -2.127  10.513  17.350  0.00  0.00    +0.000 A 
ATOM      6  C   UNL     1      -2.936  10.142  16.273  0.00  0.00    +0.000 A 
ATOM      7  C   UNL     1      -4.293  10.485  16.266  0.00  0.00    +0.000 A 
ATOM      8  C   UNL     1      -4.828  11.225  17.318  0.00  0.00    +0.000 A 
ATOM      9  C   UNL     1      -4.033  11.611  18.389  0.00  0.00    +0.000 A 
ATOM     10  C   UNL     1      -2.697  11.229  18.397  0.00  0.00    +0.000 A 
ATOM     11  O   UNL     1      -1.948  11.533  19.543  0.00  0.00    +0.000 OA
ATOM     12  C   UNL     1      -0.725  10.909  19.753  0.00  0.00    +0.000 A 
ATOM     13  O   UNL     1      -0.281  10.810  20.891  0.00  0.00    +0.000 OA
BRANCH   8  14
ATOM     14  O   UNL     1      -6.143  11.577  17.349  0.00  0.00    +0.000 OA
ATOM     15  H   UNL     1      -6.287  12.323  16.743  0.00  0.00    +0.000 HD
ENDBRANCH   8  14
ENDBRANCH   1   3
BRANCH   1  17
ATOM     16  C   UNL     1       2.754   8.054  17.922  0.00  0.00    +0.000 C 
ATOM     17  C   UNL     1       1.902   8.683  18.753  0.00  0.00    +0.000 C 
BRANCH  16  20
ATOM     18  C   UNL     1       4.836   4.891  18.288  0.00  0.00    +0.000 A 
ATOM     19  C   UNL     1       4.466   6.211  17.982  0.00  0.00    +0.000 A 
ATOM     20  C   UNL     1       3.137   6.633  18.041  0.00  0.00    +0.000 A 
ATOM     21  C   UNL     1       2.169   5.677  18.344  0.00  0.00    +0.000 A 
ATOM     22  C   UNL     1       2.501   4.329  18.571  0.00  0.00    +0.000 A 
ATOM     23  C   UNL     1       3.853   3.911  18.543  0.00  0.00    +0.000 A 
BRANCH  18  25
ATOM     24  C   UNL     1       6.858   4.672  17.061  0.00  0.00    +0.000 C 
ATOM     25  O   UNL     1       6.167   4.540  18.308  0.00  0.00    +0.000 OA
ENDBRANCH  18  25
BRANCH  22  26
ATOM     26  O   UNL     1       1.379   3.577  18.828  0.00  0.00    +0.000 OA
ATOM     27  C   UNL     1       0.910   3.439  20.162  0.00  0.00    +0.000 C 
ENDBRANCH  22  26
BRANCH  23  28
ATOM     28  O   UNL     1       4.079   2.580  18.758  0.00  0.00    +0.000 OA
ATOM     29  C   UNL     1       4.415   2.097  20.050  0.00  0.00    +0.000 C 
ENDBRANCH  23  28
ENDBRANCH  16  20
ENDBRANCH   1  17
TORSDOF 7
ENDMDL
MODEL 6
REMARK VINA RESULT:      -7.9      6.022      9.822
REMARK  Name = 
REMARK  10 active torsions:
REMARK  status: ('A' for Active; 'I' for Inactive)
REMARK    1  A    between atoms: C_1  and  O_2
REMARK    2  A    between atoms: O_2  and  C_3
REMARK    3  A    between atoms: C_5  and  C_6
REMARK    4  A    between atoms: C_7  and  C_8
REMARK    5  A    between atoms: C_8  and  C_10
REMARK    6  A    between atoms: C_15  and  O_16
REMARK    7  A    between atoms: C_23  and  O_24
REMARK    8  A    between atoms: O_24  and  C_25
REMARK    9  A    between atoms: C_26  and  O_27
REMARK   10  A    between atoms: O_27  and  C_28
REMARK                            x       y       z     vdW  Elec       q    Type
REMARK                         _______ _______ _______ _____ _____    ______ ____
ROOT
ATOM      1  C   UNL     1       1.516   9.846  18.163  0.00  0.00    +0.000 C 
ATOM      2  O   UNL     1       2.410  10.544  17.687  0.00  0.00    +0.000 OA
ENDROOT
BRANCH   1   3
ATOM      3  C   UNL     1       0.214  10.458  18.605  0.00  0.00    +0.000 A 
ATOM      4  C   UNL     1      -0.871  10.144  17.872  0.00  0.00    +0.000 A 
ATOM      5  C   UNL     1      -2.181  10.689  18.199  0.00  0.00    +0.000 A 
ATOM      6  C   UNL     1      -3.363  10.249  17.599  0.00  0.00    +0.000 A 
ATOM      7  C   UNL     1      -4.585  10.836  17.946  0.00  0.00    +0.000 A 
ATOM      8  C   UNL     1      -4.617  11.883  18.866  0.00  0.00    +0.000 A 
ATOM      9  C   UNL     1      -3.448  12.339  19.461  0.00  0.00    +0.000 A 
ATOM     10  C   UNL     1      -2.249  11.718  19.133  0.00  0.00    +0.000 A 
ATOM     11  O   UNL     1      -1.102  12.122  19.833  0.00  0.00    +0.000 OA
ATOM     12  C   UNL     1       0.043  11.337  19.791  0.00  0.00    +0.000 A 
ATOM     13  O   UNL     1       0.865  11.413  20.698  0.00  0.00    +0.000 OA
BRANCH   8  14
ATOM     14  O   UNL     1      -5.785  12.480  19.231  0.00  0.00    +0.000 OA
ATOM     15  H   UNL     1      -5.730  12.743  20.165  0.00  0.00    +0.000 HD
ENDBRANCH   8  14
ENDBRANCH   1   3
BRANCH   1  17
ATOM     16  C   UNL     1       2.830   7.774  17.850  0.00  0.00    +0.000 C 
ATOM     17  C   UNL     1       1.718   8.376  18.313  0.00  0.00    +0.000 C 
BRANCH  16  20
ATOM     18  C   UNL     1       2.183   4.024  17.882  0.00  0.00    +0.000 A 
ATOM     19  C   UNL     1       2.010   5.404  18.076  0.00  0.00    +0.000 A 
ATOM     20  C   UNL     1       3.046   6.313  17.849  0.00  0.00    +0.000 A 
ATOM     21  C   UNL     1       4.291   5.796  17.493  0.00  0.00    +0.000 A 
ATOM     22  C   UNL     1       4.516   4.412  17.376  0.00  0.00    +0.000 A 
ATOM     23  C   UNL     1       3.455   3.497  17.574  0.00  0.00    +0.000 A 
BRANCH  18  25
ATOM     24  C   UNL     1       0.713   2.906  19.376  0.00  0.00    +0.000 C 
ATOM     25  O   UNL     1       1.111   3.174  18.026  0.00  0.00    +0.000 OA
ENDBRANCH  18  25
BRANCH  22  26
ATOM     26  O   UNL     1       5.822   4.148  17.039  0.00  0.00    +0.000 OA
ATOM     27  C   UNL     1       6.166   3.900  15.683  0.00  0.00    +0.000 C 
ENDBRANCH  22  26
BRANCH  23  28
ATOM     28  O   UNL     1       3.771   2.172  17.456  0.00  0.00    +0.000 OA
ATOM     29  C   UNL     1       3.880   1.344  18.604  0.00  0.00    +0.000 C 
ENDBRANCH  23  28
ENDBRANCH  16  20
ENDBRANCH   1  17
TORSDOF 7
ENDMDL
MODEL 7
REMARK VINA RESULT:      -7.9      6.051      9.637
REMARK  Name = 
REMARK  10 active torsions:
REMARK  status: ('A' for Active; 'I' for Inactive)
REMARK    1  A    between atoms: C_1  and  O_2
REMARK    2  A    between atoms: O_2  and  C_3
REMARK    3  A    between atoms: C_5  and  C_6
REMARK    4  A    between atoms: C_7  and  C_8
REMARK    5  A    between atoms: C_8  and  C_10
REMARK    6  A    between atoms: C_15  and  O_16
REMARK    7  A    between atoms: C_23  and  O_24
REMARK    8  A    between atoms: O_24  and  C_25
REMARK    9  A    between atoms: C_26  and  O_27
REMARK   10  A    between atoms: O_27  and  C_28
REMARK                            x       y       z     vdW  Elec       q    Type
REMARK                         _______ _______ _______ _____ _____    ______ ____
ROOT
ATOM      1  C   UNL     1       1.520   9.977  18.177  0.00  0.00    +0.000 C 
ATOM      2  O   UNL     1       2.258  10.626  17.437  0.00  0.00    +0.000 OA
ENDROOT
BRANCH   1   3
ATOM      3  C   UNL     1       0.178  10.516  18.592  0.00  0.00    +0.000 A 
ATOM      4  C   UNL     1      -0.869  10.167  17.820  0.00  0.00    +0.000 A 
ATOM      5  C   UNL     1      -2.212  10.642  18.119  0.00  0.00    +0.000 A 
ATOM      6  C   UNL     1      -3.353  10.160  17.473  0.00  0.00    +0.000 A 
ATOM      7  C   UNL     1      -4.612  10.681  17.796  0.00  0.00    +0.000 A 
ATOM      8  C   UNL     1      -4.721  11.702  18.737  0.00  0.00    +0.000 A 
ATOM      9  C   UNL     1      -3.594  12.200  19.378  0.00  0.00    +0.000 A 
ATOM     10  C   UNL     1      -2.357  11.645  19.072  0.00  0.00    +0.000 A 
ATOM     11  O   UNL     1      -1.253  12.086  19.816  0.00  0.00    +0.000 OA
ATOM     12  C   UNL     1      -0.070  11.358  19.792  0.00  0.00    +0.000 A 
ATOM     13  O   UNL     1       0.720  11.451  20.725  0.00  0.00    +0.000 OA
BRANCH   8  14
ATOM     14  O   UNL     1      -5.927  12.234  19.079  0.00  0.00    +0.000 OA
ATOM     15  H   UNL     1      -5.842  12.696  19.930  0.00  0.00    +0.000 HD
ENDBRANCH   8  14
ENDBRANCH   1   3
BRANCH   1  17
ATOM     16  C   UNL     1       2.876   7.914  18.017  0.00  0.00    +0.000 C 
ATOM     17  C   UNL     1       1.957   8.641  18.679  0.00  0.00    +0.000 C 
BRANCH  16  20
ATOM     18  C   UNL     1       3.033   4.549  19.786  0.00  0.00    +0.000 A 
ATOM     19  C   UNL     1       2.817   5.916  19.547  0.00  0.00    +0.000 A 
ATOM     20  C   UNL     1       3.267   6.537  18.380  0.00  0.00    +0.000 A 
ATOM     21  C   UNL     1       4.008   5.768  17.485  0.00  0.00    +0.000 A 
ATOM     22  C   UNL     1       4.315   4.418  17.740  0.00  0.00    +0.000 A 
ATOM     23  C   UNL     1       3.829   3.784  18.908  0.00  0.00    +0.000 A 
BRANCH  18  25
ATOM     24  C   UNL     1       1.169   3.434  20.747  0.00  0.00    +0.000 C 
ATOM     25  O   UNL     1       2.492   3.957  20.905  0.00  0.00    +0.000 OA
ENDBRANCH  18  25
BRANCH  22  26
ATOM     26  O   UNL     1       5.073   3.881  16.727  0.00  0.00    +0.000 OA
ATOM     27  C   UNL     1       5.398   4.670  15.591  0.00  0.00    +0.000 C 
ENDBRANCH  22  26
BRANCH  23  28
ATOM     28  O   UNL     1       4.190   2.476  19.080  0.00  0.00    +0.000 OA
ATOM     29  C   UNL     1       3.431   1.428  18.497  0.00  0.00    +0.000 C 
ENDBRANCH  23  28
ENDBRANCH  16  20
ENDBRANCH   1  17
TORSDOF 7
ENDMDL
MODEL 8
REMARK VINA RESULT:      -7.8      6.881     10.405
REMARK  Name = 
REMARK  10 active torsions:
REMARK  status: ('A' for Active; 'I' for Inactive)
REMARK    1  A    between atoms: C_1  and  O_2
REMARK    2  A    between atoms: O_2  and  C_3
REMARK    3  A    between atoms: C_5  and  C_6
REMARK    4  A    between atoms: C_7  and  C_8
REMARK    5  A    between atoms: C_8  and  C_10
REMARK    6  A    between atoms: C_15  and  O_16
REMARK    7  A    between atoms: C_23  and  O_24
REMARK    8  A    between atoms: O_24  and  C_25
REMARK    9  A    between atoms: C_26  and  O_27
REMARK   10  A    between atoms: O_27  and  C_28
REMARK                            x       y       z     vdW  Elec       q    Type
REMARK                         _______ _______ _______ _____ _____    ______ ____
ROOT
ATOM      1  C   UNL     1       1.678   9.733  18.119  0.00  0.00    +0.000 C 
ATOM      2  O   UNL     1       2.437  10.686  17.948  0.00  0.00    +0.000 OA
ENDROOT
BRANCH   1   3
ATOM      3  C   UNL     1       2.203   8.407  18.598  0.00  0.00    +0.000 A 
ATOM      4  C   UNL     1       3.057   7.771  17.773  0.00  0.00    +0.000 A 
ATOM      5  C   UNL     1       3.617   6.475  18.127  0.00  0.00    +0.000 A 
ATOM      6  C   UNL     1       4.648   5.866  17.407  0.00  0.00    +0.000 A 
ATOM      7  C   UNL     1       5.120   4.606  17.792  0.00  0.00    +0.000 A 
ATOM      8  C   UNL     1       4.540   3.946  18.873  0.00  0.00    +0.000 A 
ATOM      9  C   UNL     1       3.506   4.534  19.590  0.00  0.00    +0.000 A 
ATOM     10  C   UNL     1       3.075   5.801  19.217  0.00  0.00    +0.000 A 
ATOM     11  O   UNL     1       2.111   6.418  20.028  0.00  0.00    +0.000 OA
ATOM     12  C   UNL     1       1.878   7.782  19.906  0.00  0.00    +0.000 A 
ATOM     13  O   UNL     1       1.401   8.403  20.850  0.00  0.00    +0.000 OA
BRANCH   8  14
ATOM     14  O   UNL     1       4.972   2.720  19.280  0.00  0.00    +0.000 OA
ATOM     15  H   UNL     1       5.013   2.703  20.251  0.00  0.00    +0.000 HD
ENDBRANCH   8  14
ENDBRANCH   1   3
BRANCH   1  17
ATOM     16  C   UNL     1      -0.466  10.956  18.286  0.00  0.00    +0.000 C 
ATOM     17  C   UNL     1       0.219   9.884  17.846  0.00  0.00    +0.000 C 
BRANCH  16  20
ATOM     18  C   UNL     1      -4.058  11.998  18.984  0.00  0.00    +0.000 A 
ATOM     19  C   UNL     1      -2.707  11.672  19.182  0.00  0.00    +0.000 A 
ATOM     20  C   UNL     1      -1.929  11.116  18.165  0.00  0.00    +0.000 A 
ATOM     21  C   UNL     1      -2.561  10.824  16.957  0.00  0.00    +0.000 A 
ATOM     22  C   UNL     1      -3.934  11.059  16.760  0.00  0.00    +0.000 A 
ATOM     23  C   UNL     1      -4.711  11.653  17.782  0.00  0.00    +0.000 A 
BRANCH  18  25
ATOM     24  C   UNL     1      -4.060  12.802  21.219  0.00  0.00    +0.000 C 
ATOM     25  O   UNL     1      -4.763  12.629  19.984  0.00  0.00    +0.000 OA
ENDBRANCH  18  25
BRANCH  22  26
ATOM     26  O   UNL     1      -4.329  10.669  15.502  0.00  0.00    +0.000 OA
ATOM     27  C   UNL     1      -3.373  10.141  14.592  0.00  0.00    +0.000 C 
ENDBRANCH  22  26
BRANCH  23  28
ATOM     28  O   UNL     1      -6.039  11.828  17.507  0.00  0.00    +0.000 OA
ATOM     29  C   UNL     1      -6.523  13.068  17.012  0.00  0.00    +0.000 C 
ENDBRANCH  23  28
ENDBRANCH  16  20
ENDBRANCH   1  17
TORSDOF 7
ENDMDL
MODEL 9
REMARK VINA RESULT:      -7.6      5.829      8.031
REMARK  Name = 
REMARK  10 active torsions:
REMARK  status: ('A' for Active; 'I' for Inactive)
REMARK    1  A    between atoms: C_1  and  O_2
REMARK    2  A    between atoms: O_2  and  C_3
REMARK    3  A    between atoms: C_5  and  C_6
REMARK    4  A    between atoms: C_7  and  C_8
REMARK    5  A    between atoms: C_8  and  C_10
REMARK    6  A    between atoms: C_15  and  O_16
REMARK    7  A    between atoms: C_23  and  O_24
REMARK    8  A    between atoms: O_24  and  C_25
REMARK    9  A    between atoms: C_26  and  O_27
REMARK   10  A    between atoms: O_27  and  C_28
REMARK                            x       y       z     vdW  Elec       q    Type
REMARK                         _______ _______ _______ _____ _____    ______ ____
ROOT
ATOM      1  C   UNL     1       2.290   5.747  20.206  0.00  0.00    +0.000 C 
ATOM      2  O   UNL     1       1.854   5.079  21.143  0.00  0.00    +0.000 OA
ENDROOT
BRANCH   1   3
ATOM      3  C   UNL     1       3.166   5.120  19.155  0.00  0.00    +0.000 A 
ATOM      4  C   UNL     1       3.558   5.925  18.149  0.00  0.00    +0.000 A 
ATOM      5  C   UNL     1       4.395   5.421  17.070  0.00  0.00    +0.000 A 
ATOM      6  C   UNL     1       4.987   6.250  16.113  0.00  0.00    +0.000 A 
ATOM      7  C   UNL     1       5.761   5.693  15.088  0.00  0.00    +0.000 A 
ATOM      8  C   UNL     1       5.913   4.310  15.004  0.00  0.00    +0.000 A 
ATOM      9  C   UNL     1       5.320   3.474  15.941  0.00  0.00    +0.000 A 
ATOM     10  C   UNL     1       4.586   4.047  16.973  0.00  0.00    +0.000 A 
ATOM     11  O   UNL     1       4.096   3.188  17.967  0.00  0.00    +0.000 OA
ATOM     12  C   UNL     1       3.645   3.714  19.172  0.00  0.00    +0.000 A 
ATOM     13  O   UNL     1       3.636   3.010  20.176  0.00  0.00    +0.000 OA
BRANCH   8  14
ATOM     14  O   UNL     1       6.659   3.730  14.024  0.00  0.00    +0.000 OA
ATOM     15  H   UNL     1       7.538   3.515  14.378  0.00  0.00    +0.000 HD
ENDBRANCH   8  14
ENDBRANCH   1   3
BRANCH   1  17
ATOM     16  C   UNL     1       1.217   7.810  21.051  0.00  0.00    +0.000 C 
ATOM     17  C   UNL     1       1.956   7.198  20.106  0.00  0.00    +0.000 C 
BRANCH  16  20
ATOM     18  C   UNL     1      -0.153  11.230  22.001  0.00  0.00    +0.000 A 
ATOM     19  C   UNL     1       0.118   9.852  22.029  0.00  0.00    +0.000 A 
ATOM     20  C   UNL     1       0.742   9.205  20.960  0.00  0.00    +0.000 A 
ATOM     21  C   UNL     1       1.023   9.962  19.824  0.00  0.00    +0.000 A 
ATOM     22  C   UNL     1       0.684  11.324  19.734  0.00  0.00    +0.000 A 
ATOM     23  C   UNL     1       0.082  11.984  20.832  0.00  0.00    +0.000 A 
BRANCH  18  25
ATOM     24  C   UNL     1      -2.103  11.721  23.266  0.00  0.00    +0.000 C 
ATOM     25  O   UNL     1      -0.685  11.845  23.112  0.00  0.00    +0.000 OA
ENDBRANCH  18  25
BRANCH  22  26
ATOM     26  O   UNL     1       1.040  11.845  18.513  0.00  0.00    +0.000 OA
ATOM     27  C   UNL     1       2.336  12.398  18.330  0.00  0.00    +0.000 C 
ENDBRANCH  22  26
BRANCH  23  28
ATOM     28  O   UNL     1      -0.228  13.303  20.648  0.00  0.00    +0.000 OA
ATOM     29  C   UNL     1      -1.500  13.691  20.151  0.00  0.00    +0.000 C 
ENDBRANCH  23  28
ENDBRANCH  16  20
ENDBRANCH   1  17
TORSDOF 7
ENDMDL
