MODEL 1
REMARK VINA RESULT:      -6.9      0.000      0.000
REMARK  Name = 
REMARK  11 active torsions:
REMARK  status: ('A' for Active; 'I' for Inactive)
REMARK    1  A    between atoms: C_1  and  C_2
REMARK    2  A    between atoms: C_3  and  C_4
REMARK    3  A    between atoms: C_3  and  C_5
REMARK    4  A    between atoms: C_5  and  O_7
REMARK    5  A    between atoms: O_7  and  C_8
REMARK    6  A    between atoms: C_8  and  C_9
REMARK    7  A    between atoms: C_10  and  C_11
REMARK    8  A    between atoms: C_14  and  O_15
REMARK    9  A    between atoms: O_15  and  C_16
REMARK   10  A    between atoms: C_17  and  O_18
REMARK   11  A    between atoms: O_18  and  C_19
REMARK                            x       y       z     vdW  Elec       q    Type
REMARK                         _______ _______ _______ _____ _____    ______ ____
ROOT
ATOM      1  C   UNL     1       3.153   5.714  19.753  0.00  0.00    +0.000 C 
ATOM      2  C   UNL     1       3.071   5.518  18.429  0.00  0.00    +0.000 C 
ENDROOT
BRANCH   2   3
ATOM      3  C   UNL     1       4.224   5.463  17.519  0.00  0.00    +0.000 A 
ATOM      4  C   UNL     1       4.470   4.388  16.664  0.00  0.00    +0.000 A 
ATOM      5  C   UNL     1       5.589   4.396  15.832  0.00  0.00    +0.000 A 
ATOM      6  C   UNL     1       6.498   5.463  15.844  0.00  0.00    +0.000 A 
ATOM      7  C   UNL     1       6.278   6.543  16.715  0.00  0.00    +0.000 A 
ATOM      8  C   UNL     1       5.138   6.528  17.539  0.00  0.00    +0.000 A 
BRANCH   6   9
ATOM      9  O   UNL     1       7.520   5.274  14.950  0.00  0.00    +0.000 OA
ATOM     10  C   UNL     1       7.216   4.781  13.655  0.00  0.00    +0.000 C 
ENDBRANCH   6   9
BRANCH   7  11
ATOM     11  O   UNL     1       7.188   7.566  16.731  0.00  0.00    +0.000 OA
ATOM     12  C   UNL     1       7.897   7.827  17.935  0.00  0.00    +0.000 C 
ENDBRANCH   7  11
ENDBRANCH   2   3
BRANCH   1  13
ATOM     13  C   UNL     1       1.971   5.719  20.674  0.00  0.00    +0.000 C 
BRANCH  13  14
ATOM     14  O   UNL     1       1.117   4.611  20.373  0.00  0.00    +0.000 OA
BRANCH  14  15
ATOM     15  C   UNL     1       1.594   3.418  20.795  0.00  0.00    +0.000 C 
ATOM     16  O   UNL     1       1.826   3.135  21.962  0.00  0.00    +0.000 OA
BRANCH  15  19
ATOM     17  C   UNL     1       4.297   2.301  20.113  0.00  0.00    +0.000 C 
ATOM     18  C   UNL     1       3.031   2.008  19.367  0.00  0.00    +0.000 C 
ATOM     19  C   UNL     1       1.801   2.484  19.644  0.00  0.00    +0.000 C 
ATOM     20  C   UNL     1       0.613   2.101  18.807  0.00  0.00    +0.000 C 
ENDBRANCH  15  19
ENDBRANCH  14  15
ENDBRANCH  13  14
ENDBRANCH   1  13
TORSDOF 7
ENDMDL
MODEL 2
REMARK VINA RESULT:      -6.4      1.316      3.226
REMARK  Name = 
REMARK  11 active torsions:
REMARK  status: ('A' for Active; 'I' for Inactive)
REMARK    1  A    between atoms: C_1  and  C_2
REMARK    2  A    between atoms: C_3  and  C_4
REMARK    3  A    between atoms: C_3  and  C_5
REMARK    4  A    between atoms: C_5  and  O_7
REMARK    5  A    between atoms: O_7  and  C_8
REMARK    6  A    between atoms: C_8  and  C_9
REMARK    7  A    between atoms: C_10  and  C_11
REMARK    8  A    between atoms: C_14  and  O_15
REMARK    9  A    between atoms: O_15  and  C_16
REMARK   10  A    between atoms: C_17  and  O_18
REMARK   11  A    between atoms: O_18  and  C_19
REMARK                            x       y       z     vdW  Elec       q    Type
REMARK                         _______ _______ _______ _____ _____    ______ ____
ROOT
ATOM      1  C   UNL     1       3.601   2.725  17.861  0.00  0.00    +0.000 C 
ATOM      2  C   UNL     1       3.606   3.806  17.067  0.00  0.00    +0.000 C 
ENDROOT
BRANCH   2   3
ATOM      3  C   UNL     1       4.707   4.775  16.980  0.00  0.00    +0.000 A 
ATOM      4  C   UNL     1       4.769   5.931  17.760  0.00  0.00    +0.000 A 
ATOM      5  C   UNL     1       5.840   6.814  17.620  0.00  0.00    +0.000 A 
ATOM      6  C   UNL     1       6.861   6.579  16.690  0.00  0.00    +0.000 A 
ATOM      7  C   UNL     1       6.803   5.431  15.880  0.00  0.00    +0.000 A 
ATOM      8  C   UNL     1       5.725   4.543  16.042  0.00  0.00    +0.000 A 
BRANCH   6   9
ATOM      9  O   UNL     1       7.815   7.563  16.718  0.00  0.00    +0.000 OA
ATOM     10  C   UNL     1       8.045   8.261  17.931  0.00  0.00    +0.000 C 
ENDBRANCH   6   9
BRANCH   7  11
ATOM     11  O   UNL     1       7.797   5.229  14.961  0.00  0.00    +0.000 OA
ATOM     12  C   UNL     1       7.434   4.983  13.610  0.00  0.00    +0.000 C 
ENDBRANCH   7  11
ENDBRANCH   2   3
BRANCH   1  13
ATOM     13  C   UNL     1       2.490   1.721  17.902  0.00  0.00    +0.000 C 
BRANCH  13  14
ATOM     14  O   UNL     1       1.990   1.603  19.238  0.00  0.00    +0.000 OA
BRANCH  14  15
ATOM     15  C   UNL     1       1.099   2.560  19.578  0.00  0.00    +0.000 C 
ATOM     16  O   UNL     1       0.106   2.849  18.926  0.00  0.00    +0.000 OA
BRANCH  15  19
ATOM     17  C   UNL     1       1.823   5.472  19.716  0.00  0.00    +0.000 C 
ATOM     18  C   UNL     1       1.810   4.532  20.882  0.00  0.00    +0.000 C 
ATOM     19  C   UNL     1       1.486   3.223  20.862  0.00  0.00    +0.000 C 
ATOM     20  C   UNL     1       1.513   2.397  22.118  0.00  0.00    +0.000 C 
ENDBRANCH  15  19
ENDBRANCH  14  15
ENDBRANCH  13  14
ENDBRANCH   1  13
TORSDOF 7
ENDMDL
MODEL 3
REMARK VINA RESULT:      -6.4      2.267      7.231
REMARK  Name = 
REMARK  11 active torsions:
REMARK  status: ('A' for Active; 'I' for Inactive)
REMARK    1  A    between atoms: C_1  and  C_2
REMARK    2  A    between atoms: C_3  and  C_4
REMARK    3  A    between atoms: C_3  and  C_5
REMARK    4  A    between atoms: C_5  and  O_7
REMARK    5  A    between atoms: O_7  and  C_8
REMARK    6  A    between atoms: C_8  and  C_9
REMARK    7  A    between atoms: C_10  and  C_11
REMARK    8  A    between atoms: C_14  and  O_15
REMARK    9  A    between atoms: O_15  and  C_16
REMARK   10  A    between atoms: C_17  and  O_18
REMARK   11  A    between atoms: O_18  and  C_19
REMARK                            x       y       z     vdW  Elec       q    Type
REMARK                         _______ _______ _______ _____ _____    ______ ____
ROOT
ATOM      1  C   UNL     1       5.257   4.762  15.530  0.00  0.00    +0.000 C 
ATOM      2  C   UNL     1       5.006   3.660  16.252  0.00  0.00    +0.000 C 
ENDROOT
BRANCH   2   3
ATOM      3  C   UNL     1       3.972   3.559  17.292  0.00  0.00    +0.000 A 
ATOM      4  C   UNL     1       3.557   2.345  17.839  0.00  0.00    +0.000 A 
ATOM      5  C   UNL     1       2.564   2.320  18.818  0.00  0.00    +0.000 A 
ATOM      6  C   UNL     1       1.948   3.498  19.260  0.00  0.00    +0.000 A 
ATOM      7  C   UNL     1       2.337   4.729  18.703  0.00  0.00    +0.000 A 
ATOM      8  C   UNL     1       3.349   4.740  17.728  0.00  0.00    +0.000 A 
BRANCH   6   9
ATOM      9  O   UNL     1       1.005   3.252  20.225  0.00  0.00    +0.000 OA
ATOM     10  C   UNL     1       1.431   2.784  21.495  0.00  0.00    +0.000 C 
ENDBRANCH   6   9
BRANCH   7  11
ATOM     11  O   UNL     1       1.709   5.867  19.130  0.00  0.00    +0.000 OA
ATOM     12  C   UNL     1       2.230   6.547  20.264  0.00  0.00    +0.000 C 
ENDBRANCH   7  11
ENDBRANCH   2   3
BRANCH   1  13
ATOM     13  C   UNL     1       6.282   4.833  14.440  0.00  0.00    +0.000 C 
BRANCH  13  14
ATOM     14  O   UNL     1       6.342   3.582  13.747  0.00  0.00    +0.000 OA
BRANCH  14  15
ATOM     15  C   UNL     1       6.457   3.702  12.405  0.00  0.00    +0.000 C 
ATOM     16  O   UNL     1       7.317   4.361  11.838  0.00  0.00    +0.000 OA
BRANCH  15  19
ATOM     17  C   UNL     1       6.966   0.958  11.297  0.00  0.00    +0.000 C 
ATOM     18  C   UNL     1       5.663   1.692  11.214  0.00  0.00    +0.000 C 
ATOM     19  C   UNL     1       5.394   2.919  11.702  0.00  0.00    +0.000 C 
ATOM     20  C   UNL     1       4.032   3.535  11.548  0.00  0.00    +0.000 C 
ENDBRANCH  15  19
ENDBRANCH  14  15
ENDBRANCH  13  14
ENDBRANCH   1  13
TORSDOF 7
ENDMDL
MODEL 4
REMARK VINA RESULT:      -6.4      2.356      7.549
REMARK  Name = 
REMARK  11 active torsions:
REMARK  status: ('A' for Active; 'I' for Inactive)
REMARK    1  A    between atoms: C_1  and  C_2
REMARK    2  A    between atoms: C_3  and  C_4
REMARK    3  A    between atoms: C_3  and  C_5
REMARK    4  A    between atoms: C_5  and  O_7
REMARK    5  A    between atoms: O_7  and  C_8
REMARK    6  A    between atoms: C_8  and  C_9
REMARK    7  A    between atoms: C_10  and  C_11
REMARK    8  A    between atoms: C_14  and  O_15
REMARK    9  A    between atoms: O_15  and  C_16
REMARK   10  A    between atoms: C_17  and  O_18
REMARK   11  A    between atoms: O_18  and  C_19
REMARK                            x       y       z     vdW  Elec       q    Type
REMARK                         _______ _______ _______ _____ _____    ______ ____
ROOT
ATOM      1  C   UNL     1       5.837   4.996  15.360  0.00  0.00    +0.000 C 
ATOM      2  C   UNL     1       5.437   4.004  16.169  0.00  0.00    +0.000 C 
ENDROOT
BRANCH   2   3
ATOM      3  C   UNL     1       4.530   4.171  17.313  0.00  0.00    +0.000 A 
ATOM      4  C   UNL     1       4.928   4.737  18.525  0.00  0.00    +0.000 A 
ATOM      5  C   UNL     1       4.017   4.857  19.574  0.00  0.00    +0.000 A 
ATOM      6  C   UNL     1       2.698   4.402  19.450  0.00  0.00    +0.000 A 
ATOM      7  C   UNL     1       2.286   3.808  18.244  0.00  0.00    +0.000 A 
ATOM      8  C   UNL     1       3.211   3.705  17.190  0.00  0.00    +0.000 A 
BRANCH   6   9
ATOM      9  O   UNL     1       1.971   4.619  20.592  0.00  0.00    +0.000 OA
ATOM     10  C   UNL     1       2.120   3.723  21.681  0.00  0.00    +0.000 C 
ENDBRANCH   6   9
BRANCH   7  11
ATOM     11  O   UNL     1       1.001   3.347  18.148  0.00  0.00    +0.000 OA
ATOM     12  C   UNL     1       0.672   2.113  18.771  0.00  0.00    +0.000 C 
ENDBRANCH   7  11
ENDBRANCH   2   3
BRANCH   1  13
ATOM     13  C   UNL     1       6.724   4.800  14.169  0.00  0.00    +0.000 C 
BRANCH  13  14
ATOM     14  O   UNL     1       6.380   3.582  13.502  0.00  0.00    +0.000 OA
BRANCH  14  15
ATOM     15  C   UNL     1       6.669   3.577  12.182  0.00  0.00    +0.000 C 
ATOM     16  O   UNL     1       7.366   4.410  11.620  0.00  0.00    +0.000 OA
BRANCH  15  19
ATOM     17  C   UNL     1       3.800   3.634  11.296  0.00  0.00    +0.000 C 
ATOM     18  C   UNL     1       4.733   2.477  11.117  0.00  0.00    +0.000 C 
ATOM     19  C   UNL     1       6.026   2.414  11.494  0.00  0.00    +0.000 C 
ATOM     20  C   UNL     1       6.849   1.181  11.246  0.00  0.00    +0.000 C 
ENDBRANCH  15  19
ENDBRANCH  14  15
ENDBRANCH  13  14
ENDBRANCH   1  13
TORSDOF 7
ENDMDL
MODEL 5
REMARK VINA RESULT:      -6.3      4.493      8.009
REMARK  Name = 
REMARK  11 active torsions:
REMARK  status: ('A' for Active; 'I' for Inactive)
REMARK    1  A    between atoms: C_1  and  C_2
REMARK    2  A    between atoms: C_3  and  C_4
REMARK    3  A    between atoms: C_3  and  C_5
REMARK    4  A    between atoms: C_5  and  O_7
REMARK    5  A    between atoms: O_7  and  C_8
REMARK    6  A    between atoms: C_8  and  C_9
REMARK    7  A    between atoms: C_10  and  C_11
REMARK    8  A    between atoms: C_14  and  O_15
REMARK    9  A    between atoms: O_15  and  C_16
REMARK   10  A    between atoms: C_17  and  O_18
REMARK   11  A    between atoms: O_18  and  C_19
REMARK                            x       y       z     vdW  Elec       q    Type
REMARK                         _______ _______ _______ _____ _____    ______ ____
ROOT
ATOM      1  C   UNL     1       8.365   8.789  17.998  0.00  0.00    +0.000 C 
ATOM      2  C   UNL     1       8.974   9.384  19.034  0.00  0.00    +0.000 C 
ENDROOT
BRANCH   2   3
ATOM      3  C   UNL     1       9.377  10.797  19.068  0.00  0.00    +0.000 A 
ATOM      4  C   UNL     1       9.173  11.621  20.175  0.00  0.00    +0.000 A 
ATOM      5  C   UNL     1       9.572  12.957  20.137  0.00  0.00    +0.000 A 
ATOM      6  C   UNL     1      10.164  13.508  18.993  0.00  0.00    +0.000 A 
ATOM      7  C   UNL     1      10.356  12.698  17.860  0.00  0.00    +0.000 A 
ATOM      8  C   UNL     1       9.962  11.350  17.918  0.00  0.00    +0.000 A 
BRANCH   6   9
ATOM      9  O   UNL     1      10.483  14.830  19.168  0.00  0.00    +0.000 OA
ATOM     10  C   UNL     1       9.638  15.820  18.604  0.00  0.00    +0.000 C 
ENDBRANCH   6   9
BRANCH   7  11
ATOM     11  O   UNL     1      10.914  13.259  16.743  0.00  0.00    +0.000 OA
ATOM     12  C   UNL     1      12.327  13.403  16.689  0.00  0.00    +0.000 C 
ENDBRANCH   7  11
ENDBRANCH   2   3
BRANCH   1  13
ATOM     13  C   UNL     1       7.918   7.359  17.998  0.00  0.00    +0.000 C 
BRANCH  13  14
ATOM     14  O   UNL     1       7.587   6.953  16.666  0.00  0.00    +0.000 OA
BRANCH  14  15
ATOM     15  C   UNL     1       7.100   5.695  16.580  0.00  0.00    +0.000 C 
ATOM     16  O   UNL     1       7.706   4.690  16.923  0.00  0.00    +0.000 OA
BRANCH  15  19
ATOM     17  C   UNL     1       6.454   4.345  13.976  0.00  0.00    +0.000 C 
ATOM     18  C   UNL     1       5.469   5.078  14.833  0.00  0.00    +0.000 C 
ATOM     19  C   UNL     1       5.717   5.691  16.008  0.00  0.00    +0.000 C 
ATOM     20  C   UNL     1       4.624   6.390  16.767  0.00  0.00    +0.000 C 
ENDBRANCH  15  19
ENDBRANCH  14  15
ENDBRANCH  13  14
ENDBRANCH   1  13
TORSDOF 7
ENDMDL
MODEL 6
REMARK VINA RESULT:      -6.3      3.234      5.577
REMARK  Name = 
REMARK  11 active torsions:
REMARK  status: ('A' for Active; 'I' for Inactive)
REMARK    1  A    between atoms: C_1  and  C_2
REMARK    2  A    between atoms: C_3  and  C_4
REMARK    3  A    between atoms: C_3  and  C_5
REMARK    4  A    between atoms: C_5  and  O_7
REMARK    5  A    between atoms: O_7  and  C_8
REMARK    6  A    between atoms: C_8  and  C_9
REMARK    7  A    between atoms: C_10  and  C_11
REMARK    8  A    between atoms: C_14  and  O_15
REMARK    9  A    between atoms: O_15  and  C_16
REMARK   10  A    between atoms: C_17  and  O_18
REMARK   11  A    between atoms: O_18  and  C_19
REMARK                            x       y       z     vdW  Elec       q    Type
REMARK                         _______ _______ _______ _____ _____    ______ ____
ROOT
ATOM      1  C   UNL     1       4.483   5.694  19.350  0.00  0.00    +0.000 C 
ATOM      2  C   UNL     1       3.584   6.156  18.468  0.00  0.00    +0.000 C 
ENDROOT
BRANCH   2   3
ATOM      3  C   UNL     1       2.672   7.281  18.714  0.00  0.00    +0.000 A 
ATOM      4  C   UNL     1       2.408   8.270  17.765  0.00  0.00    +0.000 A 
ATOM      5  C   UNL     1       1.538   9.317  18.068  0.00  0.00    +0.000 A 
ATOM      6  C   UNL     1       0.927   9.417  19.326  0.00  0.00    +0.000 A 
ATOM      7  C   UNL     1       1.201   8.442  20.301  0.00  0.00    +0.000 A 
ATOM      8  C   UNL     1       2.069   7.385  19.978  0.00  0.00    +0.000 A 
BRANCH   6   9
ATOM      9  O   UNL     1       0.110  10.514  19.412  0.00  0.00    +0.000 OA
ATOM     10  C   UNL     1      -0.788  10.785  18.348  0.00  0.00    +0.000 C 
ENDBRANCH   6   9
BRANCH   7  11
ATOM     11  O   UNL     1       0.614   8.568  21.532  0.00  0.00    +0.000 OA
ATOM     12  C   UNL     1       1.289   9.316  22.534  0.00  0.00    +0.000 C 
ENDBRANCH   7  11
ENDBRANCH   2   3
BRANCH   1  13
ATOM     13  C   UNL     1       5.439   4.576  19.065  0.00  0.00    +0.000 C 
BRANCH  13  14
ATOM     14  O   UNL     1       4.731   3.459  18.519  0.00  0.00    +0.000 OA
BRANCH  14  15
ATOM     15  C   UNL     1       4.153   2.666  19.450  0.00  0.00    +0.000 C 
ATOM     16  O   UNL     1       4.759   2.076  20.333  0.00  0.00    +0.000 OA
BRANCH  15  19
ATOM     17  C   UNL     1       2.234   3.612  21.557  0.00  0.00    +0.000 C 
ATOM     18  C   UNL     1       1.842   3.035  20.232  0.00  0.00    +0.000 C 
ATOM     19  C   UNL     1       2.671   2.605  19.259  0.00  0.00    +0.000 C 
ATOM     20  C   UNL     1       2.134   2.049  17.971  0.00  0.00    +0.000 C 
ENDBRANCH  15  19
ENDBRANCH  14  15
ENDBRANCH  13  14
ENDBRANCH   1  13
TORSDOF 7
ENDMDL
MODEL 7
REMARK VINA RESULT:      -6.3      2.342      7.225
REMARK  Name = 
REMARK  11 active torsions:
REMARK  status: ('A' for Active; 'I' for Inactive)
REMARK    1  A    between atoms: C_1  and  C_2
REMARK    2  A    between atoms: C_3  and  C_4
REMARK    3  A    between atoms: C_3  and  C_5
REMARK    4  A    between atoms: C_5  and  O_7
REMARK    5  A    between atoms: O_7  and  C_8
REMARK    6  A    between atoms: C_8  and  C_9
REMARK    7  A    between atoms: C_10  and  C_11
REMARK    8  A    between atoms: C_14  and  O_15
REMARK    9  A    between atoms: O_15  and  C_16
REMARK   10  A    between atoms: C_17  and  O_18
REMARK   11  A    between atoms: O_18  and  C_19
REMARK                            x       y       z     vdW  Elec       q    Type
REMARK                         _______ _______ _______ _____ _____    ______ ____
ROOT
ATOM      1  C   UNL     1       5.759   4.786  15.760  0.00  0.00    +0.000 C 
ATOM      2  C   UNL     1       5.056   5.888  16.062  0.00  0.00    +0.000 C 
ENDROOT
BRANCH   2   3
ATOM      3  C   UNL     1       4.199   6.035  17.247  0.00  0.00    +0.000 A 
ATOM      4  C   UNL     1       3.545   7.224  17.572  0.00  0.00    +0.000 A 
ATOM      5  C   UNL     1       2.753   7.297  18.718  0.00  0.00    +0.000 A 
ATOM      6  C   UNL     1       2.609   6.199  19.576  0.00  0.00    +0.000 A 
ATOM      7  C   UNL     1       3.280   5.000  19.276  0.00  0.00    +0.000 A 
ATOM      8  C   UNL     1       4.063   4.936  18.110  0.00  0.00    +0.000 A 
BRANCH   6   9
ATOM      9  O   UNL     1       1.788   6.481  20.636  0.00  0.00    +0.000 OA
ATOM     10  C   UNL     1       1.386   7.824  20.853  0.00  0.00    +0.000 C 
ENDBRANCH   6   9
BRANCH   7  11
ATOM     11  O   UNL     1       3.147   3.944  20.137  0.00  0.00    +0.000 OA
ATOM     12  C   UNL     1       2.091   3.018  19.919  0.00  0.00    +0.000 C 
ENDBRANCH   7  11
ENDBRANCH   2   3
BRANCH   1  13
ATOM     13  C   UNL     1       6.666   4.670  14.573  0.00  0.00    +0.000 C 
BRANCH  13  14
ATOM     14  O   UNL     1       6.311   3.519  13.801  0.00  0.00    +0.000 OA
BRANCH  14  15
ATOM     15  C   UNL     1       6.443   3.690  12.466  0.00  0.00    +0.000 C 
ATOM     16  O   UNL     1       7.296   4.388  11.936  0.00  0.00    +0.000 OA
BRANCH  15  19
ATOM     17  C   UNL     1       7.042   1.016  11.237  0.00  0.00    +0.000 C 
ATOM     18  C   UNL     1       5.718   1.715  11.177  0.00  0.00    +0.000 C 
ATOM     19  C   UNL     1       5.409   2.910  11.719  0.00  0.00    +0.000 C 
ATOM     20  C   UNL     1       4.030   3.492  11.582  0.00  0.00    +0.000 C 
ENDBRANCH  15  19
ENDBRANCH  14  15
ENDBRANCH  13  14
ENDBRANCH   1  13
TORSDOF 7
ENDMDL
MODEL 8
REMARK VINA RESULT:      -6.2      4.418      7.721
REMARK  Name = 
REMARK  11 active torsions:
REMARK  status: ('A' for Active; 'I' for Inactive)
REMARK    1  A    between atoms: C_1  and  C_2
REMARK    2  A    between atoms: C_3  and  C_4
REMARK    3  A    between atoms: C_3  and  C_5
REMARK    4  A    between atoms: C_5  and  O_7
REMARK    5  A    between atoms: O_7  and  C_8
REMARK    6  A    between atoms: C_8  and  C_9
REMARK    7  A    between atoms: C_10  and  C_11
REMARK    8  A    between atoms: C_14  and  O_15
REMARK    9  A    between atoms: O_15  and  C_16
REMARK   10  A    between atoms: C_17  and  O_18
REMARK   11  A    between atoms: O_18  and  C_19
REMARK                            x       y       z     vdW  Elec       q    Type
REMARK                         _______ _______ _______ _____ _____    ______ ____
ROOT
ATOM      1  C   UNL     1       8.206   8.768  17.628  0.00  0.00    +0.000 C 
ATOM      2  C   UNL     1       8.665   9.096  18.844  0.00  0.00    +0.000 C 
ENDROOT
BRANCH   2   3
ATOM      3  C   UNL     1       9.472  10.289  19.140  0.00  0.00    +0.000 A 
ATOM      4  C   UNL     1       9.509  10.891  20.398  0.00  0.00    +0.000 A 
ATOM      5  C   UNL     1      10.290  12.028  20.608  0.00  0.00    +0.000 A 
ATOM      6  C   UNL     1      11.034  12.602  19.569  0.00  0.00    +0.000 A 
ATOM      7  C   UNL     1      10.989  12.022  18.290  0.00  0.00    +0.000 A 
ATOM      8  C   UNL     1      10.209  10.869  18.096  0.00  0.00    +0.000 A 
BRANCH   6   9
ATOM      9  O   UNL     1      11.731  13.705  19.989  0.00  0.00    +0.000 OA
ATOM     10  C   UNL     1      11.011  14.839  20.445  0.00  0.00    +0.000 C 
ENDBRANCH   6   9
BRANCH   7  11
ATOM     11  O   UNL     1      11.704  12.610  17.281  0.00  0.00    +0.000 OA
ATOM     12  C   UNL     1      11.176  13.776  16.663  0.00  0.00    +0.000 C 
ENDBRANCH   7  11
ENDBRANCH   2   3
BRANCH   1  13
ATOM     13  C   UNL     1       7.344   7.574  17.352  0.00  0.00    +0.000 C 
BRANCH  13  14
ATOM     14  O   UNL     1       7.786   6.463  18.140  0.00  0.00    +0.000 OA
BRANCH  14  15
ATOM     15  C   UNL     1       7.360   5.263  17.686  0.00  0.00    +0.000 C 
ATOM     16  O   UNL     1       8.086   4.404  17.208  0.00  0.00    +0.000 OA
BRANCH  15  19
ATOM     17  C   UNL     1       5.517   5.000  15.329  0.00  0.00    +0.000 C 
ATOM     18  C   UNL     1       5.084   5.011  16.763  0.00  0.00    +0.000 C 
ATOM     19  C   UNL     1       5.879   5.122  17.847  0.00  0.00    +0.000 C 
ATOM     20  C   UNL     1       5.305   5.116  19.236  0.00  0.00    +0.000 C 
ENDBRANCH  15  19
ENDBRANCH  14  15
ENDBRANCH  13  14
ENDBRANCH   1  13
TORSDOF 7
ENDMDL
MODEL 9
REMARK VINA RESULT:      -6.1      2.487      7.252
REMARK  Name = 
REMARK  11 active torsions:
REMARK  status: ('A' for Active; 'I' for Inactive)
REMARK    1  A    between atoms: C_1  and  C_2
REMARK    2  A    between atoms: C_3  and  C_4
REMARK    3  A    between atoms: C_3  and  C_5
REMARK    4  A    between atoms: C_5  and  O_7
REMARK    5  A    between atoms: O_7  and  C_8
REMARK    6  A    between atoms: C_8  and  C_9
REMARK    7  A    between atoms: C_10  and  C_11
REMARK    8  A    between atoms: C_14  and  O_15
REMARK    9  A    between atoms: O_15  and  C_16
REMARK   10  A    between atoms: C_17  and  O_18
REMARK   11  A    between atoms: O_18  and  C_19
REMARK                            x       y       z     vdW  Elec       q    Type
REMARK                         _______ _______ _______ _____ _____    ______ ____
ROOT
ATOM      1  C   UNL     1       5.854   3.832  15.724  0.00  0.00    +0.000 C 
ATOM      2  C   UNL     1       4.836   4.520  16.263  0.00  0.00    +0.000 C 
ENDROOT
BRANCH   2   3
ATOM      3  C   UNL     1       4.253   4.253  17.585  0.00  0.00    +0.000 A 
ATOM      4  C   UNL     1       4.281   2.996  18.191  0.00  0.00    +0.000 A 
ATOM      5  C   UNL     1       3.701   2.811  19.446  0.00  0.00    +0.000 A 
ATOM      6  C   UNL     1       3.063   3.863  20.116  0.00  0.00    +0.000 A 
ATOM      7  C   UNL     1       3.005   5.130  19.510  0.00  0.00    +0.000 A 
ATOM      8  C   UNL     1       3.607   5.306  18.252  0.00  0.00    +0.000 A 
BRANCH   6   9
ATOM      9  O   UNL     1       2.566   3.468  21.332  0.00  0.00    +0.000 OA
ATOM     10  C   UNL     1       1.307   2.815  21.379  0.00  0.00    +0.000 C 
ENDBRANCH   6   9
BRANCH   7  11
ATOM     11  O   UNL     1       2.358   6.140  20.169  0.00  0.00    +0.000 OA
ATOM     12  C   UNL     1       2.204   7.391  19.512  0.00  0.00    +0.000 C 
ENDBRANCH   7  11
ENDBRANCH   2   3
BRANCH   1  13
ATOM     13  C   UNL     1       6.468   4.148  14.395  0.00  0.00    +0.000 C 
BRANCH  13  14
ATOM     14  O   UNL     1       5.584   3.747  13.343  0.00  0.00    +0.000 OA
BRANCH  14  15
ATOM     15  C   UNL     1       6.206   3.480  12.173  0.00  0.00    +0.000 C 
ATOM     16  O   UNL     1       7.207   4.056  11.772  0.00  0.00    +0.000 OA
BRANCH  15  19
ATOM     17  C   UNL     1       3.568   3.907  10.804  0.00  0.00    +0.000 C 
ATOM     18  C   UNL     1       4.323   2.614  10.833  0.00  0.00    +0.000 C 
ATOM     19  C   UNL     1       5.510   2.384  11.431  0.00  0.00    +0.000 C 
ATOM     20  C   UNL     1       6.157   1.029  11.377  0.00  0.00    +0.000 C 
ENDBRANCH  15  19
ENDBRANCH  14  15
ENDBRANCH  13  14
ENDBRANCH   1  13
TORSDOF 7
ENDMDL
