MODEL 1
REMARK VINA RESULT:      -7.2      0.000      0.000
REMARK  Name = 
REMARK  7 active torsions:
REMARK  status: ('A' for Active; 'I' for Inactive)
REMARK    1  A    between atoms: C_1  and  N_2
REMARK    2  A    between atoms: N_5  and  C_6
REMARK    3  A    between atoms: C_6  and  C_7
REMARK    4  A    between atoms: C_7  and  O_8
REMARK    5  A    between atoms: C_7  and  C_9
REMARK    6  A    between atoms: C_9  and  N_10
REMARK    7  A    between atoms: N_13  and  C_14
REMARK                            x       y       z     vdW  Elec       q    Type
REMARK                         _______ _______ _______ _____ _____    ______ ____
ROOT
ATOM      1  N   UNL     1       8.190   7.194  18.517  0.00  0.00    +0.000 N 
ATOM      2  C   UNL     1       8.271   8.549  18.308  0.00  0.00    +0.000 C 
ATOM      3  O   UNL     1       7.682   9.073  17.366  0.00  0.00    +0.000 OA
ATOM      4  N   UNL     1       9.101   9.186  19.200  0.00  0.00    +0.000 N 
ATOM      5  H   UNL     1       8.460   6.800  19.407  0.00  0.00    +0.000 HD
ATOM      6  H   UNL     1       9.630   8.590  19.826  0.00  0.00    +0.000 HD
ENDROOT
BRANCH   4   7
ATOM      7  C   UNL     1       9.469  10.549  19.148  0.00  0.00    +0.000 A 
ATOM      8  C   UNL     1       9.964  11.160  17.991  0.00  0.00    +0.000 A 
ATOM      9  C   UNL     1      10.430  12.476  18.011  0.00  0.00    +0.000 A 
ATOM     10  C   UNL     1      10.383  13.205  19.192  0.00  0.00    +0.000 A 
ATOM     11 CL   UNL     1      11.012  14.803  19.232  0.00  0.00    +0.000 Cl
ATOM     12  C   UNL     1       9.837  12.638  20.342  0.00  0.00    +0.000 A 
ATOM     13  C   UNL     1       9.372  11.315  20.321  0.00  0.00    +0.000 A 
ENDBRANCH   4   7
BRANCH   1  14
ATOM     14  C   UNL     1       7.378   6.360  17.639  0.00  0.00    +0.000 C 
BRANCH  14  15
ATOM     15  C   UNL     1       7.421   4.873  18.023  0.00  0.00    +0.000 C 
BRANCH  15  16
ATOM     16  O   UNL     1       7.890   4.142  16.879  0.00  0.00    +0.000 OA
ATOM     17  H   UNL     1       8.432   4.753  16.349  0.00  0.00    +0.000 HD
ENDBRANCH  15  16
BRANCH  15  18
ATOM     18  C   UNL     1       6.000   4.415  18.466  0.00  0.00    +0.000 C 
BRANCH  18  23
ATOM     19  C   UNL     1       1.469   2.744  18.841  0.00  0.00    +0.000 C 
ATOM     20  N   UNL     1       2.278   3.918  18.529  0.00  0.00    +0.000 NA
ATOM     21  C   UNL     1       3.124   3.686  17.344  0.00  0.00    +0.000 C 
ATOM     22  C   UNL     1       4.047   4.892  17.031  0.00  0.00    +0.000 C 
ATOM     23  N   UNL     1       4.895   5.346  18.159  0.00  0.00    +0.000 NA
ATOM     24  C   UNL     1       4.008   5.534  19.336  0.00  0.00    +0.000 C 
ATOM     25  C   UNL     1       3.107   4.319  19.677  0.00  0.00    +0.000 C 
ENDBRANCH  18  23
ENDBRANCH  15  18
ENDBRANCH  14  15
ENDBRANCH   1  14
TORSDOF 6
ENDMDL
MODEL 2
REMARK VINA RESULT:      -7.2      0.883      1.340
REMARK  Name = 
REMARK  7 active torsions:
REMARK  status: ('A' for Active; 'I' for Inactive)
REMARK    1  A    between atoms: C_1  and  N_2
REMARK    2  A    between atoms: N_5  and  C_6
REMARK    3  A    between atoms: C_6  and  C_7
REMARK    4  A    between atoms: C_7  and  O_8
REMARK    5  A    between atoms: C_7  and  C_9
REMARK    6  A    between atoms: C_9  and  N_10
REMARK    7  A    between atoms: N_13  and  C_14
REMARK                            x       y       z     vdW  Elec       q    Type
REMARK                         _______ _______ _______ _____ _____    ______ ____
ROOT
ATOM      1  N   UNL     1       8.435   7.563  18.752  0.00  0.00    +0.000 N 
ATOM      2  C   UNL     1       8.439   8.907  18.475  0.00  0.00    +0.000 C 
ATOM      3  O   UNL     1       7.708   9.367  17.600  0.00  0.00    +0.000 OA
ATOM      4  N   UNL     1       9.358   9.611  19.215  0.00  0.00    +0.000 N 
ATOM      5  H   UNL     1       8.838   7.220  19.613  0.00  0.00    +0.000 HD
ATOM      6  H   UNL     1       9.989   9.062  19.787  0.00  0.00    +0.000 HD
ENDROOT
BRANCH   4   7
ATOM      7  C   UNL     1       9.667  10.980  19.053  0.00  0.00    +0.000 A 
ATOM      8  C   UNL     1       9.278  11.961  19.972  0.00  0.00    +0.000 A 
ATOM      9  C   UNL     1       9.496  13.317  19.718  0.00  0.00    +0.000 A 
ATOM     10  C   UNL     1      10.129  13.704  18.545  0.00  0.00    +0.000 A 
ATOM     11 CL   UNL     1      10.342  15.375  18.203  0.00  0.00    +0.000 Cl
ATOM     12  C   UNL     1      10.580  12.741  17.643  0.00  0.00    +0.000 A 
ATOM     13  C   UNL     1      10.357  11.381  17.899  0.00  0.00    +0.000 A 
ENDBRANCH   4   7
BRANCH   1  14
ATOM     14  C   UNL     1       7.542   6.664  18.032  0.00  0.00    +0.000 C 
BRANCH  14  15
ATOM     15  C   UNL     1       7.206   5.393  18.829  0.00  0.00    +0.000 C 
BRANCH  15  16
ATOM     16  O   UNL     1       7.851   4.288  18.176  0.00  0.00    +0.000 OA
ATOM     17  H   UNL     1       7.236   3.535  18.207  0.00  0.00    +0.000 HD
ENDBRANCH  15  16
BRANCH  15  18
ATOM     18  C   UNL     1       5.660   5.215  18.886  0.00  0.00    +0.000 C 
BRANCH  18  23
ATOM     19  C   UNL     1       1.257   3.260  18.380  0.00  0.00    +0.000 C 
ATOM     20  N   UNL     1       2.262   4.102  17.738  0.00  0.00    +0.000 NA
ATOM     21  C   UNL     1       3.507   3.353  17.487  0.00  0.00    +0.000 C 
ATOM     22  C   UNL     1       4.618   4.242  16.870  0.00  0.00    +0.000 C 
ATOM     23  N   UNL     1       4.931   5.476  17.629  0.00  0.00    +0.000 NA
ATOM     24  C   UNL     1       3.648   6.179  17.887  0.00  0.00    +0.000 C 
ATOM     25  C   UNL     1       2.543   5.306  18.537  0.00  0.00    +0.000 C 
ENDBRANCH  18  23
ENDBRANCH  15  18
ENDBRANCH  14  15
ENDBRANCH   1  14
TORSDOF 6
ENDMDL
MODEL 3
REMARK VINA RESULT:      -7.2      4.141      6.919
REMARK  Name = 
REMARK  7 active torsions:
REMARK  status: ('A' for Active; 'I' for Inactive)
REMARK    1  A    between atoms: C_1  and  N_2
REMARK    2  A    between atoms: N_5  and  C_6
REMARK    3  A    between atoms: C_6  and  C_7
REMARK    4  A    between atoms: C_7  and  O_8
REMARK    5  A    between atoms: C_7  and  C_9
REMARK    6  A    between atoms: C_9  and  N_10
REMARK    7  A    between atoms: N_13  and  C_14
REMARK                            x       y       z     vdW  Elec       q    Type
REMARK                         _______ _______ _______ _____ _____    ______ ____
ROOT
ATOM      1  N   UNL     1       3.114   4.765  20.469  0.00  0.00    +0.000 N 
ATOM      2  C   UNL     1       2.291   5.678  19.859  0.00  0.00    +0.000 C 
ATOM      3  O   UNL     1       1.589   5.349  18.906  0.00  0.00    +0.000 OA
ATOM      4  N   UNL     1       2.401   6.944  20.384  0.00  0.00    +0.000 N 
ATOM      5  H   UNL     1       3.498   4.957  21.384  0.00  0.00    +0.000 HD
ATOM      6  H   UNL     1       3.134   7.083  21.070  0.00  0.00    +0.000 HD
ENDROOT
BRANCH   4   7
ATOM      7  C   UNL     1       1.770   8.101  19.876  0.00  0.00    +0.000 A 
ATOM      8  C   UNL     1       1.973   8.568  18.573  0.00  0.00    +0.000 A 
ATOM      9  C   UNL     1       1.428   9.781  18.146  0.00  0.00    +0.000 A 
ATOM     10  C   UNL     1       0.649  10.529  19.018  0.00  0.00    +0.000 A 
ATOM     11 CL   UNL     1       0.028  12.050  18.513  0.00  0.00    +0.000 Cl
ATOM     12  C   UNL     1       0.382  10.055  20.301  0.00  0.00    +0.000 A 
ATOM     13  C   UNL     1       0.934   8.838  20.729  0.00  0.00    +0.000 A 
ENDBRANCH   4   7
BRANCH   1  14
ATOM     14  C   UNL     1       3.147   3.381  20.012  0.00  0.00    +0.000 C 
BRANCH  14  15
ATOM     15  C   UNL     1       4.396   3.058  19.177  0.00  0.00    +0.000 C 
BRANCH  15  16
ATOM     16  O   UNL     1       5.222   2.176  19.954  0.00  0.00    +0.000 OA
ATOM     17  H   UNL     1       4.757   1.324  20.015  0.00  0.00    +0.000 HD
ENDBRANCH  15  16
BRANCH  15  18
ATOM     18  C   UNL     1       5.131   4.383  18.819  0.00  0.00    +0.000 C 
BRANCH  18  23
ATOM     19  C   UNL     1       7.582   8.392  17.642  0.00  0.00    +0.000 C 
ATOM     20  N   UNL     1       7.250   7.036  17.215  0.00  0.00    +0.000 NA
ATOM     21  C   UNL     1       5.800   6.886  16.989  0.00  0.00    +0.000 C 
ATOM     22  C   UNL     1       5.409   5.437  16.602  0.00  0.00    +0.000 C 
ATOM     23  N   UNL     1       5.872   4.387  17.541  0.00  0.00    +0.000 NA
ATOM     24  C   UNL     1       7.326   4.598  17.764  0.00  0.00    +0.000 C 
ATOM     25  C   UNL     1       7.721   6.036  18.186  0.00  0.00    +0.000 C 
ENDBRANCH  18  23
ENDBRANCH  15  18
ENDBRANCH  14  15
ENDBRANCH   1  14
TORSDOF 6
ENDMDL
MODEL 4
REMARK VINA RESULT:      -7.1      4.333      7.056
REMARK  Name = 
REMARK  7 active torsions:
REMARK  status: ('A' for Active; 'I' for Inactive)
REMARK    1  A    between atoms: C_1  and  N_2
REMARK    2  A    between atoms: N_5  and  C_6
REMARK    3  A    between atoms: C_6  and  C_7
REMARK    4  A    between atoms: C_7  and  O_8
REMARK    5  A    between atoms: C_7  and  C_9
REMARK    6  A    between atoms: C_9  and  N_10
REMARK    7  A    between atoms: N_13  and  C_14
REMARK                            x       y       z     vdW  Elec       q    Type
REMARK                         _______ _______ _______ _____ _____    ______ ____
ROOT
ATOM      1  N   UNL     1       3.061   4.461  20.225  0.00  0.00    +0.000 N 
ATOM      2  C   UNL     1       2.257   5.454  19.722  0.00  0.00    +0.000 C 
ATOM      3  O   UNL     1       1.518   5.236  18.765  0.00  0.00    +0.000 OA
ATOM      4  N   UNL     1       2.432   6.664  20.351  0.00  0.00    +0.000 N 
ATOM      5  H   UNL     1       3.477   4.558  21.140  0.00  0.00    +0.000 HD
ATOM      6  H   UNL     1       3.188   6.716  21.023  0.00  0.00    +0.000 HD
ENDROOT
BRANCH   4   7
ATOM      7  C   UNL     1       1.832   7.884  19.965  0.00  0.00    +0.000 A 
ATOM      8  C   UNL     1       0.975   8.608  20.801  0.00  0.00    +0.000 A 
ATOM      9  C   UNL     1       0.307   9.745  20.341  0.00  0.00    +0.000 A 
ATOM     10  C   UNL     1       0.511  10.183  19.039  0.00  0.00    +0.000 A 
ATOM     11 CL   UNL     1      -0.357  11.546  18.454  0.00  0.00    +0.000 Cl
ATOM     12  C   UNL     1       1.408   9.513  18.208  0.00  0.00    +0.000 A 
ATOM     13  C   UNL     1       2.075   8.370  18.671  0.00  0.00    +0.000 A 
ENDBRANCH   4   7
BRANCH   1  14
ATOM     14  C   UNL     1       3.027   3.123  19.648  0.00  0.00    +0.000 C 
BRANCH  14  15
ATOM     15  C   UNL     1       4.369   2.708  19.024  0.00  0.00    +0.000 C 
BRANCH  15  16
ATOM     16  O   UNL     1       5.047   1.866  19.970  0.00  0.00    +0.000 OA
ATOM     17  H   UNL     1       5.867   1.559  19.547  0.00  0.00    +0.000 HD
ENDBRANCH  15  16
BRANCH  15  18
ATOM     18  C   UNL     1       5.193   3.984  18.682  0.00  0.00    +0.000 C 
BRANCH  18  23
ATOM     19  C   UNL     1       7.481   8.082  17.482  0.00  0.00    +0.000 C 
ATOM     20  N   UNL     1       6.814   6.896  16.951  0.00  0.00    +0.000 NA
ATOM     21  C   UNL     1       5.395   6.856  17.351  0.00  0.00    +0.000 C 
ATOM     22  C   UNL     1       4.679   5.571  16.861  0.00  0.00    +0.000 C 
ATOM     23  N   UNL     1       5.334   4.299  17.246  0.00  0.00    +0.000 NA
ATOM     24  C   UNL     1       6.764   4.398  16.856  0.00  0.00    +0.000 C 
ATOM     25  C   UNL     1       7.497   5.662  17.372  0.00  0.00    +0.000 C 
ENDBRANCH  18  23
ENDBRANCH  15  18
ENDBRANCH  14  15
ENDBRANCH   1  14
TORSDOF 6
ENDMDL
MODEL 5
REMARK VINA RESULT:      -7.1      0.561      1.170
REMARK  Name = 
REMARK  7 active torsions:
REMARK  status: ('A' for Active; 'I' for Inactive)
REMARK    1  A    between atoms: C_1  and  N_2
REMARK    2  A    between atoms: N_5  and  C_6
REMARK    3  A    between atoms: C_6  and  C_7
REMARK    4  A    between atoms: C_7  and  O_8
REMARK    5  A    between atoms: C_7  and  C_9
REMARK    6  A    between atoms: C_9  and  N_10
REMARK    7  A    between atoms: N_13  and  C_14
REMARK                            x       y       z     vdW  Elec       q    Type
REMARK                         _______ _______ _______ _____ _____    ______ ____
ROOT
ATOM      1  N   UNL     1       8.087   7.112  18.382  0.00  0.00    +0.000 N 
ATOM      2  C   UNL     1       8.200   8.474  18.260  0.00  0.00    +0.000 C 
ATOM      3  O   UNL     1       7.649   9.067  17.335  0.00  0.00    +0.000 OA
ATOM      4  N   UNL     1       9.015   9.038  19.212  0.00  0.00    +0.000 N 
ATOM      5  H   UNL     1       8.323   6.658  19.254  0.00  0.00    +0.000 HD
ATOM      6  H   UNL     1       9.514   8.395  19.815  0.00  0.00    +0.000 HD
ENDROOT
BRANCH   4   7
ATOM      7  C   UNL     1       9.410  10.394  19.256  0.00  0.00    +0.000 A 
ATOM      8  C   UNL     1       9.369  11.161  20.426  0.00  0.00    +0.000 A 
ATOM      9  C   UNL     1       9.652  12.529  20.404  0.00  0.00    +0.000 A 
ATOM     10  C   UNL     1      10.003  13.139  19.207  0.00  0.00    +0.000 A 
ATOM     11 CL   UNL     1      10.291  14.833  19.169  0.00  0.00    +0.000 Cl
ATOM     12  C   UNL     1      10.109  12.384  18.041  0.00  0.00    +0.000 A 
ATOM     13  C   UNL     1       9.822  11.011  18.064  0.00  0.00    +0.000 A 
ENDBRANCH   4   7
BRANCH   1  14
ATOM     14  C   UNL     1       7.286   6.350  17.431  0.00  0.00    +0.000 C 
BRANCH  14  15
ATOM     15  C   UNL     1       7.107   4.881  17.845  0.00  0.00    +0.000 C 
BRANCH  15  16
ATOM     16  O   UNL     1       8.048   4.099  17.091  0.00  0.00    +0.000 OA
ATOM     17  H   UNL     1       8.938   4.334  17.408  0.00  0.00    +0.000 HD
ENDBRANCH  15  16
BRANCH  15  18
ATOM     18  C   UNL     1       5.637   4.445  17.575  0.00  0.00    +0.000 C 
BRANCH  18  23
ATOM     19  C   UNL     1       1.687   2.096  19.106  0.00  0.00    +0.000 C 
ATOM     20  N   UNL     1       2.347   3.398  19.050  0.00  0.00    +0.000 NA
ATOM     21  C   UNL     1       2.523   3.850  17.658  0.00  0.00    +0.000 C 
ATOM     22  C   UNL     1       3.285   5.197  17.566  0.00  0.00    +0.000 C 
ATOM     23  N   UNL     1       4.592   5.230  18.263  0.00  0.00    +0.000 NA
ATOM     24  C   UNL     1       4.373   4.736  19.647  0.00  0.00    +0.000 C 
ATOM     25  C   UNL     1       3.643   3.372  19.747  0.00  0.00    +0.000 C 
ENDBRANCH  18  23
ENDBRANCH  15  18
ENDBRANCH  14  15
ENDBRANCH   1  14
TORSDOF 6
ENDMDL
MODEL 6
REMARK VINA RESULT:      -7.1      0.901      1.336
REMARK  Name = 
REMARK  7 active torsions:
REMARK  status: ('A' for Active; 'I' for Inactive)
REMARK    1  A    between atoms: C_1  and  N_2
REMARK    2  A    between atoms: N_5  and  C_6
REMARK    3  A    between atoms: C_6  and  C_7
REMARK    4  A    between atoms: C_7  and  O_8
REMARK    5  A    between atoms: C_7  and  C_9
REMARK    6  A    between atoms: C_9  and  N_10
REMARK    7  A    between atoms: N_13  and  C_14
REMARK                            x       y       z     vdW  Elec       q    Type
REMARK                         _______ _______ _______ _____ _____    ______ ____
ROOT
ATOM      1  N   UNL     1       8.145   7.275  18.467  0.00  0.00    +0.000 N 
ATOM      2  C   UNL     1       8.230   8.641  18.369  0.00  0.00    +0.000 C 
ATOM      3  O   UNL     1       7.548   9.253  17.550  0.00  0.00    +0.000 OA
ATOM      4  N   UNL     1       9.168   9.188  19.210  0.00  0.00    +0.000 N 
ATOM      5  H   UNL     1       8.506   6.800  19.282  0.00  0.00    +0.000 HD
ATOM      6  H   UNL     1       9.753   8.534  19.717  0.00  0.00    +0.000 HD
ENDROOT
BRANCH   4   7
ATOM      7  C   UNL     1       9.556  10.547  19.236  0.00  0.00    +0.000 A 
ATOM      8  C   UNL     1      10.051  11.218  18.112  0.00  0.00    +0.000 A 
ATOM      9  C   UNL     1      10.537  12.523  18.205  0.00  0.00    +0.000 A 
ATOM     10  C   UNL     1      10.509  13.182  19.427  0.00  0.00    +0.000 A 
ATOM     11 CL   UNL     1      11.162  14.766  19.555  0.00  0.00    +0.000 Cl
ATOM     12  C   UNL     1       9.964  12.556  20.547  0.00  0.00    +0.000 A 
ATOM     13  C   UNL     1       9.480  11.243  20.452  0.00  0.00    +0.000 A 
ENDBRANCH   4   7
BRANCH   1  14
ATOM     14  C   UNL     1       7.221   6.531  17.619  0.00  0.00    +0.000 C 
BRANCH  14  15
ATOM     15  C   UNL     1       6.668   5.270  18.303  0.00  0.00    +0.000 C 
BRANCH  15  16
ATOM     16  O   UNL     1       7.436   4.150  17.835  0.00  0.00    +0.000 OA
ATOM     17  H   UNL     1       6.919   3.718  17.133  0.00  0.00    +0.000 HD
ENDBRANCH  15  16
BRANCH  15  18
ATOM     18  C   UNL     1       5.156   5.123  17.965  0.00  0.00    +0.000 C 
BRANCH  18  23
ATOM     19  C   UNL     1       0.965   4.169  20.200  0.00  0.00    +0.000 C 
ATOM     20  N   UNL     1       2.035   3.595  19.389  0.00  0.00    +0.000 NA
ATOM     21  C   UNL     1       3.329   3.645  20.095  0.00  0.00    +0.000 C 
ATOM     22  C   UNL     1       4.497   3.107  19.229  0.00  0.00    +0.000 C 
ATOM     23  N   UNL     1       4.638   3.742  17.897  0.00  0.00    +0.000 NA
ATOM     24  C   UNL     1       3.307   3.698  17.239  0.00  0.00    +0.000 C 
ATOM     25  C   UNL     1       2.139   4.268  18.084  0.00  0.00    +0.000 C 
ENDBRANCH  18  23
ENDBRANCH  15  18
ENDBRANCH  14  15
ENDBRANCH   1  14
TORSDOF 6
ENDMDL
MODEL 7
REMARK VINA RESULT:      -7.0      5.583      6.801
REMARK  Name = 
REMARK  7 active torsions:
REMARK  status: ('A' for Active; 'I' for Inactive)
REMARK    1  A    between atoms: C_1  and  N_2
REMARK    2  A    between atoms: N_5  and  C_6
REMARK    3  A    between atoms: C_6  and  C_7
REMARK    4  A    between atoms: C_7  and  O_8
REMARK    5  A    between atoms: C_7  and  C_9
REMARK    6  A    between atoms: C_9  and  N_10
REMARK    7  A    between atoms: N_13  and  C_14
REMARK                            x       y       z     vdW  Elec       q    Type
REMARK                         _______ _______ _______ _____ _____    ______ ____
ROOT
ATOM      1  N   UNL     1       2.977   4.308  20.138  0.00  0.00    +0.000 N 
ATOM      2  C   UNL     1       2.226   5.326  19.605  0.00  0.00    +0.000 C 
ATOM      3  O   UNL     1       1.478   5.120  18.653  0.00  0.00    +0.000 OA
ATOM      4  N   UNL     1       2.461   6.542  20.202  0.00  0.00    +0.000 N 
ATOM      5  H   UNL     1       3.395   4.408  21.052  0.00  0.00    +0.000 HD
ATOM      6  H   UNL     1       3.218   6.573  20.875  0.00  0.00    +0.000 HD
ENDROOT
BRANCH   4   7
ATOM      7  C   UNL     1       1.926   7.780  19.780  0.00  0.00    +0.000 A 
ATOM      8  C   UNL     1       2.129   8.299  18.497  0.00  0.00    +0.000 A 
ATOM      9  C   UNL     1       1.687   9.579  18.157  0.00  0.00    +0.000 A 
ATOM     10  C   UNL     1       1.013  10.347  19.097  0.00  0.00    +0.000 A 
ATOM     11 CL   UNL     1       0.523  11.945  18.698  0.00  0.00    +0.000 Cl
ATOM     12  C   UNL     1       0.745   9.827  20.362  0.00  0.00    +0.000 A 
ATOM     13  C   UNL     1       1.193   8.543  20.703  0.00  0.00    +0.000 A 
ENDBRANCH   4   7
BRANCH   1  14
ATOM     14  C   UNL     1       2.875   2.957  19.598  0.00  0.00    +0.000 C 
BRANCH  14  15
ATOM     15  C   UNL     1       4.176   2.482  18.932  0.00  0.00    +0.000 C 
BRANCH  15  16
ATOM     16  O   UNL     1       5.228   2.596  19.903  0.00  0.00    +0.000 OA
ATOM     17  H   UNL     1       4.871   2.281  20.753  0.00  0.00    +0.000 HD
ENDBRANCH  15  16
BRANCH  15  18
ATOM     18  C   UNL     1       4.452   3.348  17.668  0.00  0.00    +0.000 C 
BRANCH  18  23
ATOM     19  C   UNL     1       7.253   5.149  14.150  0.00  0.00    +0.000 C 
ATOM     20  N   UNL     1       6.720   5.397  15.486  0.00  0.00    +0.000 NA
ATOM     21  C   UNL     1       7.191   4.383  16.447  0.00  0.00    +0.000 C 
ATOM     22  C   UNL     1       6.583   4.581  17.860  0.00  0.00    +0.000 C 
ATOM     23  N   UNL     1       5.103   4.652  17.905  0.00  0.00    +0.000 NA
ATOM     24  C   UNL     1       4.674   5.658  16.900  0.00  0.00    +0.000 C 
ATOM     25  C   UNL     1       5.249   5.447  15.476  0.00  0.00    +0.000 C 
ENDBRANCH  18  23
ENDBRANCH  15  18
ENDBRANCH  14  15
ENDBRANCH   1  14
TORSDOF 6
ENDMDL
MODEL 8
REMARK VINA RESULT:      -7.0      1.296      1.393
REMARK  Name = 
REMARK  7 active torsions:
REMARK  status: ('A' for Active; 'I' for Inactive)
REMARK    1  A    between atoms: C_1  and  N_2
REMARK    2  A    between atoms: N_5  and  C_6
REMARK    3  A    between atoms: C_6  and  C_7
REMARK    4  A    between atoms: C_7  and  O_8
REMARK    5  A    between atoms: C_7  and  C_9
REMARK    6  A    between atoms: C_9  and  N_10
REMARK    7  A    between atoms: N_13  and  C_14
REMARK                            x       y       z     vdW  Elec       q    Type
REMARK                         _______ _______ _______ _____ _____    ______ ____
ROOT
ATOM      1  N   UNL     1       8.385   7.388  18.860  0.00  0.00    +0.000 N 
ATOM      2  C   UNL     1       8.436   8.659  18.344  0.00  0.00    +0.000 C 
ATOM      3  O   UNL     1       7.849   8.934  17.299  0.00  0.00    +0.000 OA
ATOM      4  N   UNL     1       9.234   9.508  19.072  0.00  0.00    +0.000 N 
ATOM      5  H   UNL     1       8.649   7.218  19.820  0.00  0.00    +0.000 HD
ATOM      6  H   UNL     1       9.768   9.088  19.824  0.00  0.00    +0.000 HD
ENDROOT
BRANCH   4   7
ATOM      7  C   UNL     1       9.568  10.832  18.710  0.00  0.00    +0.000 A 
ATOM      8  C   UNL     1       8.683  11.685  18.041  0.00  0.00    +0.000 A 
ATOM      9  C   UNL     1       9.090  12.943  17.593  0.00  0.00    +0.000 A 
ATOM     10  C   UNL     1      10.389  13.371  17.832  0.00  0.00    +0.000 A 
ATOM     11 CL   UNL     1      10.908  14.894  17.227  0.00  0.00    +0.000 Cl
ATOM     12  C   UNL     1      11.271  12.564  18.549  0.00  0.00    +0.000 A 
ATOM     13  C   UNL     1      10.860  11.300  18.996  0.00  0.00    +0.000 A 
ENDBRANCH   4   7
BRANCH   1  14
ATOM     14  C   UNL     1       7.609   6.351  18.191  0.00  0.00    +0.000 C 
BRANCH  14  15
ATOM     15  C   UNL     1       6.637   5.628  19.138  0.00  0.00    +0.000 C 
BRANCH  15  16
ATOM     16  O   UNL     1       7.400   5.148  20.257  0.00  0.00    +0.000 OA
ATOM     17  H   UNL     1       7.436   4.178  20.186  0.00  0.00    +0.000 HD
ENDBRANCH  15  16
BRANCH  15  18
ATOM     18  C   UNL     1       5.935   4.471  18.370  0.00  0.00    +0.000 C 
BRANCH  18  23
ATOM     19  C   UNL     1       1.883   2.531  20.182  0.00  0.00    +0.000 C 
ATOM     20  N   UNL     1       2.416   3.419  19.153  0.00  0.00    +0.000 NA
ATOM     21  C   UNL     1       3.310   2.695  18.231  0.00  0.00    +0.000 C 
ATOM     22  C   UNL     1       3.948   3.628  17.170  0.00  0.00    +0.000 C 
ATOM     23  N   UNL     1       4.656   4.811  17.715  0.00  0.00    +0.000 NA
ATOM     24  C   UNL     1       3.731   5.488  18.660  0.00  0.00    +0.000 C 
ATOM     25  C   UNL     1       3.117   4.569  19.747  0.00  0.00    +0.000 C 
ENDBRANCH  18  23
ENDBRANCH  15  18
ENDBRANCH  14  15
ENDBRANCH   1  14
TORSDOF 6
ENDMDL
MODEL 9
REMARK VINA RESULT:      -7.0      1.038      1.624
REMARK  Name = 
REMARK  7 active torsions:
REMARK  status: ('A' for Active; 'I' for Inactive)
REMARK    1  A    between atoms: C_1  and  N_2
REMARK    2  A    between atoms: N_5  and  C_6
REMARK    3  A    between atoms: C_6  and  C_7
REMARK    4  A    between atoms: C_7  and  O_8
REMARK    5  A    between atoms: C_7  and  C_9
REMARK    6  A    between atoms: C_9  and  N_10
REMARK    7  A    between atoms: N_13  and  C_14
REMARK                            x       y       z     vdW  Elec       q    Type
REMARK                         _______ _______ _______ _____ _____    ______ ____
ROOT
ATOM      1  N   UNL     1       7.938   7.151  18.048  0.00  0.00    +0.000 N 
ATOM      2  C   UNL     1       8.054   8.516  18.131  0.00  0.00    +0.000 C 
ATOM      3  O   UNL     1       7.374   9.246  17.413  0.00  0.00    +0.000 OA
ATOM      4  N   UNL     1       9.019   8.926  19.019  0.00  0.00    +0.000 N 
ATOM      5  H   UNL     1       8.301   6.564  18.787  0.00  0.00    +0.000 HD
ATOM      6  H   UNL     1       9.596   8.198  19.423  0.00  0.00    +0.000 HD
ENDROOT
BRANCH   4   7
ATOM      7  C   UNL     1       9.440  10.261  19.217  0.00  0.00    +0.000 A 
ATOM      8  C   UNL     1       9.974  11.049  18.192  0.00  0.00    +0.000 A 
ATOM      9  C   UNL     1      10.490  12.321  18.453  0.00  0.00    +0.000 A 
ATOM     10  C   UNL     1      10.453  12.826  19.745  0.00  0.00    +0.000 A 
ATOM     11 CL   UNL     1      11.143  14.365  20.077  0.00  0.00    +0.000 Cl
ATOM     12  C   UNL     1       9.870  12.084  20.771  0.00  0.00    +0.000 A 
ATOM     13  C   UNL     1       9.355  10.806  20.508  0.00  0.00    +0.000 A 
ENDBRANCH   4   7
BRANCH   1  14
ATOM     14  C   UNL     1       6.984   6.546  17.127  0.00  0.00    +0.000 C 
BRANCH  14  15
ATOM     15  C   UNL     1       6.861   5.025  17.310  0.00  0.00    +0.000 C 
BRANCH  15  16
ATOM     16  O   UNL     1       7.977   4.416  16.642  0.00  0.00    +0.000 OA
ATOM     17  H   UNL     1       8.778   4.659  17.138  0.00  0.00    +0.000 HD
ENDBRANCH  15  16
BRANCH  15  18
ATOM     18  C   UNL     1       5.498   4.546  16.729  0.00  0.00    +0.000 C 
BRANCH  18  23
ATOM     19  C   UNL     1       2.375   6.723  19.723  0.00  0.00    +0.000 C 
ATOM     20  N   UNL     1       2.887   5.430  19.278  0.00  0.00    +0.000 NA
ATOM     21  C   UNL     1       4.323   5.290  19.579  0.00  0.00    +0.000 C 
ATOM     22  C   UNL     1       4.910   3.954  19.053  0.00  0.00    +0.000 C 
ATOM     23  N   UNL     1       4.682   3.690  17.613  0.00  0.00    +0.000 NA
ATOM     24  C   UNL     1       3.232   3.875  17.350  0.00  0.00    +0.000 C 
ATOM     25  C   UNL     1       2.644   5.223  17.841  0.00  0.00    +0.000 C 
ENDBRANCH  18  23
ENDBRANCH  15  18
ENDBRANCH  14  15
ENDBRANCH   1  14
TORSDOF 6
ENDMDL
