MODEL 1
REMARK VINA RESULT:      -6.8      0.000      0.000
REMARK  Name = 
REMARK  16 active torsions:
REMARK  status: ('A' for Active; 'I' for Inactive)
REMARK    1  A    between atoms: C_1  and  C_2
REMARK    2  A    between atoms: C_2  and  C_3
REMARK    3  A    between atoms: C_3  and  C_4
REMARK    4  A    between atoms: C_3  and  C_6
REMARK    5  A    between atoms: C_4  and  C_5
REMARK    6  A    between atoms: N_8  and  C_9
REMARK    7  A    between atoms: C_12  and  O_13
REMARK    8  A    between atoms: O_13  and  C_14
REMARK    9  A    between atoms: C_14  and  C_15
REMARK   10  A    between atoms: C_15  and  O_17
REMARK   11  A    between atoms: C_18  and  N_19
REMARK   12  A    between atoms: C_20  and  C_22
REMARK   13  A    between atoms: C_22  and  C_23
REMARK   14  A    between atoms: C_22  and  C_25
REMARK   15  A    between atoms: C_23  and  C_24
REMARK   16  A    between atoms: C_25  and  C_26
REMARK                            x       y       z     vdW  Elec       q    Type
REMARK                         _______ _______ _______ _____ _____    ______ ____
ROOT
ATOM      1  C   UNL     1       2.032   6.504  20.283  0.00  0.00    +0.000 A 
ATOM      2  C   UNL     1       1.148   5.433  20.250  0.00  0.00    +0.000 A 
ATOM      3  C   UNL     1       1.453   4.275  19.548  0.00  0.00    +0.000 A 
ATOM      4  C   UNL     1       2.663   4.144  18.863  0.00  0.00    +0.000 A 
ATOM      5  C   UNL     1       3.531   5.254  18.769  0.00  0.00    +0.000 A 
ATOM      6  C   UNL     1       3.191   6.432  19.493  0.00  0.00    +0.000 A 
ENDROOT
BRANCH   1   9
ATOM      7  C   UNL     1       1.184   8.812  20.591  0.00  0.00    +0.000 C 
ATOM      8  O   UNL     1       0.712   8.933  19.463  0.00  0.00    +0.000 OA
ATOM      9  N   UNL     1       1.770   7.648  21.084  0.00  0.00    +0.000 N 
ATOM     10  H   UNL     1       1.892   7.564  22.083  0.00  0.00    +0.000 HD
BRANCH   7  11
ATOM     11  C   UNL     1       1.075   9.969  21.586  0.00  0.00    +0.000 C 
BRANCH  11  13
ATOM     12  C   UNL     1       1.341  12.442  20.845  0.00  0.00    +0.000 C 
ATOM     13  C   UNL     1       0.485  11.187  20.836  0.00  0.00    +0.000 C 
ENDBRANCH  11  13
BRANCH  11  14
ATOM     14  C   UNL     1       0.275   9.538  22.831  0.00  0.00    +0.000 C 
ATOM     15  C   UNL     1      -0.914  10.435  23.167  0.00  0.00    +0.000 C 
ENDBRANCH  11  14
ENDBRANCH   7  11
ENDBRANCH   1   9
BRANCH   5  16
ATOM     16  N   UNL     1       4.753   5.309  18.029  0.00  0.00    +0.000 N 
ATOM     17  C   UNL     1       6.041   4.940  18.405  0.00  0.00    +0.000 C 
ATOM     18  O   UNL     1       6.411   4.532  19.507  0.00  0.00    +0.000 OA
ATOM     19  H   UNL     1       4.651   5.599  17.063  0.00  0.00    +0.000 HD
BRANCH  17  20
ATOM     20  C   UNL     1       7.072   5.111  17.275  0.00  0.00    +0.000 C 
BRANCH  20  21
ATOM     21  C   UNL     1       6.694   4.229  16.067  0.00  0.00    +0.000 C 
ATOM     22  C   UNL     1       6.962   4.861  14.711  0.00  0.00    +0.000 C 
ENDBRANCH  20  21
BRANCH  20  23
ATOM     23  C   UNL     1       7.117   6.582  16.801  0.00  0.00    +0.000 C 
ATOM     24  C   UNL     1       7.790   7.520  17.794  0.00  0.00    +0.000 C 
ENDBRANCH  20  23
ENDBRANCH  17  20
ENDBRANCH   5  16
BRANCH   4  25
ATOM     25  O   UNL     1       3.019   2.949  18.309  0.00  0.00    +0.000 OA
BRANCH  25  26
ATOM     26  C   UNL     1       3.011   1.805  19.160  0.00  0.00    +0.000 C 
BRANCH  26  27
ATOM     27  C   UNL     1       4.018   1.958  20.280  0.00  0.00    +0.000 C 
ATOM     28  O   UNL     1       3.702   2.147  21.446  0.00  0.00    +0.000 OA
BRANCH  27  29
ATOM     29  O   UNL     1       5.303   1.846  19.884  0.00  0.00    +0.000 OA
ATOM     30  H   UNL     1       5.936   2.146  20.590  0.00  0.00    +0.000 HD
ENDBRANCH  27  29
ENDBRANCH  26  27
ENDBRANCH  25  26
ENDBRANCH   4  25
TORSDOF 12
ENDMDL
MODEL 2
REMARK VINA RESULT:      -6.4      1.866      2.284
REMARK  Name = 
REMARK  16 active torsions:
REMARK  status: ('A' for Active; 'I' for Inactive)
REMARK    1  A    between atoms: C_1  and  C_2
REMARK    2  A    between atoms: C_2  and  C_3
REMARK    3  A    between atoms: C_3  and  C_4
REMARK    4  A    between atoms: C_3  and  C_6
REMARK    5  A    between atoms: C_4  and  C_5
REMARK    6  A    between atoms: N_8  and  C_9
REMARK    7  A    between atoms: C_12  and  O_13
REMARK    8  A    between atoms: O_13  and  C_14
REMARK    9  A    between atoms: C_14  and  C_15
REMARK   10  A    between atoms: C_15  and  O_17
REMARK   11  A    between atoms: C_18  and  N_19
REMARK   12  A    between atoms: C_20  and  C_22
REMARK   13  A    between atoms: C_22  and  C_23
REMARK   14  A    between atoms: C_22  and  C_25
REMARK   15  A    between atoms: C_23  and  C_24
REMARK   16  A    between atoms: C_25  and  C_26
REMARK                            x       y       z     vdW  Elec       q    Type
REMARK                         _______ _______ _______ _____ _____    ______ ____
ROOT
ATOM      1  C   UNL     1       1.999   7.437  19.927  0.00  0.00    +0.000 A 
ATOM      2  C   UNL     1       1.229   6.507  20.614  0.00  0.00    +0.000 A 
ATOM      3  C   UNL     1       1.605   5.171  20.673  0.00  0.00    +0.000 A 
ATOM      4  C   UNL     1       2.774   4.722  20.056  0.00  0.00    +0.000 A 
ATOM      5  C   UNL     1       3.515   5.609  19.245  0.00  0.00    +0.000 A 
ATOM      6  C   UNL     1       3.105   6.972  19.196  0.00  0.00    +0.000 A 
ENDROOT
BRANCH   1   9
ATOM      7  C   UNL     1       1.316   9.543  18.817  0.00  0.00    +0.000 C 
ATOM      8  O   UNL     1       1.110   9.051  17.710  0.00  0.00    +0.000 OA
ATOM      9  N   UNL     1       1.675   8.820  19.952  0.00  0.00    +0.000 N 
ATOM     10  H   UNL     1       1.571   9.266  20.852  0.00  0.00    +0.000 HD
BRANCH   7  11
ATOM     11  C   UNL     1       1.100  11.043  19.031  0.00  0.00    +0.000 C 
BRANCH  11  13
ATOM     12  C   UNL     1       2.424  13.234  18.604  0.00  0.00    +0.000 C 
ATOM     13  C   UNL     1       2.151  11.800  18.185  0.00  0.00    +0.000 C 
ENDBRANCH  11  13
BRANCH  11  14
ATOM     14  C   UNL     1      -0.361  11.428  18.726  0.00  0.00    +0.000 C 
ATOM     15  C   UNL     1      -1.197  11.783  19.952  0.00  0.00    +0.000 C 
ENDBRANCH  11  14
ENDBRANCH   7  11
ENDBRANCH   1   9
BRANCH   5  16
ATOM     16  N   UNL     1       4.674   5.280  18.474  0.00  0.00    +0.000 N 
ATOM     17  C   UNL     1       4.795   4.476  17.345  0.00  0.00    +0.000 C 
ATOM     18  O   UNL     1       3.910   3.817  16.796  0.00  0.00    +0.000 OA
ATOM     19  H   UNL     1       5.521   5.758  18.757  0.00  0.00    +0.000 HD
BRANCH  17  20
ATOM     20  C   UNL     1       6.229   4.431  16.787  0.00  0.00    +0.000 C 
BRANCH  20  21
ATOM     21  C   UNL     1       6.275   5.057  15.379  0.00  0.00    +0.000 C 
ATOM     22  C   UNL     1       6.294   4.052  14.238  0.00  0.00    +0.000 C 
ENDBRANCH  20  21
BRANCH  20  23
ATOM     23  C   UNL     1       7.190   5.227  17.700  0.00  0.00    +0.000 C 
ATOM     24  C   UNL     1       7.438   6.652  17.226  0.00  0.00    +0.000 C 
ENDBRANCH  20  23
ENDBRANCH  17  20
ENDBRANCH   5  16
BRANCH   4  25
ATOM     25  O   UNL     1       3.213   3.445  20.250  0.00  0.00    +0.000 OA
BRANCH  25  26
ATOM     26  C   UNL     1       2.231   2.411  20.266  0.00  0.00    +0.000 C 
BRANCH  26  27
ATOM     27  C   UNL     1       1.785   2.068  18.862  0.00  0.00    +0.000 C 
ATOM     28  O   UNL     1       0.679   2.350  18.421  0.00  0.00    +0.000 OA
BRANCH  27  29
ATOM     29  O   UNL     1       2.723   1.439  18.124  0.00  0.00    +0.000 OA
ATOM     30  H   UNL     1       3.624   1.498  18.543  0.00  0.00    +0.000 HD
ENDBRANCH  27  29
ENDBRANCH  26  27
ENDBRANCH  25  26
ENDBRANCH   4  25
TORSDOF 12
ENDMDL
MODEL 3
REMARK VINA RESULT:      -6.4      0.998      1.849
REMARK  Name = 
REMARK  16 active torsions:
REMARK  status: ('A' for Active; 'I' for Inactive)
REMARK    1  A    between atoms: C_1  and  C_2
REMARK    2  A    between atoms: C_2  and  C_3
REMARK    3  A    between atoms: C_3  and  C_4
REMARK    4  A    between atoms: C_3  and  C_6
REMARK    5  A    between atoms: C_4  and  C_5
REMARK    6  A    between atoms: N_8  and  C_9
REMARK    7  A    between atoms: C_12  and  O_13
REMARK    8  A    between atoms: O_13  and  C_14
REMARK    9  A    between atoms: C_14  and  C_15
REMARK   10  A    between atoms: C_15  and  O_17
REMARK   11  A    between atoms: C_18  and  N_19
REMARK   12  A    between atoms: C_20  and  C_22
REMARK   13  A    between atoms: C_22  and  C_23
REMARK   14  A    between atoms: C_22  and  C_25
REMARK   15  A    between atoms: C_23  and  C_24
REMARK   16  A    between atoms: C_25  and  C_26
REMARK                            x       y       z     vdW  Elec       q    Type
REMARK                         _______ _______ _______ _____ _____    ______ ____
ROOT
ATOM      1  C   UNL     1       1.961   6.508  20.295  0.00  0.00    +0.000 A 
ATOM      2  C   UNL     1       1.200   5.349  20.223  0.00  0.00    +0.000 A 
ATOM      3  C   UNL     1       1.683   4.214  19.585  0.00  0.00    +0.000 A 
ATOM      4  C   UNL     1       2.954   4.198  19.007  0.00  0.00    +0.000 A 
ATOM      5  C   UNL     1       3.706   5.391  18.950  0.00  0.00    +0.000 A 
ATOM      6  C   UNL     1       3.185   6.543  19.606  0.00  0.00    +0.000 A 
ENDROOT
BRANCH   1   9
ATOM      7  C   UNL     1       1.164   8.849  20.449  0.00  0.00    +0.000 C 
ATOM      8  O   UNL     1       1.074   9.040  19.238  0.00  0.00    +0.000 OA
ATOM      9  N   UNL     1       1.513   7.636  21.036  0.00  0.00    +0.000 N 
ATOM     10  H   UNL     1       1.314   7.508  22.018  0.00  0.00    +0.000 HD
BRANCH   7  11
ATOM     11  C   UNL     1       0.802   9.973  21.422  0.00  0.00    +0.000 C 
BRANCH  11  13
ATOM     12  C   UNL     1       1.462  12.369  20.673  0.00  0.00    +0.000 C 
ATOM     13  C   UNL     1       0.459  11.232  20.589  0.00  0.00    +0.000 C 
ENDBRANCH  11  13
BRANCH  11  14
ATOM     14  C   UNL     1      -0.316   9.520  22.380  0.00  0.00    +0.000 C 
ATOM     15  C   UNL     1      -1.016  10.652  23.127  0.00  0.00    +0.000 C 
ENDBRANCH  11  14
ENDBRANCH   7  11
ENDBRANCH   1   9
BRANCH   5  16
ATOM     16  N   UNL     1       4.974   5.560  18.311  0.00  0.00    +0.000 N 
ATOM     17  C   UNL     1       5.314   6.303  17.185  0.00  0.00    +0.000 C 
ATOM     18  O   UNL     1       4.556   6.942  16.452  0.00  0.00    +0.000 OA
ATOM     19  H   UNL     1       5.752   5.124  18.792  0.00  0.00    +0.000 HD
BRANCH  17  20
ATOM     20  C   UNL     1       6.819   6.257  16.864  0.00  0.00    +0.000 C 
BRANCH  20  21
ATOM     21  C   UNL     1       7.628   6.925  17.994  0.00  0.00    +0.000 C 
ATOM     22  C   UNL     1       7.983   8.382  17.745  0.00  0.00    +0.000 C 
ENDBRANCH  20  21
BRANCH  20  23
ATOM     23  C   UNL     1       7.299   4.794  16.727  0.00  0.00    +0.000 C 
ATOM     24  C   UNL     1       6.762   4.091  15.488  0.00  0.00    +0.000 C 
ENDBRANCH  20  23
ENDBRANCH  17  20
ENDBRANCH   5  16
BRANCH   4  25
ATOM     25  O   UNL     1       3.479   3.035  18.521  0.00  0.00    +0.000 OA
BRANCH  25  26
ATOM     26  C   UNL     1       3.267   1.852  19.288  0.00  0.00    +0.000 C 
BRANCH  26  27
ATOM     27  C   UNL     1       4.125   1.855  20.535  0.00  0.00    +0.000 C 
ATOM     28  O   UNL     1       5.319   1.587  20.530  0.00  0.00    +0.000 OA
BRANCH  27  29
ATOM     29  O   UNL     1       3.462   2.201  21.658  0.00  0.00    +0.000 OA
ATOM     30  H   UNL     1       3.962   2.878  22.189  0.00  0.00    +0.000 HD
ENDBRANCH  27  29
ENDBRANCH  26  27
ENDBRANCH  25  26
ENDBRANCH   4  25
TORSDOF 12
ENDMDL
MODEL 4
REMARK VINA RESULT:      -6.3      2.510      4.875
REMARK  Name = 
REMARK  16 active torsions:
REMARK  status: ('A' for Active; 'I' for Inactive)
REMARK    1  A    between atoms: C_1  and  C_2
REMARK    2  A    between atoms: C_2  and  C_3
REMARK    3  A    between atoms: C_3  and  C_4
REMARK    4  A    between atoms: C_3  and  C_6
REMARK    5  A    between atoms: C_4  and  C_5
REMARK    6  A    between atoms: N_8  and  C_9
REMARK    7  A    between atoms: C_12  and  O_13
REMARK    8  A    between atoms: O_13  and  C_14
REMARK    9  A    between atoms: C_14  and  C_15
REMARK   10  A    between atoms: C_15  and  O_17
REMARK   11  A    between atoms: C_18  and  N_19
REMARK   12  A    between atoms: C_20  and  C_22
REMARK   13  A    between atoms: C_22  and  C_23
REMARK   14  A    between atoms: C_22  and  C_25
REMARK   15  A    between atoms: C_23  and  C_24
REMARK   16  A    between atoms: C_25  and  C_26
REMARK                            x       y       z     vdW  Elec       q    Type
REMARK                         _______ _______ _______ _____ _____    ______ ____
ROOT
ATOM      1  C   UNL     1       1.923   8.523  17.802  0.00  0.00    +0.000 A 
ATOM      2  C   UNL     1       3.214   8.827  17.390  0.00  0.00    +0.000 A 
ATOM      3  C   UNL     1       4.214   7.864  17.402  0.00  0.00    +0.000 A 
ATOM      4  C   UNL     1       3.952   6.556  17.815  0.00  0.00    +0.000 A 
ATOM      5  C   UNL     1       2.688   6.241  18.358  0.00  0.00    +0.000 A 
ATOM      6  C   UNL     1       1.681   7.248  18.341  0.00  0.00    +0.000 A 
ENDROOT
BRANCH   1   9
ATOM      7  C   UNL     1       0.268  10.077  18.793  0.00  0.00    +0.000 C 
ATOM      8  O   UNL     1       0.652   9.959  19.954  0.00  0.00    +0.000 OA
ATOM      9  N   UNL     1       0.874   9.476  17.693  0.00  0.00    +0.000 N 
ATOM     10  H   UNL     1       0.650   9.830  16.774  0.00  0.00    +0.000 HD
BRANCH   7  11
ATOM     11  C   UNL     1      -0.909  11.001  18.474  0.00  0.00    +0.000 C 
BRANCH  11  13
ATOM     12  C   UNL     1      -2.428   9.985  16.631  0.00  0.00    +0.000 C 
ATOM     13  C   UNL     1      -2.126  10.115  18.113  0.00  0.00    +0.000 C 
ENDBRANCH  11  13
BRANCH  11  14
ATOM     14  C   UNL     1      -1.158  11.981  19.638  0.00  0.00    +0.000 C 
ATOM     15  C   UNL     1      -0.689  13.410  19.381  0.00  0.00    +0.000 C 
ENDBRANCH  11  14
ENDBRANCH   7  11
ENDBRANCH   1   9
BRANCH   5  16
ATOM     16  N   UNL     1       2.297   4.980  18.910  0.00  0.00    +0.000 N 
ATOM     17  C   UNL     1       1.549   3.953  18.343  0.00  0.00    +0.000 C 
ATOM     18  O   UNL     1       1.005   3.943  17.238  0.00  0.00    +0.000 OA
ATOM     19  H   UNL     1       2.679   4.782  19.827  0.00  0.00    +0.000 HD
BRANCH  17  20
ATOM     20  C   UNL     1       1.404   2.731  19.270  0.00  0.00    +0.000 C 
BRANCH  20  21
ATOM     21  C   UNL     1       2.736   1.958  19.348  0.00  0.00    +0.000 C 
ATOM     22  C   UNL     1       3.435   1.761  18.012  0.00  0.00    +0.000 C 
ENDBRANCH  20  21
BRANCH  20  23
ATOM     23  C   UNL     1       1.021   3.178  20.699  0.00  0.00    +0.000 C 
ATOM     24  C   UNL     1       1.969   2.660  21.772  0.00  0.00    +0.000 C 
ENDBRANCH  20  23
ENDBRANCH  17  20
ENDBRANCH   5  16
BRANCH   4  25
ATOM     25  O   UNL     1       4.899   5.583  17.676  0.00  0.00    +0.000 OA
BRANCH  25  26
ATOM     26  C   UNL     1       6.199   5.990  17.259  0.00  0.00    +0.000 C 
BRANCH  26  27
ATOM     27  C   UNL     1       7.170   4.830  17.303  0.00  0.00    +0.000 C 
ATOM     28  O   UNL     1       7.870   4.503  16.354  0.00  0.00    +0.000 OA
BRANCH  27  29
ATOM     29  O   UNL     1       7.213   4.193  18.492  0.00  0.00    +0.000 OA
ATOM     30  H   UNL     1       6.516   4.530  19.117  0.00  0.00    +0.000 HD
ENDBRANCH  27  29
ENDBRANCH  26  27
ENDBRANCH  25  26
ENDBRANCH   4  25
TORSDOF 12
ENDMDL
MODEL 5
REMARK VINA RESULT:      -6.3      1.711      2.668
REMARK  Name = 
REMARK  16 active torsions:
REMARK  status: ('A' for Active; 'I' for Inactive)
REMARK    1  A    between atoms: C_1  and  C_2
REMARK    2  A    between atoms: C_2  and  C_3
REMARK    3  A    between atoms: C_3  and  C_4
REMARK    4  A    between atoms: C_3  and  C_6
REMARK    5  A    between atoms: C_4  and  C_5
REMARK    6  A    between atoms: N_8  and  C_9
REMARK    7  A    between atoms: C_12  and  O_13
REMARK    8  A    between atoms: O_13  and  C_14
REMARK    9  A    between atoms: C_14  and  C_15
REMARK   10  A    between atoms: C_15  and  O_17
REMARK   11  A    between atoms: C_18  and  N_19
REMARK   12  A    between atoms: C_20  and  C_22
REMARK   13  A    between atoms: C_22  and  C_23
REMARK   14  A    between atoms: C_22  and  C_25
REMARK   15  A    between atoms: C_23  and  C_24
REMARK   16  A    between atoms: C_25  and  C_26
REMARK                            x       y       z     vdW  Elec       q    Type
REMARK                         _______ _______ _______ _____ _____    ______ ____
ROOT
ATOM      1  C   UNL     1       1.804   7.612  19.907  0.00  0.00    +0.000 A 
ATOM      2  C   UNL     1       1.353   6.559  20.693  0.00  0.00    +0.000 A 
ATOM      3  C   UNL     1       1.954   5.309  20.629  0.00  0.00    +0.000 A 
ATOM      4  C   UNL     1       3.040   5.073  19.784  0.00  0.00    +0.000 A 
ATOM      5  C   UNL     1       3.448   6.080  18.881  0.00  0.00    +0.000 A 
ATOM      6  C   UNL     1       2.810   7.350  18.962  0.00  0.00    +0.000 A 
ENDROOT
BRANCH   1   9
ATOM      7  C   UNL     1       0.865   9.701  18.965  0.00  0.00    +0.000 C 
ATOM      8  O   UNL     1       0.815   9.312  17.800  0.00  0.00    +0.000 OA
ATOM      9  N   UNL     1       1.260   8.917  20.046  0.00  0.00    +0.000 N 
ATOM     10  H   UNL     1       1.027   9.236  20.975  0.00  0.00    +0.000 HD
BRANCH   7  11
ATOM     11  C   UNL     1       0.396  11.116  19.311  0.00  0.00    +0.000 C 
BRANCH  11  13
ATOM     12  C   UNL     1      -0.301  11.881  21.692  0.00  0.00    +0.000 C 
ATOM     13  C   UNL     1      -0.607  11.010  20.486  0.00  0.00    +0.000 C 
ENDBRANCH  11  13
BRANCH  11  14
ATOM     14  C   UNL     1       1.604  12.033  19.586  0.00  0.00    +0.000 C 
ATOM     15  C   UNL     1       2.234  12.650  18.340  0.00  0.00    +0.000 C 
ENDBRANCH  11  14
ENDBRANCH   7  11
ENDBRANCH   1   9
BRANCH   5  16
ATOM     16  N   UNL     1       4.474   5.961  17.892  0.00  0.00    +0.000 N 
ATOM     17  C   UNL     1       4.644   5.007  16.894  0.00  0.00    +0.000 C 
ATOM     18  O   UNL     1       3.955   4.006  16.688  0.00  0.00    +0.000 OA
ATOM     19  H   UNL     1       5.140   6.724  17.878  0.00  0.00    +0.000 HD
BRANCH  17  20
ATOM     20  C   UNL     1       5.866   5.282  15.998  0.00  0.00    +0.000 C 
BRANCH  20  21
ATOM     21  C   UNL     1       7.029   4.342  16.375  0.00  0.00    +0.000 C 
ATOM     22  C   UNL     1       7.668   4.634  17.724  0.00  0.00    +0.000 C 
ENDBRANCH  20  21
BRANCH  20  23
ATOM     23  C   UNL     1       5.513   5.039  14.512  0.00  0.00    +0.000 C 
ATOM     24  C   UNL     1       6.247   3.856  13.898  0.00  0.00    +0.000 C 
ENDBRANCH  20  23
ENDBRANCH  17  20
ENDBRANCH   5  16
BRANCH   4  25
ATOM     25  O   UNL     1       3.720   3.892  19.843  0.00  0.00    +0.000 OA
BRANCH  25  26
ATOM     26  C   UNL     1       2.988   2.735  20.241  0.00  0.00    +0.000 C 
BRANCH  26  27
ATOM     27  C   UNL     1       2.272   2.117  19.059  0.00  0.00    +0.000 C 
ATOM     28  O   UNL     1       1.065   2.211  18.881  0.00  0.00    +0.000 OA
BRANCH  27  29
ATOM     29  O   UNL     1       3.084   1.466  18.202  0.00  0.00    +0.000 OA
ATOM     30  H   UNL     1       3.057   0.481  18.341  0.00  0.00    +0.000 HD
ENDBRANCH  27  29
ENDBRANCH  26  27
ENDBRANCH  25  26
ENDBRANCH   4  25
TORSDOF 12
ENDMDL
MODEL 6
REMARK VINA RESULT:      -6.3      1.549      2.452
REMARK  Name = 
REMARK  16 active torsions:
REMARK  status: ('A' for Active; 'I' for Inactive)
REMARK    1  A    between atoms: C_1  and  C_2
REMARK    2  A    between atoms: C_2  and  C_3
REMARK    3  A    between atoms: C_3  and  C_4
REMARK    4  A    between atoms: C_3  and  C_6
REMARK    5  A    between atoms: C_4  and  C_5
REMARK    6  A    between atoms: N_8  and  C_9
REMARK    7  A    between atoms: C_12  and  O_13
REMARK    8  A    between atoms: O_13  and  C_14
REMARK    9  A    between atoms: C_14  and  C_15
REMARK   10  A    between atoms: C_15  and  O_17
REMARK   11  A    between atoms: C_18  and  N_19
REMARK   12  A    between atoms: C_20  and  C_22
REMARK   13  A    between atoms: C_22  and  C_23
REMARK   14  A    between atoms: C_22  and  C_25
REMARK   15  A    between atoms: C_23  and  C_24
REMARK   16  A    between atoms: C_25  and  C_26
REMARK                            x       y       z     vdW  Elec       q    Type
REMARK                         _______ _______ _______ _____ _____    ______ ____
ROOT
ATOM      1  C   UNL     1       1.823   7.507  20.058  0.00  0.00    +0.000 A 
ATOM      2  C   UNL     1       1.201   6.492  20.773  0.00  0.00    +0.000 A 
ATOM      3  C   UNL     1       1.671   5.187  20.719  0.00  0.00    +0.000 A 
ATOM      4  C   UNL     1       2.792   4.854  19.955  0.00  0.00    +0.000 A 
ATOM      5  C   UNL     1       3.375   5.831  19.118  0.00  0.00    +0.000 A 
ATOM      6  C   UNL     1       2.869   7.160  19.187  0.00  0.00    +0.000 A 
ENDROOT
BRANCH   1   9
ATOM      7  C   UNL     1       1.041   9.660  19.114  0.00  0.00    +0.000 C 
ATOM      8  O   UNL     1       0.904   9.258  17.960  0.00  0.00    +0.000 OA
ATOM      9  N   UNL     1       1.409   8.860  20.193  0.00  0.00    +0.000 N 
ATOM     10  H   UNL     1       1.248   9.215  21.124  0.00  0.00    +0.000 HD
BRANCH   7  11
ATOM     11  C   UNL     1       0.722  11.117  19.451  0.00  0.00    +0.000 C 
BRANCH  11  13
ATOM     12  C   UNL     1      -0.741  12.878  18.228  0.00  0.00    +0.000 C 
ATOM     13  C   UNL     1      -0.633  11.473  18.792  0.00  0.00    +0.000 C 
ENDBRANCH  11  13
BRANCH  11  14
ATOM     14  C   UNL     1       0.767  11.342  20.975  0.00  0.00    +0.000 C 
ATOM     15  C   UNL     1      -0.598  11.490  21.640  0.00  0.00    +0.000 C 
ENDBRANCH  11  14
ENDBRANCH   7  11
ENDBRANCH   1   9
BRANCH   5  16
ATOM     16  N   UNL     1       4.460   5.624  18.210  0.00  0.00    +0.000 N 
ATOM     17  C   UNL     1       4.563   4.757  17.127  0.00  0.00    +0.000 C 
ATOM     18  O   UNL     1       3.737   3.923  16.754  0.00  0.00    +0.000 OA
ATOM     19  H   UNL     1       5.245   6.252  18.337  0.00  0.00    +0.000 HD
BRANCH  17  20
ATOM     20  C   UNL     1       5.898   4.892  16.371  0.00  0.00    +0.000 C 
BRANCH  20  21
ATOM     21  C   UNL     1       7.083   4.706  17.341  0.00  0.00    +0.000 C 
ATOM     22  C   UNL     1       7.632   5.996  17.928  0.00  0.00    +0.000 C 
ENDBRANCH  20  21
BRANCH  20  23
ATOM     23  C   UNL     1       6.006   3.816  15.266  0.00  0.00    +0.000 C 
ATOM     24  C   UNL     1       6.540   4.352  13.945  0.00  0.00    +0.000 C 
ENDBRANCH  20  23
ENDBRANCH  17  20
ENDBRANCH   5  16
BRANCH   4  25
ATOM     25  O   UNL     1       3.337   3.606  20.032  0.00  0.00    +0.000 OA
BRANCH  25  26
ATOM     26  C   UNL     1       2.443   2.514  20.233  0.00  0.00    +0.000 C 
BRANCH  26  27
ATOM     27  C   UNL     1       1.773   2.117  18.936  0.00  0.00    +0.000 C 
ATOM     28  O   UNL     1       0.585   2.304  18.709  0.00  0.00    +0.000 OA
BRANCH  27  29
ATOM     29  O   UNL     1       2.605   1.555  18.035  0.00  0.00    +0.000 OA
ATOM     30  H   UNL     1       2.166   0.814  17.537  0.00  0.00    +0.000 HD
ENDBRANCH  27  29
ENDBRANCH  26  27
ENDBRANCH  25  26
ENDBRANCH   4  25
TORSDOF 12
ENDMDL
MODEL 7
REMARK VINA RESULT:      -6.3      1.385      2.170
REMARK  Name = 
REMARK  16 active torsions:
REMARK  status: ('A' for Active; 'I' for Inactive)
REMARK    1  A    between atoms: C_1  and  C_2
REMARK    2  A    between atoms: C_2  and  C_3
REMARK    3  A    between atoms: C_3  and  C_4
REMARK    4  A    between atoms: C_3  and  C_6
REMARK    5  A    between atoms: C_4  and  C_5
REMARK    6  A    between atoms: N_8  and  C_9
REMARK    7  A    between atoms: C_12  and  O_13
REMARK    8  A    between atoms: O_13  and  C_14
REMARK    9  A    between atoms: C_14  and  C_15
REMARK   10  A    between atoms: C_15  and  O_17
REMARK   11  A    between atoms: C_18  and  N_19
REMARK   12  A    between atoms: C_20  and  C_22
REMARK   13  A    between atoms: C_22  and  C_23
REMARK   14  A    between atoms: C_22  and  C_25
REMARK   15  A    between atoms: C_23  and  C_24
REMARK   16  A    between atoms: C_25  and  C_26
REMARK                            x       y       z     vdW  Elec       q    Type
REMARK                         _______ _______ _______ _____ _____    ______ ____
ROOT
ATOM      1  C   UNL     1       1.541   7.486  20.201  0.00  0.00    +0.000 A 
ATOM      2  C   UNL     1       1.101   6.348  20.863  0.00  0.00    +0.000 A 
ATOM      3  C   UNL     1       1.760   5.134  20.715  0.00  0.00    +0.000 A 
ATOM      4  C   UNL     1       2.892   5.023  19.906  0.00  0.00    +0.000 A 
ATOM      5  C   UNL     1       3.296   6.124  19.120  0.00  0.00    +0.000 A 
ATOM      6  C   UNL     1       2.599   7.355  19.286  0.00  0.00    +0.000 A 
ENDROOT
BRANCH   1   9
ATOM      7  C   UNL     1       1.072   9.463  21.619  0.00  0.00    +0.000 C 
ATOM      8  O   UNL     1       1.830   9.152  22.536  0.00  0.00    +0.000 OA
ATOM      9  N   UNL     1       0.933   8.750  20.431  0.00  0.00    +0.000 N 
ATOM     10  H   UNL     1       0.490   9.212  19.649  0.00  0.00    +0.000 HD
BRANCH   7  11
ATOM     11  C   UNL     1       0.261  10.757  21.713  0.00  0.00    +0.000 C 
BRANCH  11  13
ATOM     12  C   UNL     1       0.043  12.383  19.701  0.00  0.00    +0.000 C 
ATOM     13  C   UNL     1      -0.336  11.046  20.314  0.00  0.00    +0.000 C 
ENDBRANCH  11  13
BRANCH  11  14
ATOM     14  C   UNL     1      -0.783  10.660  22.843  0.00  0.00    +0.000 C 
ATOM     15  C   UNL     1      -1.654  11.901  23.015  0.00  0.00    +0.000 C 
ENDBRANCH  11  14
ENDBRANCH   7  11
ENDBRANCH   1   9
BRANCH   5  16
ATOM     16  N   UNL     1       4.370   6.140  18.177  0.00  0.00    +0.000 N 
ATOM     17  C   UNL     1       5.711   5.809  18.347  0.00  0.00    +0.000 C 
ATOM     18  O   UNL     1       6.275   5.481  19.392  0.00  0.00    +0.000 OA
ATOM     19  H   UNL     1       4.097   6.362  17.227  0.00  0.00    +0.000 HD
BRANCH  17  20
ATOM     20  C   UNL     1       6.527   5.912  17.045  0.00  0.00    +0.000 C 
BRANCH  20  21
ATOM     21  C   UNL     1       7.806   6.741  17.280  0.00  0.00    +0.000 C 
ATOM     22  C   UNL     1       7.565   8.214  17.565  0.00  0.00    +0.000 C 
ENDBRANCH  20  21
BRANCH  20  23
ATOM     23  C   UNL     1       6.946   4.506  16.557  0.00  0.00    +0.000 C 
ATOM     24  C   UNL     1       5.984   3.903  15.543  0.00  0.00    +0.000 C 
ENDBRANCH  20  23
ENDBRANCH  17  20
ENDBRANCH   5  16
BRANCH   4  25
ATOM     25  O   UNL     1       3.621   3.868  19.890  0.00  0.00    +0.000 OA
BRANCH  25  26
ATOM     26  C   UNL     1       2.920   2.657  19.620  0.00  0.00    +0.000 C 
BRANCH  26  27
ATOM     27  C   UNL     1       3.040   2.277  18.160  0.00  0.00    +0.000 C 
ATOM     28  O   UNL     1       2.250   2.647  17.302  0.00  0.00    +0.000 OA
BRANCH  27  29
ATOM     29  O   UNL     1       4.112   1.507  17.878  0.00  0.00    +0.000 OA
ATOM     30  H   UNL     1       4.379   1.581  16.923  0.00  0.00    +0.000 HD
ENDBRANCH  27  29
ENDBRANCH  26  27
ENDBRANCH  25  26
ENDBRANCH   4  25
TORSDOF 12
ENDMDL
MODEL 8
REMARK VINA RESULT:      -6.3      2.444      4.685
REMARK  Name = 
REMARK  16 active torsions:
REMARK  status: ('A' for Active; 'I' for Inactive)
REMARK    1  A    between atoms: C_1  and  C_2
REMARK    2  A    between atoms: C_2  and  C_3
REMARK    3  A    between atoms: C_3  and  C_4
REMARK    4  A    between atoms: C_3  and  C_6
REMARK    5  A    between atoms: C_4  and  C_5
REMARK    6  A    between atoms: N_8  and  C_9
REMARK    7  A    between atoms: C_12  and  O_13
REMARK    8  A    between atoms: O_13  and  C_14
REMARK    9  A    between atoms: C_14  and  C_15
REMARK   10  A    between atoms: C_15  and  O_17
REMARK   11  A    between atoms: C_18  and  N_19
REMARK   12  A    between atoms: C_20  and  C_22
REMARK   13  A    between atoms: C_22  and  C_23
REMARK   14  A    between atoms: C_22  and  C_25
REMARK   15  A    between atoms: C_23  and  C_24
REMARK   16  A    between atoms: C_25  and  C_26
REMARK                            x       y       z     vdW  Elec       q    Type
REMARK                         _______ _______ _______ _____ _____    ______ ____
ROOT
ATOM      1  C   UNL     1       2.088   8.309  17.922  0.00  0.00    +0.000 A 
ATOM      2  C   UNL     1       3.349   8.610  17.424  0.00  0.00    +0.000 A 
ATOM      3  C   UNL     1       4.334   7.636  17.336  0.00  0.00    +0.000 A 
ATOM      4  C   UNL     1       4.086   6.320  17.732  0.00  0.00    +0.000 A 
ATOM      5  C   UNL     1       2.861   6.003  18.358  0.00  0.00    +0.000 A 
ATOM      6  C   UNL     1       1.869   7.022  18.443  0.00  0.00    +0.000 A 
ENDROOT
BRANCH   1   9
ATOM      7  C   UNL     1       0.564   9.889  19.071  0.00  0.00    +0.000 C 
ATOM      8  O   UNL     1       1.063   9.768  20.188  0.00  0.00    +0.000 OA
ATOM      9  N   UNL     1       1.046   9.276  17.917  0.00  0.00    +0.000 N 
ATOM     10  H   UNL     1       0.734   9.631  17.024  0.00  0.00    +0.000 HD
BRANCH   7  11
ATOM     11  C   UNL     1      -0.627  10.828  18.870  0.00  0.00    +0.000 C 
BRANCH  11  13
ATOM     12  C   UNL     1      -0.263  13.179  19.907  0.00  0.00    +0.000 C 
ATOM     13  C   UNL     1      -0.077  12.266  18.708  0.00  0.00    +0.000 C 
ENDBRANCH  11  13
BRANCH  11  14
ATOM     14  C   UNL     1      -1.505  10.346  17.699  0.00  0.00    +0.000 C 
ATOM     15  C   UNL     1      -2.863  11.035  17.592  0.00  0.00    +0.000 C 
ENDBRANCH  11  14
ENDBRANCH   7  11
ENDBRANCH   1   9
BRANCH   5  16
ATOM     16  N   UNL     1       2.495   4.733  18.903  0.00  0.00    +0.000 N 
ATOM     17  C   UNL     1       1.661   3.747  18.384  0.00  0.00    +0.000 C 
ATOM     18  O   UNL     1       1.002   3.795  17.345  0.00  0.00    +0.000 OA
ATOM     19  H   UNL     1       2.968   4.489  19.765  0.00  0.00    +0.000 HD
BRANCH  17  20
ATOM     20  C   UNL     1       1.581   2.494  19.276  0.00  0.00    +0.000 C 
BRANCH  20  21
ATOM     21  C   UNL     1       2.981   1.868  19.445  0.00  0.00    +0.000 C 
ATOM     22  C   UNL     1       3.637   1.420  18.149  0.00  0.00    +0.000 C 
ENDBRANCH  20  21
BRANCH  20  23
ATOM     23  C   UNL     1       1.044   2.861  20.678  0.00  0.00    +0.000 C 
ATOM     24  C   UNL     1       2.079   2.712  21.784  0.00  0.00    +0.000 C 
ENDBRANCH  20  23
ENDBRANCH  17  20
ENDBRANCH   5  16
BRANCH   4  25
ATOM     25  O   UNL     1       5.007   5.340  17.497  0.00  0.00    +0.000 OA
BRANCH  25  26
ATOM     26  C   UNL     1       6.335   5.753  17.184  0.00  0.00    +0.000 C 
BRANCH  26  27
ATOM     27  C   UNL     1       7.346   4.997  18.018  0.00  0.00    +0.000 C 
ATOM     28  O   UNL     1       7.466   5.146  19.227  0.00  0.00    +0.000 OA
BRANCH  27  29
ATOM     29  O   UNL     1       8.096   4.123  17.316  0.00  0.00    +0.000 OA
ATOM     30  H   UNL     1       8.260   4.439  16.387  0.00  0.00    +0.000 HD
ENDBRANCH  27  29
ENDBRANCH  26  27
ENDBRANCH  25  26
ENDBRANCH   4  25
TORSDOF 12
ENDMDL
MODEL 9
REMARK VINA RESULT:      -6.2      1.362      1.798
REMARK  Name = 
REMARK  16 active torsions:
REMARK  status: ('A' for Active; 'I' for Inactive)
REMARK    1  A    between atoms: C_1  and  C_2
REMARK    2  A    between atoms: C_2  and  C_3
REMARK    3  A    between atoms: C_3  and  C_4
REMARK    4  A    between atoms: C_3  and  C_6
REMARK    5  A    between atoms: C_4  and  C_5
REMARK    6  A    between atoms: N_8  and  C_9
REMARK    7  A    between atoms: C_12  and  O_13
REMARK    8  A    between atoms: O_13  and  C_14
REMARK    9  A    between atoms: C_14  and  C_15
REMARK   10  A    between atoms: C_15  and  O_17
REMARK   11  A    between atoms: C_18  and  N_19
REMARK   12  A    between atoms: C_20  and  C_22
REMARK   13  A    between atoms: C_22  and  C_23
REMARK   14  A    between atoms: C_22  and  C_25
REMARK   15  A    between atoms: C_23  and  C_24
REMARK   16  A    between atoms: C_25  and  C_26
REMARK                            x       y       z     vdW  Elec       q    Type
REMARK                         _______ _______ _______ _____ _____    ______ ____
ROOT
ATOM      1  C   UNL     1       1.795   7.758  19.794  0.00  0.00    +0.000 A 
ATOM      2  C   UNL     1       1.162   6.890  20.675  0.00  0.00    +0.000 A 
ATOM      3  C   UNL     1       1.617   5.589  20.848  0.00  0.00    +0.000 A 
ATOM      4  C   UNL     1       2.732   5.116  20.153  0.00  0.00    +0.000 A 
ATOM      5  C   UNL     1       3.324   5.925  19.159  0.00  0.00    +0.000 A 
ATOM      6  C   UNL     1       2.835   7.252  18.997  0.00  0.00    +0.000 A 
ENDROOT
BRANCH   1   9
ATOM      7  C   UNL     1       1.150   9.930  20.797  0.00  0.00    +0.000 C 
ATOM      8  O   UNL     1       1.374   9.611  21.963  0.00  0.00    +0.000 OA
ATOM      9  N   UNL     1       1.397   9.119  19.692  0.00  0.00    +0.000 N 
ATOM     10  H   UNL     1       1.424   9.552  18.780  0.00  0.00    +0.000 HD
BRANCH   7  11
ATOM     11  C   UNL     1       0.636  11.336  20.482  0.00  0.00    +0.000 C 
BRANCH  11  13
ATOM     12  C   UNL     1       1.996  13.073  19.113  0.00  0.00    +0.000 C 
ATOM     13  C   UNL     1       1.227  11.763  19.116  0.00  0.00    +0.000 C 
ENDBRANCH  11  13
BRANCH  11  14
ATOM     14  C   UNL     1      -0.903  11.377  20.551  0.00  0.00    +0.000 C 
ATOM     15  C   UNL     1      -1.607  11.225  19.206  0.00  0.00    +0.000 C 
ENDBRANCH  11  14
ENDBRANCH   7  11
ENDBRANCH   1   9
BRANCH   5  16
ATOM     16  N   UNL     1       4.405   5.551  18.300  0.00  0.00    +0.000 N 
ATOM     17  C   UNL     1       5.696   5.142  18.618  0.00  0.00    +0.000 C 
ATOM     18  O   UNL     1       6.205   5.071  19.737  0.00  0.00    +0.000 OA
ATOM     19  H   UNL     1       4.171   5.518  17.315  0.00  0.00    +0.000 HD
BRANCH  17  20
ATOM     20  C   UNL     1       6.534   4.775  17.379  0.00  0.00    +0.000 C 
BRANCH  20  21
ATOM     21  C   UNL     1       5.672   4.005  16.358  0.00  0.00    +0.000 C 
ATOM     22  C   UNL     1       6.166   4.085  14.923  0.00  0.00    +0.000 C 
ENDBRANCH  20  21
BRANCH  20  23
ATOM     23  C   UNL     1       7.071   6.051  16.692  0.00  0.00    +0.000 C 
ATOM     24  C   UNL     1       7.488   7.140  17.670  0.00  0.00    +0.000 C 
ENDBRANCH  20  23
ENDBRANCH  17  20
ENDBRANCH   5  16
BRANCH   4  25
ATOM     25  O   UNL     1       3.262   3.893  20.444  0.00  0.00    +0.000 OA
BRANCH  25  26
ATOM     26  C   UNL     1       2.727   2.767  19.753  0.00  0.00    +0.000 C 
BRANCH  26  27
ATOM     27  C   UNL     1       3.827   1.974  19.080  0.00  0.00    +0.000 C 
ATOM     28  O   UNL     1       3.657   1.327  18.055  0.00  0.00    +0.000 OA
BRANCH  27  29
ATOM     29  O   UNL     1       5.023   2.057  19.698  0.00  0.00    +0.000 OA
ATOM     30  H   UNL     1       5.777   2.030  19.049  0.00  0.00    +0.000 HD
ENDBRANCH  27  29
ENDBRANCH  26  27
ENDBRANCH  25  26
ENDBRANCH   4  25
TORSDOF 12
ENDMDL
