MODEL 1
REMARK VINA RESULT:      -8.8      0.000      0.000
REMARK  Name = 
REMARK  4 active torsions:
REMARK  status: ('A' for Active; 'I' for Inactive)
REMARK    1  A    between atoms: C_1  and  C_2
REMARK    2  A    between atoms: C_2  and  C_3
REMARK    3  A    between atoms: C_2  and  C_13
REMARK    4  A    between atoms: C_16  and  C_17
REMARK                            x       y       z     vdW  Elec       q    Type
REMARK                         _______ _______ _______ _____ _____    ______ ____
ROOT
ATOM      1  C   UNL     1       4.890   4.967  18.210  0.00  0.00    +0.000 C 
ATOM      2  C   UNL     1       4.713   5.520  19.643  0.00  0.00    +0.000 C 
ATOM      3  C   UNL     1       3.281   5.513  20.171  0.00  0.00    +0.000 C 
ATOM      4  C   UNL     1       2.213   5.999  19.179  0.00  0.00    +0.000 C 
ATOM      5  C   UNL     1       2.343   5.214  17.867  0.00  0.00    +0.000 C 
ATOM      6  C   UNL     1       3.732   5.287  17.240  0.00  0.00    +0.000 C 
ENDROOT
BRANCH   4   7
ATOM      7  C   UNL     1       2.116   7.516  18.956  0.00  0.00    +0.000 A 
ATOM      8  C   UNL     1       2.655   8.096  17.802  0.00  0.00    +0.000 A 
ATOM      9  C   UNL     1       2.472   9.438  17.532  0.00  0.00    +0.000 A 
ATOM     10  N   UNL     1       1.783  10.262  18.329  0.00  0.00    +0.000 NA
ATOM     11  C   UNL     1       1.258   9.747  19.444  0.00  0.00    +0.000 A 
ATOM     12  C   UNL     1       0.521  10.616  20.233  0.00  0.00    +0.000 A 
ATOM     13  C   UNL     1      -0.073  10.202  21.421  0.00  0.00    +0.000 A 
ATOM     14  C   UNL     1       0.092   8.894  21.830  0.00  0.00    +0.000 A 
ATOM     15  F   UNL     1      -0.455   8.485  22.981  0.00  0.00    +0.000 F 
ATOM     16  C   UNL     1       0.816   7.990  21.060  0.00  0.00    +0.000 A 
ATOM     17  C   UNL     1       1.402   8.383  19.834  0.00  0.00    +0.000 A 
ENDBRANCH   4   7
BRANCH   1  19
ATOM     18  C   UNL     1       6.631   6.854  17.702  0.00  0.00    +0.000 C 
ATOM     19  C   UNL     1       6.290   5.355  17.628  0.00  0.00    +0.000 C 
BRANCH  19  20
ATOM     20  C   UNL     1       6.445   4.889  16.206  0.00  0.00    +0.000 A 
ATOM     21  N   UNL     1       5.829   3.870  15.641  0.00  0.00    +0.000 NA
ATOM     22  C   UNL     1       6.228   3.873  14.327  0.00  0.00    +0.000 A 
ATOM     23  C   UNL     1       5.853   3.024  13.278  0.00  0.00    +0.000 A 
ATOM     24  C   UNL     1       6.409   3.265  12.023  0.00  0.00    +0.000 A 
ATOM     25  F   UNL     1       6.066   2.475  10.996  0.00  0.00    +0.000 F 
ATOM     26  C   UNL     1       7.310   4.306  11.799  0.00  0.00    +0.000 A 
ATOM     27  C   UNL     1       7.695   5.158  12.839  0.00  0.00    +0.000 A 
ATOM     28  C   UNL     1       7.127   4.904  14.089  0.00  0.00    +0.000 A 
ATOM     29  N   UNL     1       7.258   5.528  15.303  0.00  0.00    +0.000 N 
ATOM     30  H   UNL     1       7.833   6.335  15.494  0.00  0.00    +0.000 HD
ENDBRANCH  19  20
ENDBRANCH   1  19
TORSDOF 3
ENDMDL
MODEL 2
REMARK VINA RESULT:      -8.7      3.838      6.424
REMARK  Name = 
REMARK  4 active torsions:
REMARK  status: ('A' for Active; 'I' for Inactive)
REMARK    1  A    between atoms: C_1  and  C_2
REMARK    2  A    between atoms: C_2  and  C_3
REMARK    3  A    between atoms: C_2  and  C_13
REMARK    4  A    between atoms: C_16  and  C_17
REMARK                            x       y       z     vdW  Elec       q    Type
REMARK                         _______ _______ _______ _____ _____    ______ ____
ROOT
ATOM      1  C   UNL     1       6.916   6.102  17.022  0.00  0.00    +0.000 C 
ATOM      2  C   UNL     1       6.928   4.603  16.642  0.00  0.00    +0.000 C 
ATOM      3  C   UNL     1       5.730   4.130  15.825  0.00  0.00    +0.000 C 
ATOM      4  C   UNL     1       4.362   4.640  16.308  0.00  0.00    +0.000 C 
ATOM      5  C   UNL     1       4.404   6.169  16.429  0.00  0.00    +0.000 C 
ATOM      6  C   UNL     1       5.520   6.685  17.333  0.00  0.00    +0.000 C 
ENDROOT
BRANCH   4   7
ATOM      7  C   UNL     1       3.772   3.960  17.553  0.00  0.00    +0.000 A 
ATOM      8  C   UNL     1       3.989   2.596  17.782  0.00  0.00    +0.000 A 
ATOM      9  C   UNL     1       3.566   2.000  18.954  0.00  0.00    +0.000 A 
ATOM     10  N   UNL     1       2.937   2.660  19.932  0.00  0.00    +0.000 NA
ATOM     11  C   UNL     1       2.707   3.964  19.747  0.00  0.00    +0.000 A 
ATOM     12  C   UNL     1       2.084   4.629  20.791  0.00  0.00    +0.000 A 
ATOM     13  C   UNL     1       1.785   5.986  20.720  0.00  0.00    +0.000 A 
ATOM     14  C   UNL     1       2.104   6.681  19.570  0.00  0.00    +0.000 A 
ATOM     15  F   UNL     1       1.804   7.982  19.477  0.00  0.00    +0.000 F 
ATOM     16  C   UNL     1       2.738   6.049  18.506  0.00  0.00    +0.000 A 
ATOM     17  C   UNL     1       3.078   4.678  18.571  0.00  0.00    +0.000 A 
ENDBRANCH   4   7
BRANCH   1  19
ATOM     18  C   UNL     1       7.573   5.890  19.547  0.00  0.00    +0.000 C 
ATOM     19  C   UNL     1       7.959   6.403  18.149  0.00  0.00    +0.000 C 
BRANCH  19  20
ATOM     20  C   UNL     1       8.268   7.873  18.238  0.00  0.00    +0.000 A 
ATOM     21  N   UNL     1       7.899   8.807  17.383  0.00  0.00    +0.000 NA
ATOM     22  C   UNL     1       8.345   9.994  17.911  0.00  0.00    +0.000 A 
ATOM     23  C   UNL     1       8.198  11.298  17.424  0.00  0.00    +0.000 A 
ATOM     24  C   UNL     1       8.746  12.334  18.178  0.00  0.00    +0.000 A 
ATOM     25  F   UNL     1       8.617  13.596  17.742  0.00  0.00    +0.000 F 
ATOM     26  C   UNL     1       9.421  12.102  19.376  0.00  0.00    +0.000 A 
ATOM     27  C   UNL     1       9.578  10.803  19.871  0.00  0.00    +0.000 A 
ATOM     28  C   UNL     1       9.022   9.777  19.104  0.00  0.00    +0.000 A 
ATOM     29  N   UNL     1       8.969   8.419  19.284  0.00  0.00    +0.000 N 
ATOM     30  H   UNL     1       9.357   7.911  20.065  0.00  0.00    +0.000 HD
ENDBRANCH  19  20
ENDBRANCH   1  19
TORSDOF 3
ENDMDL
MODEL 3
REMARK VINA RESULT:      -8.7      3.114      5.078
REMARK  Name = 
REMARK  4 active torsions:
REMARK  status: ('A' for Active; 'I' for Inactive)
REMARK    1  A    between atoms: C_1  and  C_2
REMARK    2  A    between atoms: C_2  and  C_3
REMARK    3  A    between atoms: C_2  and  C_13
REMARK    4  A    between atoms: C_16  and  C_17
REMARK                            x       y       z     vdW  Elec       q    Type
REMARK                         _______ _______ _______ _____ _____    ______ ____
ROOT
ATOM      1  C   UNL     1       1.964   8.328  19.573  0.00  0.00    +0.000 C 
ATOM      2  C   UNL     1       2.080   9.071  18.222  0.00  0.00    +0.000 C 
ATOM      3  C   UNL     1       1.850  10.578  18.286  0.00  0.00    +0.000 C 
ATOM      4  C   UNL     1       0.655  11.024  19.142  0.00  0.00    +0.000 C 
ATOM      5  C   UNL     1       0.771  10.403  20.541  0.00  0.00    +0.000 C 
ATOM      6  C   UNL     1       0.886   8.882  20.532  0.00  0.00    +0.000 C 
ENDROOT
BRANCH   4   7
ATOM      7  C   UNL     1      -0.741  10.845  18.526  0.00  0.00    +0.000 A 
ATOM      8  C   UNL     1      -0.950   9.905  17.511  0.00  0.00    +0.000 A 
ATOM      9  C   UNL     1      -2.219   9.649  17.031  0.00  0.00    +0.000 A 
ATOM     10  N   UNL     1      -3.316  10.262  17.488  0.00  0.00    +0.000 NA
ATOM     11  C   UNL     1      -3.158  11.172  18.454  0.00  0.00    +0.000 A 
ATOM     12  C   UNL     1      -4.315  11.766  18.932  0.00  0.00    +0.000 A 
ATOM     13  C   UNL     1      -4.283  12.731  19.934  0.00  0.00    +0.000 A 
ATOM     14  C   UNL     1      -3.063  13.116  20.451  0.00  0.00    +0.000 A 
ATOM     15  F   UNL     1      -3.013  14.059  21.400  0.00  0.00    +0.000 F 
ATOM     16  C   UNL     1      -1.881  12.536  20.004  0.00  0.00    +0.000 A 
ATOM     17  C   UNL     1      -1.895  11.531  19.009  0.00  0.00    +0.000 A 
ENDBRANCH   4   7
BRANCH   1  19
ATOM     18  C   UNL     1       1.465   5.978  20.612  0.00  0.00    +0.000 C 
ATOM     19  C   UNL     1       1.841   6.783  19.356  0.00  0.00    +0.000 C 
BRANCH  19  20
ATOM     20  C   UNL     1       3.098   6.206  18.765  0.00  0.00    +0.000 A 
ATOM     21  N   UNL     1       3.309   5.915  17.496  0.00  0.00    +0.000 NA
ATOM     22  C   UNL     1       4.611   5.485  17.422  0.00  0.00    +0.000 A 
ATOM     23  C   UNL     1       5.355   5.080  16.307  0.00  0.00    +0.000 A 
ATOM     24  C   UNL     1       6.679   4.700  16.519  0.00  0.00    +0.000 A 
ATOM     25  F   UNL     1       7.421   4.314  15.471  0.00  0.00    +0.000 F 
ATOM     26  C   UNL     1       7.260   4.714  17.787  0.00  0.00    +0.000 A 
ATOM     27  C   UNL     1       6.526   5.112  18.908  0.00  0.00    +0.000 A 
ATOM     28  C   UNL     1       5.202   5.491  18.679  0.00  0.00    +0.000 A 
ATOM     29  N   UNL     1       4.215   5.942  19.517  0.00  0.00    +0.000 N 
ATOM     30  H   UNL     1       4.303   6.081  20.513  0.00  0.00    +0.000 HD
ENDBRANCH  19  20
ENDBRANCH   1  19
TORSDOF 3
ENDMDL
MODEL 4
REMARK VINA RESULT:      -8.6      3.025      3.783
REMARK  Name = 
REMARK  4 active torsions:
REMARK  status: ('A' for Active; 'I' for Inactive)
REMARK    1  A    between atoms: C_1  and  C_2
REMARK    2  A    between atoms: C_2  and  C_3
REMARK    3  A    between atoms: C_2  and  C_13
REMARK    4  A    between atoms: C_16  and  C_17
REMARK                            x       y       z     vdW  Elec       q    Type
REMARK                         _______ _______ _______ _____ _____    ______ ____
ROOT
ATOM      1  C   UNL     1       2.640   3.025  19.321  0.00  0.00    +0.000 C 
ATOM      2  C   UNL     1       3.290   3.780  20.504  0.00  0.00    +0.000 C 
ATOM      3  C   UNL     1       2.313   4.471  21.451  0.00  0.00    +0.000 C 
ATOM      4  C   UNL     1       1.173   5.244  20.770  0.00  0.00    +0.000 C 
ATOM      5  C   UNL     1       0.453   4.320  19.778  0.00  0.00    +0.000 C 
ATOM      6  C   UNL     1       1.376   3.694  18.737  0.00  0.00    +0.000 C 
ENDROOT
BRANCH   4   7
ATOM      7  C   UNL     1       1.532   6.607  20.158  0.00  0.00    +0.000 A 
ATOM      8  C   UNL     1       2.318   6.676  19.001  0.00  0.00    +0.000 A 
ATOM      9  C   UNL     1       2.550   7.885  18.374  0.00  0.00    +0.000 A 
ATOM     10  N   UNL     1       2.054   9.048  18.810  0.00  0.00    +0.000 NA
ATOM     11  C   UNL     1       1.303   9.023  19.915  0.00  0.00    +0.000 A 
ATOM     12  C   UNL     1       0.775  10.238  20.324  0.00  0.00    +0.000 A 
ATOM     13  C   UNL     1      -0.019  10.345  21.461  0.00  0.00    +0.000 A 
ATOM     14  C   UNL     1      -0.271   9.213  22.209  0.00  0.00    +0.000 A 
ATOM     15  F   UNL     1      -1.015   9.303  23.318  0.00  0.00    +0.000 F 
ATOM     16  C   UNL     1       0.233   7.975  21.825  0.00  0.00    +0.000 A 
ATOM     17  C   UNL     1       1.017   7.839  20.656  0.00  0.00    +0.000 A 
ENDBRANCH   4   7
BRANCH   1  19
ATOM     18  C   UNL     1       4.406   1.325  18.404  0.00  0.00    +0.000 C 
ATOM     19  C   UNL     1       3.701   2.681  18.224  0.00  0.00    +0.000 C 
BRANCH  19  20
ATOM     20  C   UNL     1       4.743   3.760  18.105  0.00  0.00    +0.000 A 
ATOM     21  N   UNL     1       4.717   4.791  17.284  0.00  0.00    +0.000 NA
ATOM     22  C   UNL     1       5.832   5.535  17.581  0.00  0.00    +0.000 A 
ATOM     23  C   UNL     1       6.272   6.744  17.029  0.00  0.00    +0.000 A 
ATOM     24  C   UNL     1       7.449   7.294  17.535  0.00  0.00    +0.000 A 
ATOM     25  F   UNL     1       7.894   8.455  17.032  0.00  0.00    +0.000 F 
ATOM     26  C   UNL     1       8.177   6.677  18.552  0.00  0.00    +0.000 A 
ATOM     27  C   UNL     1       7.751   5.468  19.108  0.00  0.00    +0.000 A 
ATOM     28  C   UNL     1       6.570   4.931  18.592  0.00  0.00    +0.000 A 
ATOM     29  N   UNL     1       5.862   3.798  18.900  0.00  0.00    +0.000 N 
ATOM     30  H   UNL     1       6.108   3.122  19.607  0.00  0.00    +0.000 HD
ENDBRANCH  19  20
ENDBRANCH   1  19
TORSDOF 3
ENDMDL
MODEL 5
REMARK VINA RESULT:      -8.6      0.768      1.317
REMARK  Name = 
REMARK  4 active torsions:
REMARK  status: ('A' for Active; 'I' for Inactive)
REMARK    1  A    between atoms: C_1  and  C_2
REMARK    2  A    between atoms: C_2  and  C_3
REMARK    3  A    between atoms: C_2  and  C_13
REMARK    4  A    between atoms: C_16  and  C_17
REMARK                            x       y       z     vdW  Elec       q    Type
REMARK                         _______ _______ _______ _____ _____    ______ ____
ROOT
ATOM      1  C   UNL     1       4.921   4.407  18.408  0.00  0.00    +0.000 C 
ATOM      2  C   UNL     1       4.671   5.011  19.809  0.00  0.00    +0.000 C 
ATOM      3  C   UNL     1       3.206   5.107  20.224  0.00  0.00    +0.000 C 
ATOM      4  C   UNL     1       2.248   5.627  19.140  0.00  0.00    +0.000 C 
ATOM      5  C   UNL     1       2.428   4.797  17.862  0.00  0.00    +0.000 C 
ATOM      6  C   UNL     1       3.862   4.768  17.343  0.00  0.00    +0.000 C 
ENDROOT
BRANCH   4   7
ATOM      7  C   UNL     1       2.263   7.139  18.874  0.00  0.00    +0.000 A 
ATOM      8  C   UNL     1       2.931   7.653  17.756  0.00  0.00    +0.000 A 
ATOM      9  C   UNL     1       2.853   8.995  17.438  0.00  0.00    +0.000 A 
ATOM     10  N   UNL     1       2.153   9.881  18.154  0.00  0.00    +0.000 NA
ATOM     11  C   UNL     1       1.506   9.431  19.233  0.00  0.00    +0.000 A 
ATOM     12  C   UNL     1       0.762  10.365  19.936  0.00  0.00    +0.000 A 
ATOM     13  C   UNL     1       0.047  10.022  21.079  0.00  0.00    +0.000 A 
ATOM     14  C   UNL     1       0.097   8.719  21.532  0.00  0.00    +0.000 A 
ATOM     15  F   UNL     1      -0.568   8.377  22.643  0.00  0.00    +0.000 F 
ATOM     16  C   UNL     1       0.825   7.751  20.848  0.00  0.00    +0.000 A 
ATOM     17  C   UNL     1       1.533   8.073  19.667  0.00  0.00    +0.000 A 
ENDBRANCH   4   7
BRANCH   1  19
ATOM     18  C   UNL     1       6.982   6.020  18.421  0.00  0.00    +0.000 C 
ATOM     19  C   UNL     1       6.382   4.693  17.926  0.00  0.00    +0.000 C 
BRANCH  19  20
ATOM     20  C   UNL     1       6.491   4.639  16.426  0.00  0.00    +0.000 A 
ATOM     21  N   UNL     1       7.139   5.489  15.653  0.00  0.00    +0.000 NA
ATOM     22  C   UNL     1       7.019   5.000  14.376  0.00  0.00    +0.000 A 
ATOM     23  C   UNL     1       7.542   5.498  13.177  0.00  0.00    +0.000 A 
ATOM     24  C   UNL     1       7.274   4.784  12.010  0.00  0.00    +0.000 A 
ATOM     25  F   UNL     1       7.766   5.231  10.846  0.00  0.00    +0.000 F 
ATOM     26  C   UNL     1       6.512   3.616  12.015  0.00  0.00    +0.000 A 
ATOM     27  C   UNL     1       5.981   3.110  13.206  0.00  0.00    +0.000 A 
ATOM     28  C   UNL     1       6.261   3.836  14.365  0.00  0.00    +0.000 A 
ATOM     29  N   UNL     1       5.927   3.635  15.680  0.00  0.00    +0.000 N 
ATOM     30  H   UNL     1       5.382   2.866  16.040  0.00  0.00    +0.000 HD
ENDBRANCH  19  20
ENDBRANCH   1  19
TORSDOF 3
ENDMDL
MODEL 6
REMARK VINA RESULT:      -8.6      3.334      5.220
REMARK  Name = 
REMARK  4 active torsions:
REMARK  status: ('A' for Active; 'I' for Inactive)
REMARK    1  A    between atoms: C_1  and  C_2
REMARK    2  A    between atoms: C_2  and  C_3
REMARK    3  A    between atoms: C_2  and  C_13
REMARK    4  A    between atoms: C_16  and  C_17
REMARK                            x       y       z     vdW  Elec       q    Type
REMARK                         _______ _______ _______ _____ _____    ______ ____
ROOT
ATOM      1  C   UNL     1       1.841   8.432  19.706  0.00  0.00    +0.000 C 
ATOM      2  C   UNL     1       2.018   9.264  18.415  0.00  0.00    +0.000 C 
ATOM      3  C   UNL     1       1.702  10.751  18.551  0.00  0.00    +0.000 C 
ATOM      4  C   UNL     1       0.423  11.082  19.335  0.00  0.00    +0.000 C 
ATOM      5  C   UNL     1       0.466  10.378  20.699  0.00  0.00    +0.000 C 
ATOM      6  C   UNL     1       0.665   8.869  20.607  0.00  0.00    +0.000 C 
ENDROOT
BRANCH   4   7
ATOM      7  C   UNL     1      -0.911  10.873  18.601  0.00  0.00    +0.000 A 
ATOM      8  C   UNL     1      -0.999   9.962  17.542  0.00  0.00    +0.000 A 
ATOM      9  C   UNL     1      -2.215   9.677  16.952  0.00  0.00    +0.000 A 
ATOM     10  N   UNL     1      -3.368  10.233  17.337  0.00  0.00    +0.000 NA
ATOM     11  C   UNL     1      -3.325  11.114  18.341  0.00  0.00    +0.000 A 
ATOM     12  C   UNL     1      -4.539  11.648  18.741  0.00  0.00    +0.000 A 
ATOM     13  C   UNL     1      -4.627  12.578  19.772  0.00  0.00    +0.000 A 
ATOM     14  C   UNL     1      -3.468  12.989  20.400  0.00  0.00    +0.000 A 
ATOM     15  F   UNL     1      -3.532  13.899  21.380  0.00  0.00    +0.000 F 
ATOM     16  C   UNL     1      -2.232  12.468  20.034  0.00  0.00    +0.000 A 
ATOM     17  C   UNL     1      -2.125  11.499  19.009  0.00  0.00    +0.000 A 
ENDBRANCH   4   7
BRANCH   1  19
ATOM     18  C   UNL     1       1.459   5.993  20.577  0.00  0.00    +0.000 C 
ATOM     19  C   UNL     1       1.818   6.900  19.387  0.00  0.00    +0.000 C 
BRANCH  19  20
ATOM     20  C   UNL     1       3.124   6.438  18.799  0.00  0.00    +0.000 A 
ATOM     21  N   UNL     1       4.126   5.880  19.450  0.00  0.00    +0.000 NA
ATOM     22  C   UNL     1       5.064   5.567  18.497  0.00  0.00    +0.000 A 
ATOM     23  C   UNL     1       6.304   4.934  18.640  0.00  0.00    +0.000 A 
ATOM     24  C   UNL     1       7.059   4.725  17.487  0.00  0.00    +0.000 A 
ATOM     25  F   UNL     1       8.248   4.115  17.588  0.00  0.00    +0.000 F 
ATOM     26  C   UNL     1       6.613   5.127  16.228  0.00  0.00    +0.000 A 
ATOM     27  C   UNL     1       5.378   5.764  16.073  0.00  0.00    +0.000 A 
ATOM     28  C   UNL     1       4.634   5.963  17.237  0.00  0.00    +0.000 A 
ATOM     29  N   UNL     1       3.403   6.526  17.458  0.00  0.00    +0.000 N 
ATOM     30  H   UNL     1       2.796   6.913  16.752  0.00  0.00    +0.000 HD
ENDBRANCH  19  20
ENDBRANCH   1  19
TORSDOF 3
ENDMDL
MODEL 7
REMARK VINA RESULT:      -8.5      3.755      7.035
REMARK  Name = 
REMARK  4 active torsions:
REMARK  status: ('A' for Active; 'I' for Inactive)
REMARK    1  A    between atoms: C_1  and  C_2
REMARK    2  A    between atoms: C_2  and  C_3
REMARK    3  A    between atoms: C_2  and  C_13
REMARK    4  A    between atoms: C_16  and  C_17
REMARK                            x       y       z     vdW  Elec       q    Type
REMARK                         _______ _______ _______ _____ _____    ______ ____
ROOT
ATOM      1  C   UNL     1       0.822  10.657  20.046  0.00  0.00    +0.000 C 
ATOM      2  C   UNL     1       0.783  12.202  20.091  0.00  0.00    +0.000 C 
ATOM      3  C   UNL     1       0.394  12.804  21.438  0.00  0.00    +0.000 C 
ATOM      4  C   UNL     1      -0.796  12.129  22.140  0.00  0.00    +0.000 C 
ATOM      5  C   UNL     1      -0.537  10.620  22.240  0.00  0.00    +0.000 C 
ATOM      6  C   UNL     1      -0.257   9.952  20.898  0.00  0.00    +0.000 C 
ENDROOT
BRANCH   4   7
ATOM      7  C   UNL     1      -2.195  12.458  21.597  0.00  0.00    +0.000 A 
ATOM      8  C   UNL     1      -2.411  12.560  20.217  0.00  0.00    +0.000 A 
ATOM      9  C   UNL     1      -3.684  12.737  19.711  0.00  0.00    +0.000 A 
ATOM     10  N   UNL     1      -4.776  12.820  20.477  0.00  0.00    +0.000 NA
ATOM     11  C   UNL     1      -4.611  12.733  21.800  0.00  0.00    +0.000 A 
ATOM     12  C   UNL     1      -5.763  12.788  22.567  0.00  0.00    +0.000 A 
ATOM     13  C   UNL     1      -5.724  12.713  23.956  0.00  0.00    +0.000 A 
ATOM     14  C   UNL     1      -4.500  12.597  24.583  0.00  0.00    +0.000 A 
ATOM     15  F   UNL     1      -4.443  12.544  25.920  0.00  0.00    +0.000 F 
ATOM     16  C   UNL     1      -3.322  12.528  23.847  0.00  0.00    +0.000 A 
ATOM     17  C   UNL     1      -3.343  12.572  22.434  0.00  0.00    +0.000 A 
ENDBRANCH   4   7
BRANCH   1  19
ATOM     18  C   UNL     1      -0.518   9.815  17.962  0.00  0.00    +0.000 C 
ATOM     19  C   UNL     1       0.857  10.140  18.569  0.00  0.00    +0.000 C 
BRANCH  19  20
ATOM     20  C   UNL     1       1.750   8.937  18.426  0.00  0.00    +0.000 A 
ATOM     21  N   UNL     1       2.590   8.695  17.438  0.00  0.00    +0.000 NA
ATOM     22  C   UNL     1       3.231   7.527  17.771  0.00  0.00    +0.000 A 
ATOM     23  C   UNL     1       4.239   6.836  17.088  0.00  0.00    +0.000 A 
ATOM     24  C   UNL     1       4.727   5.667  17.667  0.00  0.00    +0.000 A 
ATOM     25  F   UNL     1       5.698   4.985  17.041  0.00  0.00    +0.000 F 
ATOM     26  C   UNL     1       4.241   5.184  18.882  0.00  0.00    +0.000 A 
ATOM     27  C   UNL     1       3.233   5.862  19.572  0.00  0.00    +0.000 A 
ATOM     28  C   UNL     1       2.756   7.033  18.979  0.00  0.00    +0.000 A 
ATOM     29  N   UNL     1       1.806   7.941  19.369  0.00  0.00    +0.000 N 
ATOM     30  H   UNL     1       1.261   7.899  20.216  0.00  0.00    +0.000 HD
ENDBRANCH  19  20
ENDBRANCH   1  19
TORSDOF 3
ENDMDL
MODEL 8
REMARK VINA RESULT:      -8.4      2.478      3.608
REMARK  Name = 
REMARK  4 active torsions:
REMARK  status: ('A' for Active; 'I' for Inactive)
REMARK    1  A    between atoms: C_1  and  C_2
REMARK    2  A    between atoms: C_2  and  C_3
REMARK    3  A    between atoms: C_2  and  C_13
REMARK    4  A    between atoms: C_16  and  C_17
REMARK                            x       y       z     vdW  Elec       q    Type
REMARK                         _______ _______ _______ _____ _____    ______ ____
ROOT
ATOM      1  C   UNL     1       2.670   2.261  19.802  0.00  0.00    +0.000 C 
ATOM      2  C   UNL     1       3.153   3.125  20.990  0.00  0.00    +0.000 C 
ATOM      3  C   UNL     1       2.070   3.951  21.676  0.00  0.00    +0.000 C 
ATOM      4  C   UNL     1       1.100   4.678  20.731  0.00  0.00    +0.000 C 
ATOM      5  C   UNL     1       0.507   3.670  19.737  0.00  0.00    +0.000 C 
ATOM      6  C   UNL     1       1.557   2.899  18.942  0.00  0.00    +0.000 C 
ENDROOT
BRANCH   4   7
ATOM      7  C   UNL     1       1.625   5.949  20.046  0.00  0.00    +0.000 A 
ATOM      8  C   UNL     1       2.481   5.854  18.943  0.00  0.00    +0.000 A 
ATOM      9  C   UNL     1       2.865   6.983  18.245  0.00  0.00    +0.000 A 
ATOM     10  N   UNL     1       2.460   8.217  18.561  0.00  0.00    +0.000 NA
ATOM     11  C   UNL     1       1.646   8.350  19.613  0.00  0.00    +0.000 A 
ATOM     12  C   UNL     1       1.215   9.636  19.895  0.00  0.00    +0.000 A 
ATOM     13  C   UNL     1       0.368   9.906  20.966  0.00  0.00    +0.000 A 
ATOM     14  C   UNL     1      -0.036   8.864  21.777  0.00  0.00    +0.000 A 
ATOM     15  F   UNL     1      -0.833   9.110  22.824  0.00  0.00    +0.000 F 
ATOM     16  C   UNL     1       0.368   7.559  21.519  0.00  0.00    +0.000 A 
ATOM     17  C   UNL     1       1.203   7.259  20.417  0.00  0.00    +0.000 A 
ENDBRANCH   4   7
BRANCH   1  19
ATOM     18  C   UNL     1       4.858   0.829  19.684  0.00  0.00    +0.000 C 
ATOM     19  C   UNL     1       3.880   1.759  18.945  0.00  0.00    +0.000 C 
BRANCH  19  20
ATOM     20  C   UNL     1       4.651   2.906  18.352  0.00  0.00    +0.000 A 
ATOM     21  N   UNL     1       5.344   3.813  19.013  0.00  0.00    +0.000 NA
ATOM     22  C   UNL     1       5.928   4.608  18.057  0.00  0.00    +0.000 A 
ATOM     23  C   UNL     1       6.788   5.702  18.209  0.00  0.00    +0.000 A 
ATOM     24  C   UNL     1       7.250   6.326  17.052  0.00  0.00    +0.000 A 
ATOM     25  F   UNL     1       8.081   7.372  17.164  0.00  0.00    +0.000 F 
ATOM     26  C   UNL     1       6.879   5.894  15.779  0.00  0.00    +0.000 A 
ATOM     27  C   UNL     1       6.017   4.805  15.614  0.00  0.00    +0.000 A 
ATOM     28  C   UNL     1       5.565   4.190  16.783  0.00  0.00    +0.000 A 
ATOM     29  N   UNL     1       4.744   3.113  16.998  0.00  0.00    +0.000 N 
ATOM     30  H   UNL     1       4.303   2.554  16.283  0.00  0.00    +0.000 HD
ENDBRANCH  19  20
ENDBRANCH   1  19
TORSDOF 3
ENDMDL
MODEL 9
REMARK VINA RESULT:      -8.4      4.150      6.441
REMARK  Name = 
REMARK  4 active torsions:
REMARK  status: ('A' for Active; 'I' for Inactive)
REMARK    1  A    between atoms: C_1  and  C_2
REMARK    2  A    between atoms: C_2  and  C_3
REMARK    3  A    between atoms: C_2  and  C_13
REMARK    4  A    between atoms: C_16  and  C_17
REMARK                            x       y       z     vdW  Elec       q    Type
REMARK                         _______ _______ _______ _____ _____    ______ ____
ROOT
ATOM      1  C   UNL     1       6.783   6.134  17.186  0.00  0.00    +0.000 C 
ATOM      2  C   UNL     1       6.187   4.727  17.421  0.00  0.00    +0.000 C 
ATOM      3  C   UNL     1       4.833   4.476  16.763  0.00  0.00    +0.000 C 
ATOM      4  C   UNL     1       3.812   5.616  16.904  0.00  0.00    +0.000 C 
ATOM      5  C   UNL     1       4.447   6.928  16.423  0.00  0.00    +0.000 C 
ATOM      6  C   UNL     1       5.748   7.281  17.137  0.00  0.00    +0.000 C 
ENDROOT
BRANCH   4   7
ATOM      7  C   UNL     1       3.116   5.756  18.266  0.00  0.00    +0.000 A 
ATOM      8  C   UNL     1       2.881   7.024  18.811  0.00  0.00    +0.000 A 
ATOM      9  C   UNL     1       2.152   7.170  19.975  0.00  0.00    +0.000 A 
ATOM     10  N   UNL     1       1.630   6.141  20.651  0.00  0.00    +0.000 NA
ATOM     11  C   UNL     1       1.838   4.914  20.165  0.00  0.00    +0.000 A 
ATOM     12  C   UNL     1       1.256   3.871  20.867  0.00  0.00    +0.000 A 
ATOM     13  C   UNL     1       1.403   2.546  20.466  0.00  0.00    +0.000 A 
ATOM     14  C   UNL     1       2.163   2.268  19.348  0.00  0.00    +0.000 A 
ATOM     15  F   UNL     1       2.332   0.997  18.961  0.00  0.00    +0.000 F 
ATOM     16  C   UNL     1       2.754   3.289  18.613  0.00  0.00    +0.000 A 
ATOM     17  C   UNL     1       2.592   4.643  18.986  0.00  0.00    +0.000 A 
ENDBRANCH   4   7
BRANCH   1  19
ATOM     18  C   UNL     1       7.740   5.885  19.609  0.00  0.00    +0.000 C 
ATOM     19  C   UNL     1       7.954   6.422  18.183  0.00  0.00    +0.000 C 
BRANCH  19  20
ATOM     20  C   UNL     1       8.269   7.891  18.257  0.00  0.00    +0.000 A 
ATOM     21  N   UNL     1       7.929   8.813  17.378  0.00  0.00    +0.000 NA
ATOM     22  C   UNL     1       8.367  10.006  17.899  0.00  0.00    +0.000 A 
ATOM     23  C   UNL     1       8.242  11.303  17.388  0.00  0.00    +0.000 A 
ATOM     24  C   UNL     1       8.775  12.348  18.140  0.00  0.00    +0.000 A 
ATOM     25  F   UNL     1       8.665  13.603  17.682  0.00  0.00    +0.000 F 
ATOM     26  C   UNL     1       9.415  12.131  19.360  0.00  0.00    +0.000 A 
ATOM     27  C   UNL     1       9.551  10.840  19.879  0.00  0.00    +0.000 A 
ATOM     28  C   UNL     1       9.010   9.804  19.114  0.00  0.00    +0.000 A 
ATOM     29  N   UNL     1       8.945   8.450  19.313  0.00  0.00    +0.000 N 
ATOM     30  H   UNL     1       9.308   7.952  20.112  0.00  0.00    +0.000 HD
ENDBRANCH  19  20
ENDBRANCH   1  19
TORSDOF 3
ENDMDL
