MODEL 1
REMARK VINA RESULT:      -7.3      0.000      0.000
REMARK  Name = 
REMARK  3 active torsions:
REMARK  status: ('A' for Active; 'I' for Inactive)
REMARK    1  A    between atoms: O_1  and  C_2
REMARK    2  A    between atoms: N_24  and  C_25
REMARK    3  A    between atoms: C_25  and  C_26
REMARK                            x       y       z     vdW  Elec       q    Type
REMARK                         _______ _______ _______ _____ _____    ______ ____
ROOT
ATOM      1  C   UNL     1      -2.024  12.860  20.592  0.00  0.00    +0.000 C 
ATOM      2  C   UNL     1      -3.147  12.254  19.668  0.00  0.00    +0.000 C 
ATOM      3  C   UNL     1      -2.582  11.611  18.399  0.00  0.00    +0.000 A 
ATOM      4  C   UNL     1      -1.253  11.262  18.329  0.00  0.00    +0.000 A 
ATOM      5  N   UNL     1      -1.072  10.500  17.210  0.00  0.00    +0.000 N 
ATOM      6  C   UNL     1      -2.217  10.462  16.464  0.00  0.00    +0.000 A 
ATOM      7  C   UNL     1      -2.465   9.784  15.260  0.00  0.00    +0.000 A 
ATOM      8  C   UNL     1      -3.678  10.018  14.619  0.00  0.00    +0.000 A 
ATOM      9  C   UNL     1      -4.604  10.898  15.175  0.00  0.00    +0.000 A 
ATOM     10  C   UNL     1      -4.375  11.505  16.429  0.00  0.00    +0.000 A 
ATOM     11  C   UNL     1      -3.161  11.266  17.118  0.00  0.00    +0.000 A 
ATOM     12  C   UNL     1      -0.145  11.570  19.263  0.00  0.00    +0.000 C 
ATOM     13  O   UNL     1       0.484  10.275  19.509  0.00  0.00    +0.000 OA
ATOM     14  C   UNL     1       0.151   9.976  20.796  0.00  0.00    +0.000 A 
ATOM     15  C   UNL     1       0.545   8.847  21.478  0.00  0.00    +0.000 A 
ATOM     16  C   UNL     1       0.375   8.844  22.865  0.00  0.00    +0.000 A 
ATOM     17  C   UNL     1      -0.326   9.890  23.498  0.00  0.00    +0.000 A 
ATOM     18  C   UNL     1      -0.908  10.910  22.737  0.00  0.00    +0.000 A 
ATOM     19  C   UNL     1      -0.554  10.982  21.417  0.00  0.00    +0.000 A 
ATOM     20  C   UNL     1      -0.636  12.219  20.587  0.00  0.00    +0.000 C 
ATOM     21  C   UNL     1       0.343  13.281  21.232  0.00  0.00    +0.000 C 
ATOM     22  C   UNL     1      -0.309  14.423  22.135  0.00  0.00    +0.000 C 
ATOM     23  N   UNL     1      -1.688  14.268  22.657  0.00  0.00    +0.000 NA
ATOM     24  C   UNL     1      -2.343  13.052  22.166  0.00  0.00    +0.000 C 
ATOM     25  C   UNL     1      -1.763  12.012  23.258  0.00  0.00    +0.000 C 
ATOM     26  H   UNL     1      -0.219  10.016  16.991  0.00  0.00    +0.000 HD
ENDROOT
BRANCH   1  27
ATOM     27  O   UNL     1      -1.849  14.177  19.957  0.00  0.00    +0.000 OA
ATOM     28  H   UNL     1      -1.828  14.021  18.999  0.00  0.00    +0.000 HD
ENDBRANCH   1  27
BRANCH  23  29
ATOM     29  C   UNL     1      -2.465  15.495  22.801  0.00  0.00    +0.000 C 
BRANCH  29  30
ATOM     30  C   UNL     1      -3.243  15.630  24.091  0.00  0.00    +0.000 C 
ATOM     31  C   UNL     1      -2.833  15.012  25.410  0.00  0.00    +0.000 C 
ATOM     32  C   UNL     1      -2.684  16.490  25.206  0.00  0.00    +0.000 C 
ENDBRANCH  29  30
ENDBRANCH  23  29
TORSDOF 3
ENDMDL
MODEL 2
REMARK VINA RESULT:      -7.3      3.741      6.099
REMARK  Name = 
REMARK  3 active torsions:
REMARK  status: ('A' for Active; 'I' for Inactive)
REMARK    1  A    between atoms: O_1  and  C_2
REMARK    2  A    between atoms: N_24  and  C_25
REMARK    3  A    between atoms: C_25  and  C_26
REMARK                            x       y       z     vdW  Elec       q    Type
REMARK                         _______ _______ _______ _____ _____    ______ ____
ROOT
ATOM      1  C   UNL     1      -5.457  13.170  20.428  0.00  0.00    +0.000 C 
ATOM      2  C   UNL     1      -4.119  12.692  19.747  0.00  0.00    +0.000 C 
ATOM      3  C   UNL     1      -4.356  11.995  18.405  0.00  0.00    +0.000 A 
ATOM      4  C   UNL     1      -5.545  12.165  17.734  0.00  0.00    +0.000 A 
ATOM      5  N   UNL     1      -5.403  11.647  16.479  0.00  0.00    +0.000 N 
ATOM      6  C   UNL     1      -4.200  11.009  16.355  0.00  0.00    +0.000 A 
ATOM      7  C   UNL     1      -3.654  10.362  15.236  0.00  0.00    +0.000 A 
ATOM      8  C   UNL     1      -2.463   9.661  15.406  0.00  0.00    +0.000 A 
ATOM      9  C   UNL     1      -1.847   9.622  16.655  0.00  0.00    +0.000 A 
ATOM     10  C   UNL     1      -2.364  10.349  17.749  0.00  0.00    +0.000 A 
ATOM     11  C   UNL     1      -3.561  11.092  17.600  0.00  0.00    +0.000 A 
ATOM     12  C   UNL     1      -6.799  12.812  18.184  0.00  0.00    +0.000 C 
ATOM     13  O   UNL     1      -7.127  13.742  17.106  0.00  0.00    +0.000 OA
ATOM     14  C   UNL     1      -6.891  14.974  17.638  0.00  0.00    +0.000 A 
ATOM     15  C   UNL     1      -7.084  16.172  16.988  0.00  0.00    +0.000 A 
ATOM     16  C   UNL     1      -7.088  17.331  17.769  0.00  0.00    +0.000 A 
ATOM     17  C   UNL     1      -6.738  17.272  19.133  0.00  0.00    +0.000 A 
ATOM     18  C   UNL     1      -6.328  16.062  19.703  0.00  0.00    +0.000 A 
ATOM     19  C   UNL     1      -6.527  14.927  18.965  0.00  0.00    +0.000 A 
ATOM     20  C   UNL     1      -6.641  13.554  19.541  0.00  0.00    +0.000 C 
ATOM     21  C   UNL     1      -7.916  13.546  20.478  0.00  0.00    +0.000 C 
ATOM     22  C   UNL     1      -7.669  13.662  22.050  0.00  0.00    +0.000 C 
ATOM     23  N   UNL     1      -6.367  14.144  22.568  0.00  0.00    +0.000 NA
ATOM     24  C   UNL     1      -5.387  14.375  21.504  0.00  0.00    +0.000 C 
ATOM     25  C   UNL     1      -5.830  15.874  21.093  0.00  0.00    +0.000 C 
ATOM     26  H   UNL     1      -6.083  11.752  15.746  0.00  0.00    +0.000 HD
ENDROOT
BRANCH   1  27
ATOM     27  O   UNL     1      -5.862  11.925  21.102  0.00  0.00    +0.000 OA
ATOM     28  H   UNL     1      -5.613  12.021  22.035  0.00  0.00    +0.000 HD
ENDBRANCH   1  27
BRANCH  23  29
ATOM     29  C   UNL     1      -5.928  13.574  23.838  0.00  0.00    +0.000 C 
BRANCH  29  30
ATOM     30  C   UNL     1      -4.436  13.599  24.087  0.00  0.00    +0.000 C 
ATOM     31  C   UNL     1      -3.741  12.874  25.218  0.00  0.00    +0.000 C 
ATOM     32  C   UNL     1      -3.619  12.352  23.817  0.00  0.00    +0.000 C 
ENDBRANCH  29  30
ENDBRANCH  23  29
TORSDOF 3
ENDMDL
MODEL 3
REMARK VINA RESULT:      -7.0      2.827      5.333
REMARK  Name = 
REMARK  3 active torsions:
REMARK  status: ('A' for Active; 'I' for Inactive)
REMARK    1  A    between atoms: O_1  and  C_2
REMARK    2  A    between atoms: N_24  and  C_25
REMARK    3  A    between atoms: C_25  and  C_26
REMARK                            x       y       z     vdW  Elec       q    Type
REMARK                         _______ _______ _______ _____ _____    ______ ____
ROOT
ATOM      1  C   UNL     1       0.152  10.461  20.737  0.00  0.00    +0.000 C 
ATOM      2  C   UNL     1       1.096   9.264  21.137  0.00  0.00    +0.000 C 
ATOM      3  C   UNL     1       1.607   8.485  19.922  0.00  0.00    +0.000 A 
ATOM      4  C   UNL     1       1.562   9.045  18.667  0.00  0.00    +0.000 A 
ATOM      5  N   UNL     1       2.288   8.257  17.823  0.00  0.00    +0.000 N 
ATOM      6  C   UNL     1       2.687   7.113  18.457  0.00  0.00    +0.000 A 
ATOM      7  C   UNL     1       3.461   6.052  17.962  0.00  0.00    +0.000 A 
ATOM      8  C   UNL     1       3.615   4.927  18.767  0.00  0.00    +0.000 A 
ATOM      9  C   UNL     1       3.014   4.879  20.024  0.00  0.00    +0.000 A 
ATOM     10  C   UNL     1       2.311   5.989  20.541  0.00  0.00    +0.000 A 
ATOM     11  C   UNL     1       2.160   7.158  19.755  0.00  0.00    +0.000 A 
ATOM     12  C   UNL     1       0.906  10.294  18.213  0.00  0.00    +0.000 C 
ATOM     13  O   UNL     1       1.954  11.000  17.479  0.00  0.00    +0.000 OA
ATOM     14  C   UNL     1       2.278  12.053  18.279  0.00  0.00    +0.000 A 
ATOM     15  C   UNL     1       3.214  13.018  17.984  0.00  0.00    +0.000 A 
ATOM     16  C   UNL     1       3.203  14.180  18.761  0.00  0.00    +0.000 A 
ATOM     17  C   UNL     1       2.376  14.269  19.898  0.00  0.00    +0.000 A 
ATOM     18  C   UNL     1       1.601  13.172  20.293  0.00  0.00    +0.000 A 
ATOM     19  C   UNL     1       1.490  12.137  19.405  0.00  0.00    +0.000 A 
ATOM     20  C   UNL     1       0.367  11.154  19.391  0.00  0.00    +0.000 C 
ATOM     21  C   UNL     1      -0.960  11.964  19.095  0.00  0.00    +0.000 C 
ATOM     22  C   UNL     1      -1.905  12.297  20.336  0.00  0.00    +0.000 C 
ATOM     23  N   UNL     1      -1.384  12.202  21.720  0.00  0.00    +0.000 NA
ATOM     24  C   UNL     1      -0.010  11.693  21.772  0.00  0.00    +0.000 C 
ATOM     25  C   UNL     1       0.769  13.086  21.524  0.00  0.00    +0.000 C 
ATOM     26  H   UNL     1       2.516   8.506  16.876  0.00  0.00    +0.000 HD
ENDROOT
BRANCH   1  27
ATOM     27  O   UNL     1      -1.129   9.747  20.609  0.00  0.00    +0.000 OA
ATOM     28  H   UNL     1      -1.206   9.480  19.680  0.00  0.00    +0.000 HD
ENDBRANCH   1  27
BRANCH  23  29
ATOM     29  C   UNL     1      -2.341  11.792  22.744  0.00  0.00    +0.000 C 
BRANCH  29  30
ATOM     30  C   UNL     1      -3.202  12.897  23.315  0.00  0.00    +0.000 C 
ATOM     31  C   UNL     1      -4.696  13.015  23.111  0.00  0.00    +0.000 C 
ATOM     32  C   UNL     1      -4.161  12.580  24.443  0.00  0.00    +0.000 C 
ENDBRANCH  29  30
ENDBRANCH  23  29
TORSDOF 3
ENDMDL
MODEL 4
REMARK VINA RESULT:      -6.9      0.750      1.148
REMARK  Name = 
REMARK  3 active torsions:
REMARK  status: ('A' for Active; 'I' for Inactive)
REMARK    1  A    between atoms: O_1  and  C_2
REMARK    2  A    between atoms: N_24  and  C_25
REMARK    3  A    between atoms: C_25  and  C_26
REMARK                            x       y       z     vdW  Elec       q    Type
REMARK                         _______ _______ _______ _____ _____    ______ ____
ROOT
ATOM      1  C   UNL     1      -2.086  12.891  20.577  0.00  0.00    +0.000 C 
ATOM      2  C   UNL     1      -3.193  12.268  19.647  0.00  0.00    +0.000 C 
ATOM      3  C   UNL     1      -2.611  11.623  18.386  0.00  0.00    +0.000 A 
ATOM      4  C   UNL     1      -1.278  11.288  18.330  0.00  0.00    +0.000 A 
ATOM      5  N   UNL     1      -1.079  10.522  17.217  0.00  0.00    +0.000 N 
ATOM      6  C   UNL     1      -2.217  10.467  16.461  0.00  0.00    +0.000 A 
ATOM      7  C   UNL     1      -2.447   9.780  15.260  0.00  0.00    +0.000 A 
ATOM      8  C   UNL     1      -3.657   9.997  14.606  0.00  0.00    +0.000 A 
ATOM      9  C   UNL     1      -4.598  10.870  15.150  0.00  0.00    +0.000 A 
ATOM     10  C   UNL     1      -4.386  11.487  16.402  0.00  0.00    +0.000 A 
ATOM     11  C   UNL     1      -3.175  11.264  17.103  0.00  0.00    +0.000 A 
ATOM     12  C   UNL     1      -0.181  11.614  19.271  0.00  0.00    +0.000 C 
ATOM     13  O   UNL     1       0.460  10.327  19.531  0.00  0.00    +0.000 OA
ATOM     14  C   UNL     1       0.119  10.032  20.816  0.00  0.00    +0.000 A 
ATOM     15  C   UNL     1       0.519   8.911  21.508  0.00  0.00    +0.000 A 
ATOM     16  C   UNL     1       0.337   8.915  22.894  0.00  0.00    +0.000 A 
ATOM     17  C   UNL     1      -0.380   9.956  23.515  0.00  0.00    +0.000 A 
ATOM     18  C   UNL     1      -0.967  10.966  22.743  0.00  0.00    +0.000 A 
ATOM     19  C   UNL     1      -0.602  11.034  21.425  0.00  0.00    +0.000 A 
ATOM     20  C   UNL     1      -0.690  12.266  20.587  0.00  0.00    +0.000 C 
ATOM     21  C   UNL     1       0.272  13.341  21.234  0.00  0.00    +0.000 C 
ATOM     22  C   UNL     1      -0.400  14.482  22.125  0.00  0.00    +0.000 C 
ATOM     23  N   UNL     1      -1.782  14.315  22.636  0.00  0.00    +0.000 NA
ATOM     24  C   UNL     1      -2.419  13.089  22.147  0.00  0.00    +0.000 C 
ATOM     25  C   UNL     1      -1.838  12.061  23.250  0.00  0.00    +0.000 C 
ATOM     26  H   UNL     1      -0.219  10.046  17.008  0.00  0.00    +0.000 HD
ENDROOT
BRANCH   1  27
ATOM     27  O   UNL     1      -1.919  14.206  19.935  0.00  0.00    +0.000 OA
ATOM     28  H   UNL     1      -1.715  14.836  20.644  0.00  0.00    +0.000 HD
ENDBRANCH   1  27
BRANCH  23  29
ATOM     29  C   UNL     1      -2.573  15.534  22.766  0.00  0.00    +0.000 C 
BRANCH  29  30
ATOM     30  C   UNL     1      -1.877  16.813  22.355  0.00  0.00    +0.000 C 
ATOM     31  C   UNL     1      -2.412  17.791  21.332  0.00  0.00    +0.000 C 
ATOM     32  C   UNL     1      -2.457  18.144  22.789  0.00  0.00    +0.000 C 
ENDBRANCH  29  30
ENDBRANCH  23  29
TORSDOF 3
ENDMDL
MODEL 5
REMARK VINA RESULT:      -6.7      3.480      6.057
REMARK  Name = 
REMARK  3 active torsions:
REMARK  status: ('A' for Active; 'I' for Inactive)
REMARK    1  A    between atoms: O_1  and  C_2
REMARK    2  A    between atoms: N_24  and  C_25
REMARK    3  A    between atoms: C_25  and  C_26
REMARK                            x       y       z     vdW  Elec       q    Type
REMARK                         _______ _______ _______ _____ _____    ______ ____
ROOT
ATOM      1  C   UNL     1      -5.207  13.795  20.733  0.00  0.00    +0.000 C 
ATOM      2  C   UNL     1      -3.702  13.584  20.322  0.00  0.00    +0.000 C 
ATOM      3  C   UNL     1      -3.501  12.358  19.427  0.00  0.00    +0.000 A 
ATOM      4  C   UNL     1      -4.568  11.803  18.759  0.00  0.00    +0.000 A 
ATOM      5  N   UNL     1      -4.083  10.898  17.860  0.00  0.00    +0.000 N 
ATOM      6  C   UNL     1      -2.735  10.735  18.021  0.00  0.00    +0.000 A 
ATOM      7  C   UNL     1      -1.851   9.920  17.298  0.00  0.00    +0.000 A 
ATOM      8  C   UNL     1      -0.537   9.823  17.749  0.00  0.00    +0.000 A 
ATOM      9  C   UNL     1      -0.134  10.526  18.883  0.00  0.00    +0.000 A 
ATOM     10  C   UNL     1      -1.013  11.408  19.548  0.00  0.00    +0.000 A 
ATOM     11  C   UNL     1      -2.349  11.547  19.096  0.00  0.00    +0.000 A 
ATOM     12  C   UNL     1      -6.016  12.090  18.888  0.00  0.00    +0.000 C 
ATOM     13  O   UNL     1      -6.460  12.307  17.513  0.00  0.00    +0.000 OA
ATOM     14  C   UNL     1      -6.712  13.644  17.445  0.00  0.00    +0.000 A 
ATOM     15  C   UNL     1      -7.179  14.311  16.335  0.00  0.00    +0.000 A 
ATOM     16  C   UNL     1      -7.669  15.606  16.524  0.00  0.00    +0.000 A 
ATOM     17  C   UNL     1      -7.526  16.246  17.771  0.00  0.00    +0.000 A 
ATOM     18  C   UNL     1      -6.840  15.612  18.814  0.00  0.00    +0.000 A 
ATOM     19  C   UNL     1      -6.553  14.284  18.654  0.00  0.00    +0.000 A 
ATOM     20  C   UNL     1      -6.307  13.332  19.777  0.00  0.00    +0.000 C 
ATOM     21  C   UNL     1      -7.636  13.264  20.632  0.00  0.00    +0.000 C 
ATOM     22  C   UNL     1      -7.676  14.102  21.989  0.00  0.00    +0.000 C 
ATOM     23  N   UNL     1      -6.689  15.181  22.231  0.00  0.00    +0.000 NA
ATOM     24  C   UNL     1      -5.687  15.278  21.166  0.00  0.00    +0.000 C 
ATOM     25  C   UNL     1      -6.520  16.208  20.140  0.00  0.00    +0.000 C 
ATOM     26  H   UNL     1      -4.644  10.441  17.162  0.00  0.00    +0.000 HD
ENDROOT
BRANCH   1  27
ATOM     27  O   UNL     1      -5.289  12.889  21.891  0.00  0.00    +0.000 OA
ATOM     28  H   UNL     1      -6.231  12.706  22.033  0.00  0.00    +0.000 HD
ENDBRANCH   1  27
BRANCH  23  29
ATOM     29  C   UNL     1      -6.284  15.385  23.619  0.00  0.00    +0.000 C 
BRANCH  29  30
ATOM     30  C   UNL     1      -5.159  16.372  23.835  0.00  0.00    +0.000 C 
ATOM     31  C   UNL     1      -5.040  17.291  25.030  0.00  0.00    +0.000 C 
ATOM     32  C   UNL     1      -4.134  16.102  24.917  0.00  0.00    +0.000 C 
ENDBRANCH  29  30
ENDBRANCH  23  29
TORSDOF 3
ENDMDL
MODEL 6
REMARK VINA RESULT:      -6.7      2.898      4.731
REMARK  Name = 
REMARK  3 active torsions:
REMARK  status: ('A' for Active; 'I' for Inactive)
REMARK    1  A    between atoms: O_1  and  C_2
REMARK    2  A    between atoms: N_24  and  C_25
REMARK    3  A    between atoms: C_25  and  C_26
REMARK                            x       y       z     vdW  Elec       q    Type
REMARK                         _______ _______ _______ _____ _____    ______ ____
ROOT
ATOM      1  C   UNL     1      -0.451  12.249  21.277  0.00  0.00    +0.000 C 
ATOM      2  C   UNL     1       0.503  11.008  21.455  0.00  0.00    +0.000 C 
ATOM      3  C   UNL     1       0.892  10.367  20.120  0.00  0.00    +0.000 A 
ATOM      4  C   UNL     1       0.748  11.067  18.945  0.00  0.00    +0.000 A 
ATOM      5  N   UNL     1       1.385  10.374  17.956  0.00  0.00    +0.000 N 
ATOM      6  C   UNL     1       1.817   9.162  18.420  0.00  0.00    +0.000 A 
ATOM      7  C   UNL     1       2.526   8.158  17.742  0.00  0.00    +0.000 A 
ATOM      8  C   UNL     1       2.728   6.948  18.399  0.00  0.00    +0.000 A 
ATOM      9  C   UNL     1       2.239   6.762  19.690  0.00  0.00    +0.000 A 
ATOM     10  C   UNL     1       1.603   7.812  20.389  0.00  0.00    +0.000 A 
ATOM     11  C   UNL     1       1.406   9.063  19.756  0.00  0.00    +0.000 A 
ATOM     12  C   UNL     1       0.078  12.365  18.694  0.00  0.00    +0.000 C 
ATOM     13  O   UNL     1       1.070  13.141  17.954  0.00  0.00    +0.000 OA
ATOM     14  C   UNL     1       1.481  14.094  18.836  0.00  0.00    +0.000 A 
ATOM     15  C   UNL     1       2.405  15.079  18.570  0.00  0.00    +0.000 A 
ATOM     16  C   UNL     1       2.483  16.145  19.470  0.00  0.00    +0.000 A 
ATOM     17  C   UNL     1       1.759  16.111  20.679  0.00  0.00    +0.000 A 
ATOM     18  C   UNL     1       1.002  14.982  21.015  0.00  0.00    +0.000 A 
ATOM     19  C   UNL     1       0.796  14.055  20.029  0.00  0.00    +0.000 A 
ATOM     20  C   UNL     1      -0.342  13.089  20.004  0.00  0.00    +0.000 C 
ATOM     21  C   UNL     1      -1.674  13.938  19.919  0.00  0.00    +0.000 C 
ATOM     22  C   UNL     1      -2.502  14.135  21.269  0.00  0.00    +0.000 C 
ATOM     23  N   UNL     1      -1.864  13.879  22.582  0.00  0.00    +0.000 NA
ATOM     24  C   UNL     1      -0.501  13.357  22.454  0.00  0.00    +0.000 C 
ATOM     25  C   UNL     1       0.279  14.763  22.297  0.00  0.00    +0.000 C 
ATOM     26  H   UNL     1       1.534  10.727  17.027  0.00  0.00    +0.000 HD
ENDROOT
BRANCH   1  27
ATOM     27  O   UNL     1      -1.751  11.564  21.183  0.00  0.00    +0.000 OA
ATOM     28  H   UNL     1      -1.580  10.623  21.341  0.00  0.00    +0.000 HD
ENDBRANCH   1  27
BRANCH  23  29
ATOM     29  C   UNL     1      -2.736  13.363  23.633  0.00  0.00    +0.000 C 
BRANCH  29  30
ATOM     30  C   UNL     1      -4.182  13.154  23.240  0.00  0.00    +0.000 C 
ATOM     31  C   UNL     1      -5.264  12.664  24.177  0.00  0.00    +0.000 C 
ATOM     32  C   UNL     1      -5.237  14.106  23.765  0.00  0.00    +0.000 C 
ENDBRANCH  29  30
ENDBRANCH  23  29
TORSDOF 3
ENDMDL
MODEL 7
REMARK VINA RESULT:      -6.6      2.746      6.102
REMARK  Name = 
REMARK  3 active torsions:
REMARK  status: ('A' for Active; 'I' for Inactive)
REMARK    1  A    between atoms: O_1  and  C_2
REMARK    2  A    between atoms: N_24  and  C_25
REMARK    3  A    between atoms: C_25  and  C_26
REMARK                            x       y       z     vdW  Elec       q    Type
REMARK                         _______ _______ _______ _____ _____    ______ ____
ROOT
ATOM      1  C   UNL     1      -0.669  10.684  19.277  0.00  0.00    +0.000 C 
ATOM      2  C   UNL     1      -1.949  10.721  18.359  0.00  0.00    +0.000 C 
ATOM      3  C   UNL     1      -3.063  11.599  18.935  0.00  0.00    +0.000 A 
ATOM      4  C   UNL     1      -2.780  12.536  19.901  0.00  0.00    +0.000 A 
ATOM      5  N   UNL     1      -3.878  13.332  20.057  0.00  0.00    +0.000 N 
ATOM      6  C   UNL     1      -4.928  12.851  19.325  0.00  0.00    +0.000 A 
ATOM      7  C   UNL     1      -6.223  13.374  19.189  0.00  0.00    +0.000 A 
ATOM      8  C   UNL     1      -7.161  12.617  18.491  0.00  0.00    +0.000 A 
ATOM      9  C   UNL     1      -6.801  11.385  17.948  0.00  0.00    +0.000 A 
ATOM     10  C   UNL     1      -5.472  10.915  18.020  0.00  0.00    +0.000 A 
ATOM     11  C   UNL     1      -4.490  11.675  18.701  0.00  0.00    +0.000 A 
ATOM     12  C   UNL     1      -1.531  12.755  20.668  0.00  0.00    +0.000 C 
ATOM     13  O   UNL     1      -1.267  14.184  20.519  0.00  0.00    +0.000 OA
ATOM     14  C   UNL     1      -0.182  14.245  19.699  0.00  0.00    +0.000 A 
ATOM     15  C   UNL     1       0.445  15.401  19.293  0.00  0.00    +0.000 A 
ATOM     16  C   UNL     1       1.710  15.274  18.712  0.00  0.00    +0.000 A 
ATOM     17  C   UNL     1       2.229  14.000  18.408  0.00  0.00    +0.000 A 
ATOM     18  C   UNL     1       1.459  12.853  18.632  0.00  0.00    +0.000 A 
ATOM     19  C   UNL     1       0.320  13.004  19.377  0.00  0.00    +0.000 A 
ATOM     20  C   UNL     1      -0.342  11.904  20.138  0.00  0.00    +0.000 C 
ATOM     21  C   UNL     1       0.686  11.409  21.234  0.00  0.00    +0.000 C 
ATOM     22  C   UNL     1       1.487  10.063  20.929  0.00  0.00    +0.000 C 
ATOM     23  N   UNL     1       1.556   9.531  19.548  0.00  0.00    +0.000 NA
ATOM     24  C   UNL     1       0.752  10.310  18.602  0.00  0.00    +0.000 C 
ATOM     25  C   UNL     1       1.833  11.461  18.262  0.00  0.00    +0.000 C 
ATOM     26  H   UNL     1      -3.893  14.169  20.613  0.00  0.00    +0.000 HD
ENDROOT
BRANCH   1  27
ATOM     27  O   UNL     1      -1.062   9.630  20.226  0.00  0.00    +0.000 OA
ATOM     28  H   UNL     1      -0.243   9.294  20.622  0.00  0.00    +0.000 HD
ENDBRANCH   1  27
BRANCH  23  29
ATOM     29  C   UNL     1       1.611   8.077  19.419  0.00  0.00    +0.000 C 
BRANCH  29  30
ATOM     30  C   UNL     1       2.134   7.557  18.098  0.00  0.00    +0.000 C 
ATOM     31  C   UNL     1       3.596   7.510  17.713  0.00  0.00    +0.000 C 
ATOM     32  C   UNL     1       2.881   6.239  18.066  0.00  0.00    +0.000 C 
ENDBRANCH  29  30
ENDBRANCH  23  29
TORSDOF 3
ENDMDL
MODEL 8
REMARK VINA RESULT:      -6.6      2.855      4.800
REMARK  Name = 
REMARK  3 active torsions:
REMARK  status: ('A' for Active; 'I' for Inactive)
REMARK    1  A    between atoms: O_1  and  C_2
REMARK    2  A    between atoms: N_24  and  C_25
REMARK    3  A    between atoms: C_25  and  C_26
REMARK                            x       y       z     vdW  Elec       q    Type
REMARK                         _______ _______ _______ _____ _____    ______ ____
ROOT
ATOM      1  C   UNL     1      -0.082  12.089  20.918  0.00  0.00    +0.000 C 
ATOM      2  C   UNL     1       0.614  10.751  21.373  0.00  0.00    +0.000 C 
ATOM      3  C   UNL     1       1.086   9.900  20.192  0.00  0.00    +0.000 A 
ATOM      4  C   UNL     1       1.238  10.464  18.946  0.00  0.00    +0.000 A 
ATOM      5  N   UNL     1       1.890   9.568  18.150  0.00  0.00    +0.000 N 
ATOM      6  C   UNL     1       2.041   8.372  18.796  0.00  0.00    +0.000 A 
ATOM      7  C   UNL     1       2.666   7.198  18.348  0.00  0.00    +0.000 A 
ATOM      8  C   UNL     1       2.565   6.061  19.144  0.00  0.00    +0.000 A 
ATOM      9  C   UNL     1       1.864   6.111  20.348  0.00  0.00    +0.000 A 
ATOM     10  C   UNL     1       1.315   7.321  20.825  0.00  0.00    +0.000 A 
ATOM     11  C   UNL     1       1.424   8.500  20.048  0.00  0.00    +0.000 A 
ATOM     12  C   UNL     1       0.838  11.806  18.461  0.00  0.00    +0.000 C 
ATOM     13  O   UNL     1       2.044  12.329  17.825  0.00  0.00    +0.000 OA
ATOM     14  C   UNL     1       2.472  13.312  18.665  0.00  0.00    +0.000 A 
ATOM     15  C   UNL     1       3.576  14.108  18.462  0.00  0.00    +0.000 A 
ATOM     16  C   UNL     1       3.694  15.254  19.254  0.00  0.00    +0.000 A 
ATOM     17  C   UNL     1       2.803  15.476  20.322  0.00  0.00    +0.000 A 
ATOM     18  C   UNL     1       1.827  14.523  20.636  0.00  0.00    +0.000 A 
ATOM     19  C   UNL     1       1.619  13.522  19.725  0.00  0.00    +0.000 A 
ATOM     20  C   UNL     1       0.353  12.740  19.605  0.00  0.00    +0.000 C 
ATOM     21  C   UNL     1      -0.792  13.760  19.217  0.00  0.00    +0.000 C 
ATOM     22  C   UNL     1      -1.767  14.243  20.383  0.00  0.00    +0.000 C 
ATOM     23  N   UNL     1      -1.384  14.059  21.803  0.00  0.00    +0.000 NA
ATOM     24  C   UNL     1      -0.123  13.329  21.957  0.00  0.00    +0.000 C 
ATOM     25  C   UNL     1       0.894  14.573  21.795  0.00  0.00    +0.000 C 
ATOM     26  H   UNL     1       2.233   9.778  17.229  0.00  0.00    +0.000 HD
ENDROOT
BRANCH   1  27
ATOM     27  O   UNL     1      -1.450  11.599  20.676  0.00  0.00    +0.000 OA
ATOM     28  H   UNL     1      -2.049  12.227  21.107  0.00  0.00    +0.000 HD
ENDBRANCH   1  27
BRANCH  23  29
ATOM     29  C   UNL     1      -2.477  13.812  22.739  0.00  0.00    +0.000 C 
BRANCH  29  30
ATOM     30  C   UNL     1      -2.150  14.032  24.200  0.00  0.00    +0.000 C 
ATOM     31  C   UNL     1      -1.574  15.310  24.767  0.00  0.00    +0.000 C 
ATOM     32  C   UNL     1      -3.013  14.971  25.018  0.00  0.00    +0.000 C 
ENDBRANCH  29  30
ENDBRANCH  23  29
TORSDOF 3
ENDMDL
MODEL 9
REMARK VINA RESULT:      -6.6      2.755      4.599
REMARK  Name = 
REMARK  3 active torsions:
REMARK  status: ('A' for Active; 'I' for Inactive)
REMARK    1  A    between atoms: O_1  and  C_2
REMARK    2  A    between atoms: N_24  and  C_25
REMARK    3  A    between atoms: C_25  and  C_26
REMARK                            x       y       z     vdW  Elec       q    Type
REMARK                         _______ _______ _______ _____ _____    ______ ____
ROOT
ATOM      1  C   UNL     1      -0.684  12.557  21.531  0.00  0.00    +0.000 C 
ATOM      2  C   UNL     1       0.293  11.334  21.704  0.00  0.00    +0.000 C 
ATOM      3  C   UNL     1       0.641  10.663  20.373  0.00  0.00    +0.000 A 
ATOM      4  C   UNL     1       0.444  11.331  19.187  0.00  0.00    +0.000 A 
ATOM      5  N   UNL     1       1.053  10.620  18.193  0.00  0.00    +0.000 N 
ATOM      6  C   UNL     1       1.519   9.426  18.671  0.00  0.00    +0.000 A 
ATOM      7  C   UNL     1       2.216   8.415  17.993  0.00  0.00    +0.000 A 
ATOM      8  C   UNL     1       2.460   7.224  18.673  0.00  0.00    +0.000 A 
ATOM      9  C   UNL     1       2.021   7.066  19.986  0.00  0.00    +0.000 A 
ATOM     10  C   UNL     1       1.397   8.126  20.681  0.00  0.00    +0.000 A 
ATOM     11  C   UNL     1       1.159   9.358  20.024  0.00  0.00    +0.000 A 
ATOM     12  C   UNL     1      -0.253  12.612  18.928  0.00  0.00    +0.000 C 
ATOM     13  O   UNL     1       0.700  13.382  18.131  0.00  0.00    +0.000 OA
ATOM     14  C   UNL     1       1.130  14.363  18.973  0.00  0.00    +0.000 A 
ATOM     15  C   UNL     1       2.030  15.352  18.647  0.00  0.00    +0.000 A 
ATOM     16  C   UNL     1       2.126  16.443  19.516  0.00  0.00    +0.000 A 
ATOM     17  C   UNL     1       1.448  16.430  20.751  0.00  0.00    +0.000 A 
ATOM     18  C   UNL     1       0.720  15.301  21.144  0.00  0.00    +0.000 A 
ATOM     19  C   UNL     1       0.490  14.346  20.191  0.00  0.00    +0.000 A 
ATOM     20  C   UNL     1      -0.634  13.365  20.233  0.00  0.00    +0.000 C 
ATOM     21  C   UNL     1      -1.980  14.194  20.177  0.00  0.00    +0.000 C 
ATOM     22  C   UNL     1      -2.760  14.416  21.551  0.00  0.00    +0.000 C 
ATOM     23  N   UNL     1      -2.070  14.203  22.845  0.00  0.00    +0.000 NA
ATOM     24  C   UNL     1      -0.705  13.695  22.680  0.00  0.00    +0.000 C 
ATOM     25  C   UNL     1       0.048  15.107  22.458  0.00  0.00    +0.000 C 
ATOM     26  H   UNL     1       1.163  10.951  17.250  0.00  0.00    +0.000 HD
ENDROOT
BRANCH   1  27
ATOM     27  O   UNL     1      -1.977  11.854  21.503  0.00  0.00    +0.000 OA
ATOM     28  H   UNL     1      -2.501  12.265  20.798  0.00  0.00    +0.000 HD
ENDBRANCH   1  27
BRANCH  23  29
ATOM     29  C   UNL     1      -2.896  13.704  23.941  0.00  0.00    +0.000 C 
BRANCH  29  30
ATOM     30  C   UNL     1      -3.052  14.638  25.121  0.00  0.00    +0.000 C 
ATOM     31  C   UNL     1      -2.331  15.959  25.272  0.00  0.00    +0.000 C 
ATOM     32  C   UNL     1      -3.792  15.947  24.935  0.00  0.00    +0.000 C 
ENDBRANCH  29  30
ENDBRANCH  23  29
TORSDOF 3
ENDMDL
