MODEL 1
REMARK VINA RESULT:      -7.6      0.000      0.000
REMARK  Name = 
REMARK  6 active torsions:
REMARK  status: ('A' for Active; 'I' for Inactive)
REMARK    1  A    between atoms: C_1  and  C_2
REMARK    2  A    between atoms: C_9  and  N_10
REMARK    3  A    between atoms: N_12  and  C_13
REMARK    4  A    between atoms: C_13  and  C_14
REMARK    5  A    between atoms: C_19  and  C_20
REMARK    6  A    between atoms: C_24  and  C_25
REMARK                            x       y       z     vdW  Elec       q    Type
REMARK                         _______ _______ _______ _____ _____    ______ ____
ROOT
ATOM      1  C   UNL     1       1.963  10.339  17.822  0.00  0.00    +0.000 C 
ATOM      2  C   UNL     1       2.173   8.973  18.434  0.00  0.00    +0.000 A 
ATOM      3  N   UNL     1       3.086   8.197  17.762  0.00  0.00    +0.000 NA
ATOM      4  C   UNL     1       3.371   6.992  18.180  0.00  0.00    +0.000 A 
ATOM      5  N   UNL     1       4.381   6.296  17.527  0.00  0.00    +0.000 N 
ATOM      6  C   UNL     1       4.253   4.960  16.939  0.00  0.00    +0.000 C 
ATOM      7  C   UNL     1       5.538   4.172  17.245  0.00  0.00    +0.000 C 
ATOM      8  C   UNL     1       6.773   4.902  16.706  0.00  0.00    +0.000 C 
ATOM      9  C   UNL     1       6.817   6.358  17.198  0.00  0.00    +0.000 C 
ATOM     10  C   UNL     1       5.473   7.064  16.899  0.00  0.00    +0.000 C 
ATOM     11  N   UNL     1       2.776   6.481  19.327  0.00  0.00    +0.000 N 
ATOM     12  C   UNL     1       2.101   7.343  20.179  0.00  0.00    +0.000 A 
ATOM     13  O   UNL     1       1.985   7.137  21.389  0.00  0.00    +0.000 OA
ATOM     14  C   UNL     1       1.593   8.611  19.593  0.00  0.00    +0.000 A 
ENDROOT
BRANCH  14  15
ATOM     15  C   UNL     1       0.633   9.454  20.343  0.00  0.00    +0.000 A 
ATOM     16  C   UNL     1      -0.374  10.170  19.684  0.00  0.00    +0.000 A 
ATOM     17  C   UNL     1      -1.235  11.022  20.394  0.00  0.00    +0.000 A 
ATOM     18  C   UNL     1      -1.117  11.137  21.776  0.00  0.00    +0.000 A 
ATOM     19  C   UNL     1      -0.147  10.398  22.450  0.00  0.00    +0.000 A 
ATOM     20  C   UNL     1       0.731   9.572  21.742  0.00  0.00    +0.000 A 
ENDBRANCH  14  15
BRANCH   9  21
ATOM     21  N   UNL     1       7.960   7.063  16.609  0.00  0.00    +0.000 NA
ATOM     22  H   UNL     1       8.399   7.665  17.305  0.00  0.00    +0.000 HD
ATOM     23  H   UNL     1       7.634   7.679  15.865  0.00  0.00    +0.000 HD
ENDBRANCH   9  21
BRANCH  11  24
ATOM     24  C   UNL     1       3.125   5.182  19.898  0.00  0.00    +0.000 C 
BRANCH  24  25
ATOM     25  C   UNL     1       2.368   3.981  19.375  0.00  0.00    +0.000 A 
ATOM     26  C   UNL     1       1.128   4.148  18.737  0.00  0.00    +0.000 A 
ATOM     27  C   UNL     1       0.304   3.058  18.480  0.00  0.00    +0.000 A 
ATOM     28  C   UNL     1       0.724   1.776  18.811  0.00  0.00    +0.000 A 
ATOM     29  C   UNL     1       1.987   1.578  19.369  0.00  0.00    +0.000 A 
ATOM     30  C   UNL     1       2.812   2.671  19.656  0.00  0.00    +0.000 A 
BRANCH  30  31
ATOM     31  C   UNL     1       4.083   2.422  20.284  0.00  0.00    +0.000 C 
ATOM     32  N   UNL     1       5.103   2.188  20.805  0.00  0.00    +0.000 NA
ENDBRANCH  30  31
ENDBRANCH  24  25
ENDBRANCH  11  24
TORSDOF 5
ENDMDL
MODEL 2
REMARK VINA RESULT:      -7.3      7.050     10.050
REMARK  Name = 
REMARK  6 active torsions:
REMARK  status: ('A' for Active; 'I' for Inactive)
REMARK    1  A    between atoms: C_1  and  C_2
REMARK    2  A    between atoms: C_9  and  N_10
REMARK    3  A    between atoms: N_12  and  C_13
REMARK    4  A    between atoms: C_13  and  C_14
REMARK    5  A    between atoms: C_19  and  C_20
REMARK    6  A    between atoms: C_24  and  C_25
REMARK                            x       y       z     vdW  Elec       q    Type
REMARK                         _______ _______ _______ _____ _____    ______ ____
ROOT
ATOM      1  C   UNL     1       2.677  15.259  22.130  0.00  0.00    +0.000 C 
ATOM      2  C   UNL     1       1.461  14.631  21.488  0.00  0.00    +0.000 A 
ATOM      3  N   UNL     1       0.501  14.232  22.385  0.00  0.00    +0.000 NA
ATOM      4  C   UNL     1      -0.607  13.676  21.972  0.00  0.00    +0.000 A 
ATOM      5  N   UNL     1      -1.588  13.393  22.914  0.00  0.00    +0.000 N 
ATOM      6  C   UNL     1      -2.211  12.085  23.131  0.00  0.00    +0.000 C 
ATOM      7  C   UNL     1      -3.713  12.300  23.379  0.00  0.00    +0.000 C 
ATOM      8  C   UNL     1      -3.947  13.232  24.572  0.00  0.00    +0.000 C 
ATOM      9  C   UNL     1      -3.160  14.544  24.416  0.00  0.00    +0.000 C 
ATOM     10  C   UNL     1      -1.672  14.242  24.119  0.00  0.00    +0.000 C 
ATOM     11  N   UNL     1      -0.848  13.502  20.615  0.00  0.00    +0.000 N 
ATOM     12  C   UNL     1      -0.049  14.166  19.695  0.00  0.00    +0.000 A 
ATOM     13  O   UNL     1      -0.443  14.489  18.573  0.00  0.00    +0.000 OA
ATOM     14  C   UNL     1       1.304  14.579  20.151  0.00  0.00    +0.000 A 
ENDROOT
BRANCH  14  15
ATOM     15  C   UNL     1       2.319  15.038  19.175  0.00  0.00    +0.000 A 
ATOM     16  C   UNL     1       2.244  16.308  18.592  0.00  0.00    +0.000 A 
ATOM     17  C   UNL     1       3.170  16.709  17.615  0.00  0.00    +0.000 A 
ATOM     18  C   UNL     1       4.200  15.851  17.238  0.00  0.00    +0.000 A 
ATOM     19  C   UNL     1       4.311  14.600  17.840  0.00  0.00    +0.000 A 
ATOM     20  C   UNL     1       3.372  14.187  18.791  0.00  0.00    +0.000 A 
ENDBRANCH  14  15
BRANCH   9  21
ATOM     21  N   UNL     1      -3.331  15.389  25.602  0.00  0.00    +0.000 NA
ATOM     22  H   UNL     1      -3.861  16.227  25.363  0.00  0.00    +0.000 HD
ATOM     23  H   UNL     1      -2.419  15.711  25.925  0.00  0.00    +0.000 HD
ENDBRANCH   9  21
BRANCH  11  24
ATOM     24  C   UNL     1      -2.106  12.977  20.086  0.00  0.00    +0.000 C 
BRANCH  24  25
ATOM     25  C   UNL     1      -2.018  11.743  19.215  0.00  0.00    +0.000 A 
ATOM     26  C   UNL     1      -0.793  11.078  19.050  0.00  0.00    +0.000 A 
ATOM     27  C   UNL     1      -0.632  10.109  18.066  0.00  0.00    +0.000 A 
ATOM     28  C   UNL     1      -1.706   9.751  17.262  0.00  0.00    +0.000 A 
ATOM     29  C   UNL     1      -2.955  10.338  17.464  0.00  0.00    +0.000 A 
ATOM     30  C   UNL     1      -3.120  11.334  18.432  0.00  0.00    +0.000 A 
BRANCH  30  31
ATOM     31  C   UNL     1      -4.413  11.952  18.566  0.00  0.00    +0.000 C 
ATOM     32  N   UNL     1      -5.445  12.486  18.682  0.00  0.00    +0.000 NA
ENDBRANCH  30  31
ENDBRANCH  24  25
ENDBRANCH  11  24
TORSDOF 5
ENDMDL
MODEL 3
REMARK VINA RESULT:      -7.2      2.000      4.838
REMARK  Name = 
REMARK  6 active torsions:
REMARK  status: ('A' for Active; 'I' for Inactive)
REMARK    1  A    between atoms: C_1  and  C_2
REMARK    2  A    between atoms: C_9  and  N_10
REMARK    3  A    between atoms: N_12  and  C_13
REMARK    4  A    between atoms: C_13  and  C_14
REMARK    5  A    between atoms: C_19  and  C_20
REMARK    6  A    between atoms: C_24  and  C_25
REMARK                            x       y       z     vdW  Elec       q    Type
REMARK                         _______ _______ _______ _____ _____    ______ ____
ROOT
ATOM      1  C   UNL     1       0.616   9.415  21.547  0.00  0.00    +0.000 C 
ATOM      2  C   UNL     1       1.369   8.782  20.400  0.00  0.00    +0.000 A 
ATOM      3  N   UNL     1       1.819   7.511  20.662  0.00  0.00    +0.000 NA
ATOM      4  C   UNL     1       2.483   6.840  19.760  0.00  0.00    +0.000 A 
ATOM      5  N   UNL     1       2.817   5.521  20.040  0.00  0.00    +0.000 N 
ATOM      6  C   UNL     1       4.166   4.952  19.986  0.00  0.00    +0.000 C 
ATOM      7  C   UNL     1       4.074   3.548  19.364  0.00  0.00    +0.000 C 
ATOM      8  C   UNL     1       3.124   2.652  20.164  0.00  0.00    +0.000 C 
ATOM      9  C   UNL     1       1.755   3.325  20.358  0.00  0.00    +0.000 C 
ATOM     10  C   UNL     1       1.936   4.747  20.938  0.00  0.00    +0.000 C 
ATOM     11  N   UNL     1       2.726   7.388  18.507  0.00  0.00    +0.000 N 
ATOM     12  C   UNL     1       2.028   8.522  18.118  0.00  0.00    +0.000 A 
ATOM     13  O   UNL     1       1.781   8.788  16.940  0.00  0.00    +0.000 OA
ATOM     14  C   UNL     1       1.482   9.383  19.200  0.00  0.00    +0.000 A 
ENDROOT
BRANCH  14  15
ATOM     15  C   UNL     1       0.972  10.739  18.896  0.00  0.00    +0.000 A 
ATOM     16  C   UNL     1       1.819  11.854  18.905  0.00  0.00    +0.000 A 
ATOM     17  C   UNL     1       1.315  13.145  18.686  0.00  0.00    +0.000 A 
ATOM     18  C   UNL     1      -0.040  13.328  18.421  0.00  0.00    +0.000 A 
ATOM     19  C   UNL     1      -0.888  12.224  18.368  0.00  0.00    +0.000 A 
ATOM     20  C   UNL     1      -0.393  10.940  18.616  0.00  0.00    +0.000 A 
ENDBRANCH  14  15
BRANCH   9  21
ATOM     21  N   UNL     1       0.886   2.489  21.192  0.00  0.00    +0.000 NA
ATOM     22  H   UNL     1       0.644   2.981  22.052  0.00  0.00    +0.000 HD
ATOM     23  H   UNL     1       1.392   1.650  21.477  0.00  0.00    +0.000 HD
ENDBRANCH   9  21
BRANCH  11  24
ATOM     24  C   UNL     1       3.377   6.652  17.424  0.00  0.00    +0.000 C 
BRANCH  24  25
ATOM     25  C   UNL     1       4.889   6.688  17.388  0.00  0.00    +0.000 A 
ATOM     26  C   UNL     1       5.584   7.805  17.878  0.00  0.00    +0.000 A 
ATOM     27  C   UNL     1       6.941   7.971  17.625  0.00  0.00    +0.000 A 
ATOM     28  C   UNL     1       7.640   6.998  16.921  0.00  0.00    +0.000 A 
ATOM     29  C   UNL     1       6.989   5.840  16.498  0.00  0.00    +0.000 A 
ATOM     30  C   UNL     1       5.618   5.677  16.723  0.00  0.00    +0.000 A 
BRANCH  30  31
ATOM     31  C   UNL     1       4.977   4.491  16.218  0.00  0.00    +0.000 C 
ATOM     32  N   UNL     1       4.483   3.509  15.824  0.00  0.00    +0.000 NA
ENDBRANCH  30  31
ENDBRANCH  24  25
ENDBRANCH  11  24
TORSDOF 5
ENDMDL
MODEL 4
REMARK VINA RESULT:      -7.1      5.211     10.375
REMARK  Name = 
REMARK  6 active torsions:
REMARK  status: ('A' for Active; 'I' for Inactive)
REMARK    1  A    between atoms: C_1  and  C_2
REMARK    2  A    between atoms: C_9  and  N_10
REMARK    3  A    between atoms: N_12  and  C_13
REMARK    4  A    between atoms: C_13  and  C_14
REMARK    5  A    between atoms: C_19  and  C_20
REMARK    6  A    between atoms: C_24  and  C_25
REMARK                            x       y       z     vdW  Elec       q    Type
REMARK                         _______ _______ _______ _____ _____    ______ ____
ROOT
ATOM      1  C   UNL     1      -1.919  10.310  18.710  0.00  0.00    +0.000 C 
ATOM      2  C   UNL     1      -1.044  11.392  19.299  0.00  0.00    +0.000 A 
ATOM      3  N   UNL     1      -1.720  12.546  19.613  0.00  0.00    +0.000 NA
ATOM      4  C   UNL     1      -1.091  13.565  20.134  0.00  0.00    +0.000 A 
ATOM      5  N   UNL     1      -1.843  14.664  20.532  0.00  0.00    +0.000 N 
ATOM      6  C   UNL     1      -1.624  16.048  20.106  0.00  0.00    +0.000 C 
ATOM      7  C   UNL     1      -1.828  16.967  21.322  0.00  0.00    +0.000 C 
ATOM      8  C   UNL     1      -3.225  16.785  21.922  0.00  0.00    +0.000 C 
ATOM      9  C   UNL     1      -3.514  15.304  22.220  0.00  0.00    +0.000 C 
ATOM     10  C   UNL     1      -3.238  14.443  20.965  0.00  0.00    +0.000 C 
ATOM     11  N   UNL     1       0.269  13.495  20.407  0.00  0.00    +0.000 N 
ATOM     12  C   UNL     1       0.898  12.257  20.389  0.00  0.00    +0.000 A 
ATOM     13  O   UNL     1       1.897  12.003  21.064  0.00  0.00    +0.000 OA
ATOM     14  C   UNL     1       0.255  11.185  19.586  0.00  0.00    +0.000 A 
ENDROOT
BRANCH  14  15
ATOM     15  C   UNL     1       0.985   9.933  19.283  0.00  0.00    +0.000 A 
ATOM     16  C   UNL     1       1.125   8.922  20.242  0.00  0.00    +0.000 A 
ATOM     17  C   UNL     1       1.878   7.769  19.970  0.00  0.00    +0.000 A 
ATOM     18  C   UNL     1       2.471   7.602  18.722  0.00  0.00    +0.000 A 
ATOM     19  C   UNL     1       2.305   8.581  17.743  0.00  0.00    +0.000 A 
ATOM     20  C   UNL     1       1.581   9.744  18.022  0.00  0.00    +0.000 A 
ENDBRANCH  14  15
BRANCH   9  21
ATOM     21  N   UNL     1      -4.884  15.139  22.718  0.00  0.00    +0.000 NA
ATOM     22  H   UNL     1      -5.380  16.029  22.687  0.00  0.00    +0.000 HD
ATOM     23  H   UNL     1      -4.858  14.861  23.699  0.00  0.00    +0.000 HD
ENDBRANCH   9  21
BRANCH  11  24
ATOM     24  C   UNL     1       1.008  14.563  21.077  0.00  0.00    +0.000 C 
BRANCH  24  25
ATOM     25  C   UNL     1       2.039  15.300  20.252  0.00  0.00    +0.000 A 
ATOM     26  C   UNL     1       1.707  15.797  18.981  0.00  0.00    +0.000 A 
ATOM     27  C   UNL     1       2.693  16.245  18.108  0.00  0.00    +0.000 A 
ATOM     28  C   UNL     1       4.023  16.252  18.508  0.00  0.00    +0.000 A 
ATOM     29  C   UNL     1       4.367  15.842  19.796  0.00  0.00    +0.000 A 
ATOM     30  C   UNL     1       3.387  15.363  20.671  0.00  0.00    +0.000 A 
BRANCH  30  31
ATOM     31  C   UNL     1       3.796  14.897  21.970  0.00  0.00    +0.000 C 
ATOM     32  N   UNL     1       4.125  14.553  23.036  0.00  0.00    +0.000 NA
ENDBRANCH  30  31
ENDBRANCH  24  25
ENDBRANCH  11  24
TORSDOF 5
ENDMDL
MODEL 5
REMARK VINA RESULT:      -7.1      6.162     10.176
REMARK  Name = 
REMARK  6 active torsions:
REMARK  status: ('A' for Active; 'I' for Inactive)
REMARK    1  A    between atoms: C_1  and  C_2
REMARK    2  A    between atoms: C_9  and  N_10
REMARK    3  A    between atoms: N_12  and  C_13
REMARK    4  A    between atoms: C_13  and  C_14
REMARK    5  A    between atoms: C_19  and  C_20
REMARK    6  A    between atoms: C_24  and  C_25
REMARK                            x       y       z     vdW  Elec       q    Type
REMARK                         _______ _______ _______ _____ _____    ______ ____
ROOT
ATOM      1  C   UNL     1       0.734  17.608  21.430  0.00  0.00    +0.000 C 
ATOM      2  C   UNL     1       0.155  16.263  21.060  0.00  0.00    +0.000 A 
ATOM      3  N   UNL     1      -0.659  15.722  22.026  0.00  0.00    +0.000 NA
ATOM      4  C   UNL     1      -1.232  14.563  21.842  0.00  0.00    +0.000 A 
ATOM      5  N   UNL     1      -2.130  14.117  22.804  0.00  0.00    +0.000 N 
ATOM      6  C   UNL     1      -2.066  12.830  23.500  0.00  0.00    +0.000 C 
ATOM      7  C   UNL     1      -3.494  12.273  23.620  0.00  0.00    +0.000 C 
ATOM      8  C   UNL     1      -4.409  13.257  24.355  0.00  0.00    +0.000 C 
ATOM      9  C   UNL     1      -4.350  14.655  23.716  0.00  0.00    +0.000 C 
ATOM     10  C   UNL     1      -2.881  15.120  23.585  0.00  0.00    +0.000 C 
ATOM     11  N   UNL     1      -1.053  13.865  20.654  0.00  0.00    +0.000 N 
ATOM     12  C   UNL     1      -0.499  14.519  19.562  0.00  0.00    +0.000 A 
ATOM     13  O   UNL     1      -0.743  14.204  18.396  0.00  0.00    +0.000 OA
ATOM     14  C   UNL     1       0.341  15.712  19.845  0.00  0.00    +0.000 A 
ENDROOT
BRANCH  14  15
ATOM     15  C   UNL     1       1.189  16.302  18.785  0.00  0.00    +0.000 A 
ATOM     16  C   UNL     1       0.732  17.364  17.995  0.00  0.00    +0.000 A 
ATOM     17  C   UNL     1       1.514  17.871  16.945  0.00  0.00    +0.000 A 
ATOM     18  C   UNL     1       2.778  17.342  16.700  0.00  0.00    +0.000 A 
ATOM     19  C   UNL     1       3.264  16.314  17.505  0.00  0.00    +0.000 A 
ATOM     20  C   UNL     1       2.474  15.786  18.531  0.00  0.00    +0.000 A 
ENDBRANCH  14  15
BRANCH   9  21
ATOM     21  N   UNL     1      -5.169  15.603  24.480  0.00  0.00    +0.000 NA
ATOM     22  H   UNL     1      -4.749  15.775  25.393  0.00  0.00    +0.000 HD
ATOM     23  H   UNL     1      -6.085  15.193  24.660  0.00  0.00    +0.000 HD
ENDBRANCH   9  21
BRANCH  11  24
ATOM     24  C   UNL     1      -1.743  12.613  20.349  0.00  0.00    +0.000 C 
BRANCH  24  25
ATOM     25  C   UNL     1      -0.878  11.385  20.165  0.00  0.00    +0.000 A 
ATOM     26  C   UNL     1      -0.005  10.974  21.184  0.00  0.00    +0.000 A 
ATOM     27  C   UNL     1       0.973  10.015  20.945  0.00  0.00    +0.000 A 
ATOM     28  C   UNL     1       1.063   9.413  19.697  0.00  0.00    +0.000 A 
ATOM     29  C   UNL     1       0.152   9.744  18.694  0.00  0.00    +0.000 A 
ATOM     30  C   UNL     1      -0.817  10.727  18.917  0.00  0.00    +0.000 A 
BRANCH  30  31
ATOM     31  C   UNL     1      -1.699  11.078  17.834  0.00  0.00    +0.000 C 
ATOM     32  N   UNL     1      -2.439  11.336  16.968  0.00  0.00    +0.000 NA
ENDBRANCH  30  31
ENDBRANCH  24  25
ENDBRANCH  11  24
TORSDOF 5
ENDMDL
MODEL 6
REMARK VINA RESULT:      -7.0      7.267     11.065
REMARK  Name = 
REMARK  6 active torsions:
REMARK  status: ('A' for Active; 'I' for Inactive)
REMARK    1  A    between atoms: C_1  and  C_2
REMARK    2  A    between atoms: C_9  and  N_10
REMARK    3  A    between atoms: N_12  and  C_13
REMARK    4  A    between atoms: C_13  and  C_14
REMARK    5  A    between atoms: C_19  and  C_20
REMARK    6  A    between atoms: C_24  and  C_25
REMARK                            x       y       z     vdW  Elec       q    Type
REMARK                         _______ _______ _______ _____ _____    ______ ____
ROOT
ATOM      1  C   UNL     1      -5.761  11.203  18.866  0.00  0.00    +0.000 C 
ATOM      2  C   UNL     1      -4.484  11.902  19.271  0.00  0.00    +0.000 A 
ATOM      3  N   UNL     1      -4.564  12.553  20.478  0.00  0.00    +0.000 NA
ATOM      4  C   UNL     1      -3.534  13.198  20.956  0.00  0.00    +0.000 A 
ATOM      5  N   UNL     1      -3.637  13.744  22.230  0.00  0.00    +0.000 N 
ATOM      6  C   UNL     1      -3.389  15.144  22.581  0.00  0.00    +0.000 C 
ATOM      7  C   UNL     1      -2.634  15.181  23.920  0.00  0.00    +0.000 C 
ATOM      8  C   UNL     1      -3.424  14.464  25.018  0.00  0.00    +0.000 C 
ATOM      9  C   UNL     1      -3.824  13.045  24.581  0.00  0.00    +0.000 C 
ATOM     10  C   UNL     1      -4.531  13.089  23.206  0.00  0.00    +0.000 C 
ATOM     11  N   UNL     1      -2.328  13.217  20.267  0.00  0.00    +0.000 N 
ATOM     12  C   UNL     1      -2.133  12.326  19.221  0.00  0.00    +0.000 A 
ATOM     13  O   UNL     1      -1.021  11.911  18.890  0.00  0.00    +0.000 OA
ATOM     14  C   UNL     1      -3.349  11.792  18.554  0.00  0.00    +0.000 A 
ENDROOT
BRANCH  14  15
ATOM     15  C   UNL     1      -3.244  11.065  17.269  0.00  0.00    +0.000 A 
ATOM     16  C   UNL     1      -2.457   9.913  17.147  0.00  0.00    +0.000 A 
ATOM     17  C   UNL     1      -2.306   9.270  15.909  0.00  0.00    +0.000 A 
ATOM     18  C   UNL     1      -2.970   9.756  14.786  0.00  0.00    +0.000 A 
ATOM     19  C   UNL     1      -3.790  10.876  14.901  0.00  0.00    +0.000 A 
ATOM     20  C   UNL     1      -3.918  11.536  16.127  0.00  0.00    +0.000 A 
ENDBRANCH  14  15
BRANCH   9  21
ATOM     21  N   UNL     1      -4.647  12.403  25.611  0.00  0.00    +0.000 NA
ATOM     22  H   UNL     1      -4.609  11.389  25.510  0.00  0.00    +0.000 HD
ATOM     23  H   UNL     1      -5.624  12.666  25.479  0.00  0.00    +0.000 HD
ENDBRANCH   9  21
BRANCH  11  24
ATOM     24  C   UNL     1      -1.113  13.838  20.794  0.00  0.00    +0.000 C 
BRANCH  24  25
ATOM     25  C   UNL     1      -0.604  15.063  20.069  0.00  0.00    +0.000 A 
ATOM     26  C   UNL     1      -1.462  16.144  19.813  0.00  0.00    +0.000 A 
ATOM     27  C   UNL     1      -1.094  17.158  18.936  0.00  0.00    +0.000 A 
ATOM     28  C   UNL     1       0.159  17.136  18.337  0.00  0.00    +0.000 A 
ATOM     29  C   UNL     1       1.061  16.117  18.641  0.00  0.00    +0.000 A 
ATOM     30  C   UNL     1       0.689  15.078  19.501  0.00  0.00    +0.000 A 
BRANCH  30  31
ATOM     31  C   UNL     1       1.632  14.017  19.740  0.00  0.00    +0.000 C 
ATOM     32  N   UNL     1       2.420  13.172  19.911  0.00  0.00    +0.000 NA
ENDBRANCH  30  31
ENDBRANCH  24  25
ENDBRANCH  11  24
TORSDOF 5
ENDMDL
MODEL 7
REMARK VINA RESULT:      -6.9      7.327     10.494
REMARK  Name = 
REMARK  6 active torsions:
REMARK  status: ('A' for Active; 'I' for Inactive)
REMARK    1  A    between atoms: C_1  and  C_2
REMARK    2  A    between atoms: C_9  and  N_10
REMARK    3  A    between atoms: N_12  and  C_13
REMARK    4  A    between atoms: C_13  and  C_14
REMARK    5  A    between atoms: C_19  and  C_20
REMARK    6  A    between atoms: C_24  and  C_25
REMARK                            x       y       z     vdW  Elec       q    Type
REMARK                         _______ _______ _______ _____ _____    ______ ____
ROOT
ATOM      1  C   UNL     1       0.598  17.599  21.280  0.00  0.00    +0.000 C 
ATOM      2  C   UNL     1       0.143  16.196  20.950  0.00  0.00    +0.000 A 
ATOM      3  N   UNL     1      -0.620  15.613  21.932  0.00  0.00    +0.000 NA
ATOM      4  C   UNL     1      -1.086  14.402  21.782  0.00  0.00    +0.000 A 
ATOM      5  N   UNL     1      -1.942  13.905  22.758  0.00  0.00    +0.000 N 
ATOM      6  C   UNL     1      -1.763  12.650  23.491  0.00  0.00    +0.000 C 
ATOM      7  C   UNL     1      -3.135  11.970  23.629  0.00  0.00    +0.000 C 
ATOM      8  C   UNL     1      -4.136  12.889  24.336  0.00  0.00    +0.000 C 
ATOM      9  C   UNL     1      -4.203  14.267  23.656  0.00  0.00    +0.000 C 
ATOM     10  C   UNL     1      -2.781  14.859  23.510  0.00  0.00    +0.000 C 
ATOM     11  N   UNL     1      -0.842  13.688  20.616  0.00  0.00    +0.000 N 
ATOM     12  C   UNL     1      -0.348  14.358  19.505  0.00  0.00    +0.000 A 
ATOM     13  O   UNL     1      -0.560  13.988  18.349  0.00  0.00    +0.000 OA
ATOM     14  C   UNL     1       0.381  15.629  19.752  0.00  0.00    +0.000 A 
ENDROOT
BRANCH  14  15
ATOM     15  C   UNL     1       1.175  16.263  18.674  0.00  0.00    +0.000 A 
ATOM     16  C   UNL     1       0.663  17.329  17.925  0.00  0.00    +0.000 A 
ATOM     17  C   UNL     1       1.392  17.878  16.859  0.00  0.00    +0.000 A 
ATOM     18  C   UNL     1       2.658  17.384  16.554  0.00  0.00    +0.000 A 
ATOM     19  C   UNL     1       3.198  16.351  17.318  0.00  0.00    +0.000 A 
ATOM     20  C   UNL     1       2.460  15.783  18.361  0.00  0.00    +0.000 A 
ENDBRANCH  14  15
BRANCH   9  21
ATOM     21  N   UNL     1      -5.105  15.159  24.392  0.00  0.00    +0.000 NA
ATOM     22  H   UNL     1      -4.889  15.135  25.388  0.00  0.00    +0.000 HD
ATOM     23  H   UNL     1      -6.064  14.824  24.300  0.00  0.00    +0.000 HD
ENDBRANCH   9  21
BRANCH  11  24
ATOM     24  C   UNL     1      -1.416  12.371  20.348  0.00  0.00    +0.000 C 
BRANCH  24  25
ATOM     25  C   UNL     1      -2.762  12.340  19.659  0.00  0.00    +0.000 A 
ATOM     26  C   UNL     1      -3.838  13.081  20.173  0.00  0.00    +0.000 A 
ATOM     27  C   UNL     1      -5.134  12.871  19.715  0.00  0.00    +0.000 A 
ATOM     28  C   UNL     1      -5.371  11.953  18.700  0.00  0.00    +0.000 A 
ATOM     29  C   UNL     1      -4.307  11.268  18.116  0.00  0.00    +0.000 A 
ATOM     30  C   UNL     1      -3.003  11.451  18.588  0.00  0.00    +0.000 A 
BRANCH  30  31
ATOM     31  C   UNL     1      -1.944  10.679  17.994  0.00  0.00    +0.000 C 
ATOM     32  N   UNL     1      -1.061  10.065  17.537  0.00  0.00    +0.000 NA
ENDBRANCH  30  31
ENDBRANCH  24  25
ENDBRANCH  11  24
TORSDOF 5
ENDMDL
MODEL 8
REMARK VINA RESULT:      -6.8      6.291      9.617
REMARK  Name = 
REMARK  6 active torsions:
REMARK  status: ('A' for Active; 'I' for Inactive)
REMARK    1  A    between atoms: C_1  and  C_2
REMARK    2  A    between atoms: C_9  and  N_10
REMARK    3  A    between atoms: N_12  and  C_13
REMARK    4  A    between atoms: C_13  and  C_14
REMARK    5  A    between atoms: C_19  and  C_20
REMARK    6  A    between atoms: C_24  and  C_25
REMARK                            x       y       z     vdW  Elec       q    Type
REMARK                         _______ _______ _______ _____ _____    ______ ____
ROOT
ATOM      1  C   UNL     1       2.630  15.477  22.114  0.00  0.00    +0.000 C 
ATOM      2  C   UNL     1       1.475  14.729  21.490  0.00  0.00    +0.000 A 
ATOM      3  N   UNL     1       0.524  14.319  22.393  0.00  0.00    +0.000 NA
ATOM      4  C   UNL     1      -0.533  13.664  21.994  0.00  0.00    +0.000 A 
ATOM      5  N   UNL     1      -1.514  13.371  22.935  0.00  0.00    +0.000 N 
ATOM      6  C   UNL     1      -2.051  12.038  23.220  0.00  0.00    +0.000 C 
ATOM      7  C   UNL     1      -3.569  12.163  23.428  0.00  0.00    +0.000 C 
ATOM      8  C   UNL     1      -3.892  13.146  24.557  0.00  0.00    +0.000 C 
ATOM      9  C   UNL     1      -3.193  14.498  24.334  0.00  0.00    +0.000 C 
ATOM     10  C   UNL     1      -1.682  14.282  24.084  0.00  0.00    +0.000 C 
ATOM     11  N   UNL     1      -0.733  13.392  20.647  0.00  0.00    +0.000 N 
ATOM     12  C   UNL     1       0.040  14.054  19.702  0.00  0.00    +0.000 A 
ATOM     13  O   UNL     1      -0.350  14.281  18.556  0.00  0.00    +0.000 OA
ATOM     14  C   UNL     1       1.351  14.587  20.156  0.00  0.00    +0.000 A 
ENDROOT
BRANCH  14  15
ATOM     15  C   UNL     1       2.354  15.055  19.172  0.00  0.00    +0.000 A 
ATOM     16  C   UNL     1       2.220  16.292  18.531  0.00  0.00    +0.000 A 
ATOM     17  C   UNL     1       3.136  16.698  17.548  0.00  0.00    +0.000 A 
ATOM     18  C   UNL     1       4.216  15.881  17.222  0.00  0.00    +0.000 A 
ATOM     19  C   UNL     1       4.385  14.666  17.882  0.00  0.00    +0.000 A 
ATOM     20  C   UNL     1       3.457  14.246  18.840  0.00  0.00    +0.000 A 
ENDBRANCH  14  15
BRANCH   9  21
ATOM     21  N   UNL     1      -3.448  15.399  25.463  0.00  0.00    +0.000 NA
ATOM     22  H   UNL     1      -3.399  14.885  26.342  0.00  0.00    +0.000 HD
ATOM     23  H   UNL     1      -4.398  15.764  25.399  0.00  0.00    +0.000 HD
ENDBRANCH   9  21
BRANCH  11  24
ATOM     24  C   UNL     1      -1.940  12.751  20.129  0.00  0.00    +0.000 C 
BRANCH  24  25
ATOM     25  C   UNL     1      -1.759  11.788  18.976  0.00  0.00    +0.000 A 
ATOM     26  C   UNL     1      -2.530  11.924  17.811  0.00  0.00    +0.000 A 
ATOM     27  C   UNL     1      -2.567  10.915  16.855  0.00  0.00    +0.000 A 
ATOM     28  C   UNL     1      -1.795   9.772  17.023  0.00  0.00    +0.000 A 
ATOM     29  C   UNL     1      -0.957   9.652  18.131  0.00  0.00    +0.000 A 
ATOM     30  C   UNL     1      -0.934  10.649  19.111  0.00  0.00    +0.000 A 
BRANCH  30  31
ATOM     31  C   UNL     1      -0.097  10.456  20.266  0.00  0.00    +0.000 C 
ATOM     32  N   UNL     1       0.595  10.268  21.188  0.00  0.00    +0.000 NA
ENDBRANCH  30  31
ENDBRANCH  24  25
ENDBRANCH  11  24
TORSDOF 5
ENDMDL
MODEL 9
REMARK VINA RESULT:      -6.8      5.120     10.708
REMARK  Name = 
REMARK  6 active torsions:
REMARK  status: ('A' for Active; 'I' for Inactive)
REMARK    1  A    between atoms: C_1  and  C_2
REMARK    2  A    between atoms: C_9  and  N_10
REMARK    3  A    between atoms: N_12  and  C_13
REMARK    4  A    between atoms: C_13  and  C_14
REMARK    5  A    between atoms: C_19  and  C_20
REMARK    6  A    between atoms: C_24  and  C_25
REMARK                            x       y       z     vdW  Elec       q    Type
REMARK                         _______ _______ _______ _____ _____    ______ ____
ROOT
ATOM      1  C   UNL     1      -1.899  10.027  17.887  0.00  0.00    +0.000 C 
ATOM      2  C   UNL     1      -1.528  10.860  19.092  0.00  0.00    +0.000 A 
ATOM      3  N   UNL     1      -2.509  11.737  19.486  0.00  0.00    +0.000 NA
ATOM      4  C   UNL     1      -2.329  12.519  20.516  0.00  0.00    +0.000 A 
ATOM      5  N   UNL     1      -3.395  13.305  20.935  0.00  0.00    +0.000 N 
ATOM      6  C   UNL     1      -3.365  14.759  21.114  0.00  0.00    +0.000 C 
ATOM      7  C   UNL     1      -4.153  15.106  22.388  0.00  0.00    +0.000 C 
ATOM      8  C   UNL     1      -5.592  14.586  22.305  0.00  0.00    +0.000 C 
ATOM      9  C   UNL     1      -5.622  13.088  21.956  0.00  0.00    +0.000 C 
ATOM     10  C   UNL     1      -4.767  12.816  20.696  0.00  0.00    +0.000 C 
ATOM     11  N   UNL     1      -1.152  12.462  21.252  0.00  0.00    +0.000 N 
ATOM     12  C   UNL     1      -0.291  11.389  21.067  0.00  0.00    +0.000 A 
ATOM     13  O   UNL     1       0.465  10.975  21.947  0.00  0.00    +0.000 OA
ATOM     14  C   UNL     1      -0.381  10.667  19.771  0.00  0.00    +0.000 A 
ENDROOT
BRANCH  14  15
ATOM     15  C   UNL     1       0.669   9.701  19.374  0.00  0.00    +0.000 A 
ATOM     16  C   UNL     1       1.353   9.829  18.159  0.00  0.00    +0.000 A 
ATOM     17  C   UNL     1       2.296   8.870  17.758  0.00  0.00    +0.000 A 
ATOM     18  C   UNL     1       2.588   7.790  18.587  0.00  0.00    +0.000 A 
ATOM     19  C   UNL     1       1.945   7.672  19.818  0.00  0.00    +0.000 A 
ATOM     20  C   UNL     1       0.983   8.610  20.206  0.00  0.00    +0.000 A 
ENDBRANCH  14  15
BRANCH   9  21
ATOM     21  N   UNL     1      -7.006  12.626  21.802  0.00  0.00    +0.000 NA
ATOM     22  H   UNL     1      -7.634  13.422  21.704  0.00  0.00    +0.000 HD
ATOM     23  H   UNL     1      -7.297  12.136  22.648  0.00  0.00    +0.000 HD
ENDBRANCH   9  21
BRANCH  11  24
ATOM     24  C   UNL     1      -0.929  13.240  22.469  0.00  0.00    +0.000 C 
BRANCH  24  25
ATOM     25  C   UNL     1      -0.224  14.568  22.311  0.00  0.00    +0.000 A 
ATOM     26  C   UNL     1       0.625  14.794  21.216  0.00  0.00    +0.000 A 
ATOM     27  C   UNL     1       1.474  15.895  21.183  0.00  0.00    +0.000 A 
ATOM     28  C   UNL     1       1.453  16.818  22.221  0.00  0.00    +0.000 A 
ATOM     29  C   UNL     1       0.558  16.659  23.278  0.00  0.00    +0.000 A 
ATOM     30  C   UNL     1      -0.280  15.540  23.334  0.00  0.00    +0.000 A 
BRANCH  30  31
ATOM     31  C   UNL     1      -1.146  15.389  24.473  0.00  0.00    +0.000 C 
ATOM     32  N   UNL     1      -1.821  15.255  25.417  0.00  0.00    +0.000 NA
ENDBRANCH  30  31
ENDBRANCH  24  25
ENDBRANCH  11  24
TORSDOF 5
ENDMDL
