MODEL 1
REMARK VINA RESULT:      -7.8      0.000      0.000
REMARK  Name = 
REMARK  10 active torsions:
REMARK  status: ('A' for Active; 'I' for Inactive)
REMARK    1  A    between atoms: C_1  and  C_2
REMARK    2  A    between atoms: C_2  and  C_3
REMARK    3  A    between atoms: C_3  and  N_4
REMARK    4  A    between atoms: C_5  and  C_6
REMARK    5  A    between atoms: C_9  and  C_10
REMARK    6  A    between atoms: C_10  and  C_11
REMARK    7  A    between atoms: C_10  and  N_18
REMARK    8  A    between atoms: C_11  and  C_12
REMARK    9  A    between atoms: N_18  and  S_19
REMARK   10  A    between atoms: S_19  and  C_22
REMARK                            x       y       z     vdW  Elec       q    Type
REMARK                         _______ _______ _______ _____ _____    ______ ____
ROOT
ATOM      1  C   UNL     1       3.092   6.867  18.433  0.00  0.00    +0.000 C 
ENDROOT
BRANCH   1   7
ATOM      2  N   UNL     1       1.727   8.836  19.479  0.00  0.00    +0.000 N 
ATOM      3  C   UNL     1       1.276  10.041  18.977  0.00  0.00    +0.000 A 
ATOM      4  C   UNL     1       0.661  11.157  19.740  0.00  0.00    +0.000 C 
ATOM      5  N   UNL     1       1.520  10.077  17.685  0.00  0.00    +0.000 NA
ATOM      6  N   UNL     1       2.198   8.945  17.342  0.00  0.00    +0.000 NA
ATOM      7  C   UNL     1       2.340   8.189  18.418  0.00  0.00    +0.000 A 
BRANCH   2   8
ATOM      8  C   UNL     1       1.523   8.348  20.829  0.00  0.00    +0.000 C 
BRANCH   8  10
ATOM      9  C   UNL     1      -0.419   8.823  22.362  0.00  0.00    +0.000 C 
ATOM     10  C   UNL     1       0.066   8.033  21.156  0.00  0.00    +0.000 C 
ENDBRANCH   8  10
ENDBRANCH   2   8
ENDBRANCH   1   7
BRANCH   1  11
ATOM     11  N   UNL     1       4.330   7.026  17.627  0.00  0.00    +0.000 NA
ATOM     12  H   UNL     1       4.587   7.995  17.419  0.00  0.00    +0.000 HD
BRANCH  11  13
ATOM     13  S   UNL     1       5.648   6.021  17.862  0.00  0.00    +0.000 S 
ATOM     14  O   UNL     1       6.795   6.876  18.070  0.00  0.00    +0.000 OA
ATOM     15  O   UNL     1       5.263   5.018  18.832  0.00  0.00    +0.000 OA
BRANCH  13  16
ATOM     16  C   UNL     1       5.884   5.220  16.286  0.00  0.00    +0.000 A 
ATOM     17  C   UNL     1       7.029   5.501  15.533  0.00  0.00    +0.000 A 
ATOM     18  C   UNL     1       7.199   4.890  14.283  0.00  0.00    +0.000 A 
ATOM     19  C   UNL     1       6.234   4.004  13.803  0.00  0.00    +0.000 A 
ATOM     20 CL   UNL     1       6.433   3.273  12.257  0.00  0.00    +0.000 Cl
ATOM     21  C   UNL     1       5.104   3.706  14.565  0.00  0.00    +0.000 A 
ATOM     22  C   UNL     1       4.933   4.305  15.816  0.00  0.00    +0.000 A 
ENDBRANCH  13  16
ENDBRANCH  11  13
ENDBRANCH   1  11
BRANCH   1  23
ATOM     23  C   UNL     1       2.259   5.662  17.964  0.00  0.00    +0.000 C 
BRANCH  23  24
ATOM     24  C   UNL     1       1.941   4.548  18.940  0.00  0.00    +0.000 A 
ATOM     25  C   UNL     1       1.577   3.252  18.565  0.00  0.00    +0.000 A 
ATOM     26  C   UNL     1       1.313   2.275  19.520  0.00  0.00    +0.000 A 
ATOM     27  C   UNL     1       1.429   2.573  20.872  0.00  0.00    +0.000 A 
ATOM     28  C   UNL     1       1.801   3.852  21.271  0.00  0.00    +0.000 A 
ATOM     29  C   UNL     1       2.047   4.836  20.313  0.00  0.00    +0.000 A 
ENDBRANCH  23  24
ENDBRANCH   1  23
TORSDOF 8
ENDMDL
MODEL 2
REMARK VINA RESULT:      -7.7      0.391      1.364
REMARK  Name = 
REMARK  10 active torsions:
REMARK  status: ('A' for Active; 'I' for Inactive)
REMARK    1  A    between atoms: C_1  and  C_2
REMARK    2  A    between atoms: C_2  and  C_3
REMARK    3  A    between atoms: C_3  and  N_4
REMARK    4  A    between atoms: C_5  and  C_6
REMARK    5  A    between atoms: C_9  and  C_10
REMARK    6  A    between atoms: C_10  and  C_11
REMARK    7  A    between atoms: C_10  and  N_18
REMARK    8  A    between atoms: C_11  and  C_12
REMARK    9  A    between atoms: N_18  and  S_19
REMARK   10  A    between atoms: S_19  and  C_22
REMARK                            x       y       z     vdW  Elec       q    Type
REMARK                         _______ _______ _______ _____ _____    ______ ____
ROOT
ATOM      1  C   UNL     1       3.126   6.850  18.452  0.00  0.00    +0.000 C 
ENDROOT
BRANCH   1   7
ATOM      2  N   UNL     1       1.558   8.726  19.379  0.00  0.00    +0.000 N 
ATOM      3  C   UNL     1       1.182   9.964  18.895  0.00  0.00    +0.000 A 
ATOM      4  C   UNL     1       0.419  11.014  19.615  0.00  0.00    +0.000 C 
ATOM      5  N   UNL     1       1.655  10.101  17.675  0.00  0.00    +0.000 NA
ATOM      6  N   UNL     1       2.405   9.001  17.377  0.00  0.00    +0.000 NA
ATOM      7  C   UNL     1       2.364   8.165  18.401  0.00  0.00    +0.000 A 
BRANCH   2   8
ATOM      8  C   UNL     1       1.123   8.134  20.628  0.00  0.00    +0.000 C 
BRANCH   8  10
ATOM      9  C   UNL     1       0.380   9.286  22.742  0.00  0.00    +0.000 C 
ATOM     10  C   UNL     1       1.565   8.911  21.865  0.00  0.00    +0.000 C 
ENDBRANCH   8  10
ENDBRANCH   2   8
ENDBRANCH   1   7
BRANCH   1  11
ATOM     11  N   UNL     1       4.288   6.947  17.531  0.00  0.00    +0.000 NA
ATOM     12  H   UNL     1       4.509   7.896  17.217  0.00  0.00    +0.000 HD
BRANCH  11  13
ATOM     13  S   UNL     1       5.637   5.979  17.738  0.00  0.00    +0.000 S 
ATOM     14  O   UNL     1       6.757   6.865  17.961  0.00  0.00    +0.000 OA
ATOM     15  O   UNL     1       5.288   4.942  18.686  0.00  0.00    +0.000 OA
BRANCH  13  16
ATOM     16  C   UNL     1       5.892   5.222  16.143  0.00  0.00    +0.000 A 
ATOM     17  C   UNL     1       4.891   4.413  15.594  0.00  0.00    +0.000 A 
ATOM     18  C   UNL     1       5.105   3.800  14.352  0.00  0.00    +0.000 A 
ATOM     19  C   UNL     1       6.305   4.004  13.671  0.00  0.00    +0.000 A 
ATOM     20 CL   UNL     1       6.575   3.230  12.157  0.00  0.00    +0.000 Cl
ATOM     21  C   UNL     1       7.293   4.830  14.208  0.00  0.00    +0.000 A 
ATOM     22  C   UNL     1       7.082   5.452  15.441  0.00  0.00    +0.000 A 
ENDBRANCH  13  16
ENDBRANCH  11  13
ENDBRANCH   1  11
BRANCH   1  23
ATOM     23  C   UNL     1       2.265   5.611  18.154  0.00  0.00    +0.000 C 
BRANCH  23  24
ATOM     24  C   UNL     1       2.003   4.601  19.253  0.00  0.00    +0.000 A 
ATOM     25  C   UNL     1       2.389   4.769  20.585  0.00  0.00    +0.000 A 
ATOM     26  C   UNL     1       2.101   3.803  21.544  0.00  0.00    +0.000 A 
ATOM     27  C   UNL     1       1.400   2.656  21.189  0.00  0.00    +0.000 A 
ATOM     28  C   UNL     1       0.995   2.471  19.872  0.00  0.00    +0.000 A 
ATOM     29  C   UNL     1       1.300   3.432  18.908  0.00  0.00    +0.000 A 
ENDBRANCH  23  24
ENDBRANCH   1  23
TORSDOF 8
ENDMDL
MODEL 3
REMARK VINA RESULT:      -7.7      3.548      6.820
REMARK  Name = 
REMARK  10 active torsions:
REMARK  status: ('A' for Active; 'I' for Inactive)
REMARK    1  A    between atoms: C_1  and  C_2
REMARK    2  A    between atoms: C_2  and  C_3
REMARK    3  A    between atoms: C_3  and  N_4
REMARK    4  A    between atoms: C_5  and  C_6
REMARK    5  A    between atoms: C_9  and  C_10
REMARK    6  A    between atoms: C_10  and  C_11
REMARK    7  A    between atoms: C_10  and  N_18
REMARK    8  A    between atoms: C_11  and  C_12
REMARK    9  A    between atoms: N_18  and  S_19
REMARK   10  A    between atoms: S_19  and  C_22
REMARK                            x       y       z     vdW  Elec       q    Type
REMARK                         _______ _______ _______ _____ _____    ______ ____
ROOT
ATOM      1  C   UNL     1       3.470   6.377  18.233  0.00  0.00    +0.000 C 
ENDROOT
BRANCH   1   7
ATOM      2  N   UNL     1       4.724   4.837  16.533  0.00  0.00    +0.000 N 
ATOM      3  C   UNL     1       5.514   5.098  15.431  0.00  0.00    +0.000 A 
ATOM      4  C   UNL     1       6.022   4.117  14.439  0.00  0.00    +0.000 C 
ATOM      5  N   UNL     1       5.722   6.395  15.359  0.00  0.00    +0.000 NA
ATOM      6  N   UNL     1       5.014   7.001  16.354  0.00  0.00    +0.000 NA
ATOM      7  C   UNL     1       4.397   6.073  17.067  0.00  0.00    +0.000 A 
BRANCH   2   8
ATOM      8  C   UNL     1       4.384   3.523  17.043  0.00  0.00    +0.000 C 
BRANCH   8  10
ATOM      9  C   UNL     1       2.545   1.940  17.720  0.00  0.00    +0.000 C 
ATOM     10  C   UNL     1       2.904   3.175  16.909  0.00  0.00    +0.000 C 
ENDBRANCH   8  10
ENDBRANCH   2   8
ENDBRANCH   1   7
BRANCH   1  11
ATOM     11  N   UNL     1       3.363   7.853  18.373  0.00  0.00    +0.000 NA
ATOM     12  H   UNL     1       4.220   8.368  18.150  0.00  0.00    +0.000 HD
BRANCH  11  13
ATOM     13  S   UNL     1       1.963   8.662  17.941  0.00  0.00    +0.000 S 
ATOM     14  O   UNL     1       2.372   9.892  17.301  0.00  0.00    +0.000 OA
ATOM     15  O   UNL     1       1.098   7.711  17.275  0.00  0.00    +0.000 OA
BRANCH  13  16
ATOM     16  C   UNL     1       1.214   9.117  19.494  0.00  0.00    +0.000 A 
ATOM     17  C   UNL     1       1.466   8.346  20.634  0.00  0.00    +0.000 A 
ATOM     18  C   UNL     1       0.855   8.692  21.848  0.00  0.00    +0.000 A 
ATOM     19  C   UNL     1       0.009   9.799  21.912  0.00  0.00    +0.000 A 
ATOM     20 CL   UNL     1      -0.759  10.206  23.398  0.00  0.00    +0.000 Cl
ATOM     21  C   UNL     1      -0.223  10.580  20.781  0.00  0.00    +0.000 A 
ATOM     22  C   UNL     1       0.390  10.247  19.570  0.00  0.00    +0.000 A 
ENDBRANCH  13  16
ENDBRANCH  11  13
ENDBRANCH   1  11
BRANCH   1  23
ATOM     23  C   UNL     1       3.880   5.708  19.556  0.00  0.00    +0.000 C 
BRANCH  23  24
ATOM     24  C   UNL     1       2.995   4.637  20.158  0.00  0.00    +0.000 A 
ATOM     25  C   UNL     1       3.468   3.541  20.885  0.00  0.00    +0.000 A 
ATOM     26  C   UNL     1       2.592   2.603  21.422  0.00  0.00    +0.000 A 
ATOM     27  C   UNL     1       1.220   2.756  21.259  0.00  0.00    +0.000 A 
ATOM     28  C   UNL     1       0.724   3.845  20.549  0.00  0.00    +0.000 A 
ATOM     29  C   UNL     1       1.604   4.774  19.996  0.00  0.00    +0.000 A 
ENDBRANCH  23  24
ENDBRANCH   1  23
TORSDOF 8
ENDMDL
MODEL 4
REMARK VINA RESULT:      -7.5      3.641      7.190
REMARK  Name = 
REMARK  10 active torsions:
REMARK  status: ('A' for Active; 'I' for Inactive)
REMARK    1  A    between atoms: C_1  and  C_2
REMARK    2  A    between atoms: C_2  and  C_3
REMARK    3  A    between atoms: C_3  and  N_4
REMARK    4  A    between atoms: C_5  and  C_6
REMARK    5  A    between atoms: C_9  and  C_10
REMARK    6  A    between atoms: C_10  and  C_11
REMARK    7  A    between atoms: C_10  and  N_18
REMARK    8  A    between atoms: C_11  and  C_12
REMARK    9  A    between atoms: N_18  and  S_19
REMARK   10  A    between atoms: S_19  and  C_22
REMARK                            x       y       z     vdW  Elec       q    Type
REMARK                         _______ _______ _______ _____ _____    ______ ____
ROOT
ATOM      1  C   UNL     1       2.948   6.447  17.890  0.00  0.00    +0.000 C 
ENDROOT
BRANCH   1   7
ATOM      2  N   UNL     1       5.364   5.536  17.478  0.00  0.00    +0.000 N 
ATOM      3  C   UNL     1       6.370   5.119  18.327  0.00  0.00    +0.000 A 
ATOM      4  C   UNL     1       7.772   4.792  17.963  0.00  0.00    +0.000 C 
ATOM      5  N   UNL     1       5.903   5.096  19.556  0.00  0.00    +0.000 NA
ATOM      6  N   UNL     1       4.624   5.568  19.540  0.00  0.00    +0.000 NA
ATOM      7  C   UNL     1       4.286   5.849  18.293  0.00  0.00    +0.000 A 
BRANCH   2   8
ATOM      8  C   UNL     1       5.429   5.564  16.031  0.00  0.00    +0.000 C 
BRANCH   8  10
ATOM      9  C   UNL     1       6.167   4.006  14.193  0.00  0.00    +0.000 C 
ATOM     10  C   UNL     1       5.234   4.198  15.379  0.00  0.00    +0.000 C 
ENDBRANCH   8  10
ENDBRANCH   2   8
ENDBRANCH   1   7
BRANCH   1  11
ATOM     11  N   UNL     1       2.629   7.554  18.829  0.00  0.00    +0.000 NA
ATOM     12  H   UNL     1       3.351   7.743  19.531  0.00  0.00    +0.000 HD
BRANCH  11  13
ATOM     13  S   UNL     1       1.829   8.928  18.305  0.00  0.00    +0.000 S 
ATOM     14  O   UNL     1       2.840   9.931  18.059  0.00  0.00    +0.000 OA
ATOM     15  O   UNL     1       0.895   8.522  17.277  0.00  0.00    +0.000 OA
BRANCH  13  16
ATOM     16  C   UNL     1       0.902   9.472  19.728  0.00  0.00    +0.000 A 
ATOM     17  C   UNL     1       0.139  10.643  19.649  0.00  0.00    +0.000 A 
ATOM     18  C   UNL     1      -0.568  11.081  20.777  0.00  0.00    +0.000 A 
ATOM     19  C   UNL     1      -0.512  10.349  21.963  0.00  0.00    +0.000 A 
ATOM     20 CL   UNL     1      -1.362  10.904  23.355  0.00  0.00    +0.000 Cl
ATOM     21  C   UNL     1       0.229   9.170  22.034  0.00  0.00    +0.000 A 
ATOM     22  C   UNL     1       0.929   8.722  20.911  0.00  0.00    +0.000 A 
ENDBRANCH  13  16
ENDBRANCH  11  13
ENDBRANCH   1  11
BRANCH   1  23
ATOM     23  C   UNL     1       1.800   5.426  17.804  0.00  0.00    +0.000 C 
BRANCH  23  24
ATOM     24  C   UNL     1       1.744   4.279  18.793  0.00  0.00    +0.000 A 
ATOM     25  C   UNL     1       2.078   2.957  18.485  0.00  0.00    +0.000 A 
ATOM     26  C   UNL     1       2.017   1.958  19.451  0.00  0.00    +0.000 A 
ATOM     27  C   UNL     1       1.639   2.268  20.752  0.00  0.00    +0.000 A 
ATOM     28  C   UNL     1       1.313   3.578  21.086  0.00  0.00    +0.000 A 
ATOM     29  C   UNL     1       1.358   4.576  20.112  0.00  0.00    +0.000 A 
ENDBRANCH  23  24
ENDBRANCH   1  23
TORSDOF 8
ENDMDL
MODEL 5
REMARK VINA RESULT:      -7.5      0.990      1.163
REMARK  Name = 
REMARK  10 active torsions:
REMARK  status: ('A' for Active; 'I' for Inactive)
REMARK    1  A    between atoms: C_1  and  C_2
REMARK    2  A    between atoms: C_2  and  C_3
REMARK    3  A    between atoms: C_3  and  N_4
REMARK    4  A    between atoms: C_5  and  C_6
REMARK    5  A    between atoms: C_9  and  C_10
REMARK    6  A    between atoms: C_10  and  C_11
REMARK    7  A    between atoms: C_10  and  N_18
REMARK    8  A    between atoms: C_11  and  C_12
REMARK    9  A    between atoms: N_18  and  S_19
REMARK   10  A    between atoms: S_19  and  C_22
REMARK                            x       y       z     vdW  Elec       q    Type
REMARK                         _______ _______ _______ _____ _____    ______ ____
ROOT
ATOM      1  C   UNL     1       3.048   6.708  18.803  0.00  0.00    +0.000 C 
ENDROOT
BRANCH   1   7
ATOM      2  N   UNL     1       1.683   8.795  19.590  0.00  0.00    +0.000 N 
ATOM      3  C   UNL     1       1.265   9.944  18.947  0.00  0.00    +0.000 A 
ATOM      4  C   UNL     1       0.644  11.142  19.566  0.00  0.00    +0.000 C 
ATOM      5  N   UNL     1       1.546   9.837  17.667  0.00  0.00    +0.000 NA
ATOM      6  N   UNL     1       2.216   8.666  17.469  0.00  0.00    +0.000 NA
ATOM      7  C   UNL     1       2.316   8.029  18.624  0.00  0.00    +0.000 A 
BRANCH   2   8
ATOM      8  C   UNL     1       1.433   8.458  20.977  0.00  0.00    +0.000 C 
BRANCH   8  10
ATOM      9  C   UNL     1      -0.388   9.170  22.566  0.00  0.00    +0.000 C 
ATOM     10  C   UNL     1      -0.048   8.353  21.329  0.00  0.00    +0.000 C 
ENDBRANCH   8  10
ENDBRANCH   2   8
ENDBRANCH   1   7
BRANCH   1  11
ATOM     11  N   UNL     1       3.790   6.412  17.550  0.00  0.00    +0.000 NA
ATOM     12  H   UNL     1       3.434   6.889  16.717  0.00  0.00    +0.000 HD
BRANCH  11  13
ATOM     13  S   UNL     1       5.454   6.225  17.555  0.00  0.00    +0.000 S 
ATOM     14  O   UNL     1       6.023   7.546  17.409  0.00  0.00    +0.000 OA
ATOM     15  O   UNL     1       5.792   5.372  18.674  0.00  0.00    +0.000 OA
BRANCH  13  16
ATOM     16  C   UNL     1       5.808   5.345  16.046  0.00  0.00    +0.000 A 
ATOM     17  C   UNL     1       6.985   5.622  15.343  0.00  0.00    +0.000 A 
ATOM     18  C   UNL     1       7.248   4.947  14.144  0.00  0.00    +0.000 A 
ATOM     19  C   UNL     1       6.341   4.001  13.663  0.00  0.00    +0.000 A 
ATOM     20 CL   UNL     1       6.654   3.191  12.176  0.00  0.00    +0.000 Cl
ATOM     21  C   UNL     1       5.178   3.708  14.375  0.00  0.00    +0.000 A 
ATOM     22  C   UNL     1       4.915   4.371  15.577  0.00  0.00    +0.000 A 
ENDBRANCH  13  16
ENDBRANCH  11  13
ENDBRANCH   1  11
BRANCH   1  23
ATOM     23  C   UNL     1       2.142   5.537  19.219  0.00  0.00    +0.000 C 
BRANCH  23  24
ATOM     24  C   UNL     1       2.574   4.116  18.921  0.00  0.00    +0.000 A 
ATOM     25  C   UNL     1       2.134   3.373  17.822  0.00  0.00    +0.000 A 
ATOM     26  C   UNL     1       2.586   2.075  17.605  0.00  0.00    +0.000 A 
ATOM     27  C   UNL     1       3.507   1.503  18.475  0.00  0.00    +0.000 A 
ATOM     28  C   UNL     1       3.968   2.226  19.570  0.00  0.00    +0.000 A 
ATOM     29  C   UNL     1       3.500   3.520  19.796  0.00  0.00    +0.000 A 
ENDBRANCH  23  24
ENDBRANCH   1  23
TORSDOF 8
ENDMDL
MODEL 6
REMARK VINA RESULT:      -7.5      3.612      6.918
REMARK  Name = 
REMARK  10 active torsions:
REMARK  status: ('A' for Active; 'I' for Inactive)
REMARK    1  A    between atoms: C_1  and  C_2
REMARK    2  A    between atoms: C_2  and  C_3
REMARK    3  A    between atoms: C_3  and  N_4
REMARK    4  A    between atoms: C_5  and  C_6
REMARK    5  A    between atoms: C_9  and  C_10
REMARK    6  A    between atoms: C_10  and  C_11
REMARK    7  A    between atoms: C_10  and  N_18
REMARK    8  A    between atoms: C_11  and  C_12
REMARK    9  A    between atoms: N_18  and  S_19
REMARK   10  A    between atoms: S_19  and  C_22
REMARK                            x       y       z     vdW  Elec       q    Type
REMARK                         _______ _______ _______ _____ _____    ______ ____
ROOT
ATOM      1  C   UNL     1       3.281   6.570  18.384  0.00  0.00    +0.000 C 
ENDROOT
BRANCH   1   7
ATOM      2  N   UNL     1       4.452   5.012  16.641  0.00  0.00    +0.000 N 
ATOM      3  C   UNL     1       5.479   5.212  15.740  0.00  0.00    +0.000 A 
ATOM      4  C   UNL     1       5.930   4.282  14.673  0.00  0.00    +0.000 C 
ATOM      5  N   UNL     1       5.990   6.407  15.941  0.00  0.00    +0.000 NA
ATOM      6  N   UNL     1       5.261   7.030  16.911  0.00  0.00    +0.000 NA
ATOM      7  C   UNL     1       4.321   6.203  17.337  0.00  0.00    +0.000 A 
BRANCH   2   8
ATOM      8  C   UNL     1       3.725   3.774  16.841  0.00  0.00    +0.000 C 
BRANCH   8  10
ATOM      9  C   UNL     1       3.464   1.672  18.205  0.00  0.00    +0.000 C 
ATOM     10  C   UNL     1       4.382   2.829  17.843  0.00  0.00    +0.000 C 
ENDBRANCH   8  10
ENDBRANCH   2   8
ENDBRANCH   1   7
BRANCH   1  11
ATOM     11  N   UNL     1       3.207   8.051  18.471  0.00  0.00    +0.000 NA
ATOM     12  H   UNL     1       4.081   8.539  18.249  0.00  0.00    +0.000 HD
BRANCH  11  13
ATOM     13  S   UNL     1       1.837   8.879  17.981  0.00  0.00    +0.000 S 
ATOM     14  O   UNL     1       2.286  10.117  17.387  0.00  0.00    +0.000 OA
ATOM     15  O   UNL     1       1.002   7.946  17.254  0.00  0.00    +0.000 OA
BRANCH  13  16
ATOM     16  C   UNL     1       1.011   9.310  19.502  0.00  0.00    +0.000 A 
ATOM     17  C   UNL     1       0.117  10.386  19.522  0.00  0.00    +0.000 A 
ATOM     18  C   UNL     1      -0.511  10.738  20.724  0.00  0.00    +0.000 A 
ATOM     19  C   UNL     1      -0.248  10.013  21.887  0.00  0.00    +0.000 A 
ATOM     20 CL   UNL     1      -1.001  10.463  23.368  0.00  0.00    +0.000 Cl
ATOM     21  C   UNL     1       0.626   8.926  21.862  0.00  0.00    +0.000 A 
ATOM     22  C   UNL     1       1.248   8.564  20.664  0.00  0.00    +0.000 A 
ENDBRANCH  13  16
ENDBRANCH  11  13
ENDBRANCH   1  11
BRANCH   1  23
ATOM     23  C   UNL     1       3.519   5.930  19.762  0.00  0.00    +0.000 C 
BRANCH  23  24
ATOM     24  C   UNL     1       2.648   4.775  20.212  0.00  0.00    +0.000 A 
ATOM     25  C   UNL     1       2.921   3.968  21.320  0.00  0.00    +0.000 A 
ATOM     26  C   UNL     1       2.065   2.933  21.681  0.00  0.00    +0.000 A 
ATOM     27  C   UNL     1       0.906   2.698  20.951  0.00  0.00    +0.000 A 
ATOM     28  C   UNL     1       0.607   3.495  19.851  0.00  0.00    +0.000 A 
ATOM     29  C   UNL     1       1.475   4.522  19.479  0.00  0.00    +0.000 A 
ENDBRANCH  23  24
ENDBRANCH   1  23
TORSDOF 8
ENDMDL
MODEL 7
REMARK VINA RESULT:      -7.4      3.531      6.845
REMARK  Name = 
REMARK  10 active torsions:
REMARK  status: ('A' for Active; 'I' for Inactive)
REMARK    1  A    between atoms: C_1  and  C_2
REMARK    2  A    between atoms: C_2  and  C_3
REMARK    3  A    between atoms: C_3  and  N_4
REMARK    4  A    between atoms: C_5  and  C_6
REMARK    5  A    between atoms: C_9  and  C_10
REMARK    6  A    between atoms: C_10  and  C_11
REMARK    7  A    between atoms: C_10  and  N_18
REMARK    8  A    between atoms: C_11  and  C_12
REMARK    9  A    between atoms: N_18  and  S_19
REMARK   10  A    between atoms: S_19  and  C_22
REMARK                            x       y       z     vdW  Elec       q    Type
REMARK                         _______ _______ _______ _____ _____    ______ ____
ROOT
ATOM      1  C   UNL     1       3.652   6.392  18.278  0.00  0.00    +0.000 C 
ENDROOT
BRANCH   1   7
ATOM      2  N   UNL     1       4.996   5.077  16.462  0.00  0.00    +0.000 N 
ATOM      3  C   UNL     1       6.139   5.367  15.742  0.00  0.00    +0.000 A 
ATOM      4  C   UNL     1       6.698   4.599  14.601  0.00  0.00    +0.000 C 
ATOM      5  N   UNL     1       6.655   6.486  16.201  0.00  0.00    +0.000 NA
ATOM      6  N   UNL     1       5.823   6.981  17.162  0.00  0.00    +0.000 NA
ATOM      7  C   UNL     1       4.810   6.146  17.324  0.00  0.00    +0.000 A 
BRANCH   2   8
ATOM      8  C   UNL     1       4.213   3.862  16.361  0.00  0.00    +0.000 C 
BRANCH   8  10
ATOM      9  C   UNL     1       3.193   2.014  17.736  0.00  0.00    +0.000 C 
ATOM     10  C   UNL     1       4.410   2.902  17.531  0.00  0.00    +0.000 C 
ENDBRANCH   8  10
ENDBRANCH   2   8
ENDBRANCH   1   7
BRANCH   1  11
ATOM     11  N   UNL     1       3.433   7.859  18.378  0.00  0.00    +0.000 NA
ATOM     12  H   UNL     1       4.246   8.432  18.134  0.00  0.00    +0.000 HD
BRANCH  11  13
ATOM     13  S   UNL     1       1.972   8.546  17.935  0.00  0.00    +0.000 S 
ATOM     14  O   UNL     1       2.283   9.763  17.221  0.00  0.00    +0.000 OA
ATOM     15  O   UNL     1       1.163   7.502  17.341  0.00  0.00    +0.000 OA
BRANCH  13  16
ATOM     16  C   UNL     1       1.223   9.033  19.478  0.00  0.00    +0.000 A 
ATOM     17  C   UNL     1       1.504   8.309  20.642  0.00  0.00    +0.000 A 
ATOM     18  C   UNL     1       0.894   8.679  21.848  0.00  0.00    +0.000 A 
ATOM     19  C   UNL     1       0.019   9.766  21.882  0.00  0.00    +0.000 A 
ATOM     20 CL   UNL     1      -0.749  10.203  23.359  0.00  0.00    +0.000 Cl
ATOM     21  C   UNL     1      -0.243  10.501  20.726  0.00  0.00    +0.000 A 
ATOM     22  C   UNL     1       0.370  10.143  19.522  0.00  0.00    +0.000 A 
ENDBRANCH  13  16
ENDBRANCH  11  13
ENDBRANCH   1  11
BRANCH   1  23
ATOM     23  C   UNL     1       3.829   5.748  19.664  0.00  0.00    +0.000 C 
BRANCH  23  24
ATOM     24  C   UNL     1       2.827   4.717  20.142  0.00  0.00    +0.000 A 
ATOM     25  C   UNL     1       1.491   4.669  19.734  0.00  0.00    +0.000 A 
ATOM     26  C   UNL     1       0.631   3.682  20.205  0.00  0.00    +0.000 A 
ATOM     27  C   UNL     1       1.099   2.710  21.081  0.00  0.00    +0.000 A 
ATOM     28  C   UNL     1       2.427   2.730  21.493  0.00  0.00    +0.000 A 
ATOM     29  C   UNL     1       3.284   3.730  21.034  0.00  0.00    +0.000 A 
ENDBRANCH  23  24
ENDBRANCH   1  23
TORSDOF 8
ENDMDL
MODEL 8
REMARK VINA RESULT:      -7.3      3.140      6.842
REMARK  Name = 
REMARK  10 active torsions:
REMARK  status: ('A' for Active; 'I' for Inactive)
REMARK    1  A    between atoms: C_1  and  C_2
REMARK    2  A    between atoms: C_2  and  C_3
REMARK    3  A    between atoms: C_3  and  N_4
REMARK    4  A    between atoms: C_5  and  C_6
REMARK    5  A    between atoms: C_9  and  C_10
REMARK    6  A    between atoms: C_10  and  C_11
REMARK    7  A    between atoms: C_10  and  N_18
REMARK    8  A    between atoms: C_11  and  C_12
REMARK    9  A    between atoms: N_18  and  S_19
REMARK   10  A    between atoms: S_19  and  C_22
REMARK                            x       y       z     vdW  Elec       q    Type
REMARK                         _______ _______ _______ _____ _____    ______ ____
ROOT
ATOM      1  C   UNL     1       4.189   3.708  16.714  0.00  0.00    +0.000 C 
ENDROOT
BRANCH   1   7
ATOM      2  N   UNL     1       5.828   4.375  14.788  0.00  0.00    +0.000 N 
ATOM      3  C   UNL     1       7.164   4.724  14.767  0.00  0.00    +0.000 A 
ATOM      4  C   UNL     1       7.933   5.258  13.615  0.00  0.00    +0.000 C 
ATOM      5  N   UNL     1       7.664   4.549  15.971  0.00  0.00    +0.000 NA
ATOM      6  N   UNL     1       6.656   4.165  16.806  0.00  0.00    +0.000 NA
ATOM      7  C   UNL     1       5.537   4.065  16.108  0.00  0.00    +0.000 A 
BRANCH   2   8
ATOM      8  C   UNL     1       4.952   4.292  13.636  0.00  0.00    +0.000 C 
BRANCH   8  10
ATOM      9  C   UNL     1       4.419   3.157  11.451  0.00  0.00    +0.000 C 
ATOM     10  C   UNL     1       5.457   3.350  12.546  0.00  0.00    +0.000 C 
ENDBRANCH   8  10
ENDBRANCH   2   8
ENDBRANCH   1   7
BRANCH   1  11
ATOM     11  N   UNL     1       3.486   4.969  17.066  0.00  0.00    +0.000 NA
ATOM     12  H   UNL     1       2.548   4.843  17.455  0.00  0.00    +0.000 HD
BRANCH  11  13
ATOM     13  S   UNL     1       4.316   6.265  17.725  0.00  0.00    +0.000 S 
ATOM     14  O   UNL     1       5.104   5.744  18.819  0.00  0.00    +0.000 OA
ATOM     15  O   UNL     1       4.923   6.994  16.632  0.00  0.00    +0.000 OA
BRANCH  13  16
ATOM     16  C   UNL     1       3.045   7.285  18.449  0.00  0.00    +0.000 A 
ATOM     17  C   UNL     1       2.569   8.398  17.747  0.00  0.00    +0.000 A 
ATOM     18  C   UNL     1       1.588   9.212  18.330  0.00  0.00    +0.000 A 
ATOM     19  C   UNL     1       1.091   8.906  19.597  0.00  0.00    +0.000 A 
ATOM     20 CL   UNL     1      -0.096   9.922  20.322  0.00  0.00    +0.000 Cl
ATOM     21  C   UNL     1       1.549   7.784  20.287  0.00  0.00    +0.000 A 
ATOM     22  C   UNL     1       2.520   6.962  19.707  0.00  0.00    +0.000 A 
ENDBRANCH  13  16
ENDBRANCH  11  13
ENDBRANCH   1  11
BRANCH   1  23
ATOM     23  C   UNL     1       4.271   2.748  17.913  0.00  0.00    +0.000 C 
BRANCH  23  24
ATOM     24  C   UNL     1       3.208   2.807  18.991  0.00  0.00    +0.000 A 
ATOM     25  C   UNL     1       3.471   3.039  20.344  0.00  0.00    +0.000 A 
ATOM     26  C   UNL     1       2.440   3.095  21.277  0.00  0.00    +0.000 A 
ATOM     27  C   UNL     1       1.121   2.938  20.868  0.00  0.00    +0.000 A 
ATOM     28  C   UNL     1       0.833   2.717  19.526  0.00  0.00    +0.000 A 
ATOM     29  C   UNL     1       1.868   2.644  18.594  0.00  0.00    +0.000 A 
ENDBRANCH  23  24
ENDBRANCH   1  23
TORSDOF 8
ENDMDL
MODEL 9
REMARK VINA RESULT:      -7.3      1.056      1.730
REMARK  Name = 
REMARK  10 active torsions:
REMARK  status: ('A' for Active; 'I' for Inactive)
REMARK    1  A    between atoms: C_1  and  C_2
REMARK    2  A    between atoms: C_2  and  C_3
REMARK    3  A    between atoms: C_3  and  N_4
REMARK    4  A    between atoms: C_5  and  C_6
REMARK    5  A    between atoms: C_9  and  C_10
REMARK    6  A    between atoms: C_10  and  C_11
REMARK    7  A    between atoms: C_10  and  N_18
REMARK    8  A    between atoms: C_11  and  C_12
REMARK    9  A    between atoms: N_18  and  S_19
REMARK   10  A    between atoms: S_19  and  C_22
REMARK                            x       y       z     vdW  Elec       q    Type
REMARK                         _______ _______ _______ _____ _____    ______ ____
ROOT
ATOM      1  C   UNL     1       3.142   6.722  18.869  0.00  0.00    +0.000 C 
ENDROOT
BRANCH   1   7
ATOM      2  N   UNL     1       1.501   8.651  19.518  0.00  0.00    +0.000 N 
ATOM      3  C   UNL     1       1.108   9.810  18.877  0.00  0.00    +0.000 A 
ATOM      4  C   UNL     1       0.298  10.918  19.443  0.00  0.00    +0.000 C 
ATOM      5  N   UNL     1       1.613   9.811  17.662  0.00  0.00    +0.000 NA
ATOM      6  N   UNL     1       2.399   8.706  17.520  0.00  0.00    +0.000 NA
ATOM      7  C   UNL     1       2.349   7.999  18.637  0.00  0.00    +0.000 A 
BRANCH   2   8
ATOM      8  C   UNL     1       1.044   8.203  20.819  0.00  0.00    +0.000 C 
BRANCH   8  10
ATOM      9  C   UNL     1       0.353   9.404  22.923  0.00  0.00    +0.000 C 
ATOM     10  C   UNL     1       1.499   9.093  21.972  0.00  0.00    +0.000 C 
ENDBRANCH   8  10
ENDBRANCH   2   8
ENDBRANCH   1   7
BRANCH   1  11
ATOM     11  N   UNL     1       3.843   6.373  17.606  0.00  0.00    +0.000 NA
ATOM     12  H   UNL     1       3.448   6.799  16.763  0.00  0.00    +0.000 HD
BRANCH  11  13
ATOM     13  S   UNL     1       5.509   6.216  17.559  0.00  0.00    +0.000 S 
ATOM     14  O   UNL     1       6.051   7.549  17.423  0.00  0.00    +0.000 OA
ATOM     15  O   UNL     1       5.896   5.347  18.651  0.00  0.00    +0.000 OA
BRANCH  13  16
ATOM     16  C   UNL     1       5.834   5.371  16.022  0.00  0.00    +0.000 A 
ATOM     17  C   UNL     1       4.911   4.438  15.539  0.00  0.00    +0.000 A 
ATOM     18  C   UNL     1       5.181   3.757  14.344  0.00  0.00    +0.000 A 
ATOM     19  C   UNL     1       6.360   4.018  13.644  0.00  0.00    +0.000 A 
ATOM     20 CL   UNL     1       6.701   3.162  12.189  0.00  0.00    +0.000 Cl
ATOM     21  C   UNL     1       7.269   4.965  14.115  0.00  0.00    +0.000 A 
ATOM     22  C   UNL     1       7.001   5.654  15.301  0.00  0.00    +0.000 A 
ENDBRANCH  13  16
ENDBRANCH  11  13
ENDBRANCH   1  11
BRANCH   1  23
ATOM     23  C   UNL     1       2.303   5.546  19.398  0.00  0.00    +0.000 C 
BRANCH  23  24
ATOM     24  C   UNL     1       2.723   4.126  19.080  0.00  0.00    +0.000 A 
ATOM     25  C   UNL     1       3.617   3.378  19.853  0.00  0.00    +0.000 A 
ATOM     26  C   UNL     1       3.945   2.071  19.507  0.00  0.00    +0.000 A 
ATOM     27  C   UNL     1       3.368   1.479  18.389  0.00  0.00    +0.000 A 
ATOM     28  C   UNL     1       2.467   2.199  17.611  0.00  0.00    +0.000 A 
ATOM     29  C   UNL     1       2.153   3.515  17.949  0.00  0.00    +0.000 A 
ENDBRANCH  23  24
ENDBRANCH   1  23
TORSDOF 8
ENDMDL
