MODEL 1
REMARK VINA RESULT:      -7.7      0.000      0.000
REMARK  Name = 
REMARK  7 active torsions:
REMARK  status: ('A' for Active; 'I' for Inactive)
REMARK    1  A    between atoms: C_1  and  O_2
REMARK    2  A    between atoms: O_2  and  C_3
REMARK    3  A    between atoms: C_6  and  N_7
REMARK    4  A    between atoms: C_11  and  C_13
REMARK    5  A    between atoms: C_18  and  C_19
REMARK    6  A    between atoms: C_19  and  C_20
REMARK    7  A    between atoms: C_24  and  C_25
REMARK                            x       y       z     vdW  Elec       q    Type
REMARK                         _______ _______ _______ _____ _____    ______ ____
ROOT
ATOM      1  N   UNL     1       1.185   8.824  19.910  0.00  0.00    +0.000 N 
ATOM      2  C   UNL     1       1.607   8.088  21.115  0.00  0.00    +0.000 C 
ATOM      3  C   UNL     1       1.704   6.565  20.805  0.00  0.00    +0.000 C 
ATOM      4  N   UNL     1       2.378   6.269  19.516  0.00  0.00    +0.000 N 
ATOM      5  C   UNL     1       3.338   5.274  19.457  0.00  0.00    +0.000 C 
ATOM      6  O   UNL     1       3.593   4.651  20.496  0.00  0.00    +0.000 OA
ATOM      7  C   UNL     1       1.811   7.020  18.408  0.00  0.00    +0.000 C 
ATOM      8  C   UNL     1       1.982   8.514  18.703  0.00  0.00    +0.000 C 
ENDROOT
BRANCH   5   9
ATOM      9  C   UNL     1       4.019   4.834  18.232  0.00  0.00    +0.000 A 
ATOM     10  N   UNL     1       5.219   5.484  17.994  0.00  0.00    +0.000 N 
ATOM     11  C   UNL     1       5.790   5.135  16.808  0.00  0.00    +0.000 A 
ATOM     12  C   UNL     1       7.006   5.542  16.253  0.00  0.00    +0.000 A 
ATOM     13  C   UNL     1       7.300   5.122  14.957  0.00  0.00    +0.000 A 
ATOM     14  C   UNL     1       6.383   4.361  14.236  0.00  0.00    +0.000 A 
ATOM     15  C   UNL     1       5.198   3.901  14.844  0.00  0.00    +0.000 A 
ATOM     16  C   UNL     1       4.899   4.283  16.175  0.00  0.00    +0.000 A 
ATOM     17  C   UNL     1       3.828   4.001  17.118  0.00  0.00    +0.000 A 
ATOM     18  C   UNL     1       2.748   3.015  16.809  0.00  0.00    +0.000 C 
ATOM     19  H   UNL     1       5.581   6.188  18.623  0.00  0.00    +0.000 HD
BRANCH  14  20
ATOM     20  C   UNL     1       6.630   4.025  12.803  0.00  0.00    +0.000 C 
ATOM     21  C   UNL     1       5.768   2.988  12.114  0.00  0.00    +0.000 C 
ATOM     22  O   UNL     1       7.545   4.583  12.203  0.00  0.00    +0.000 OA
ENDBRANCH  14  20
ENDBRANCH   5   9
BRANCH   1  26
ATOM     23  C   UNL     1      -1.112  12.355  20.123  0.00  0.00    +0.000 A 
ATOM     24  C   UNL     1      -0.924  11.723  18.894  0.00  0.00    +0.000 A 
ATOM     25  C   UNL     1      -0.153  10.550  18.794  0.00  0.00    +0.000 A 
ATOM     26  C   UNL     1       0.442   9.987  19.926  0.00  0.00    +0.000 A 
ATOM     27  C   UNL     1       0.288  10.681  21.136  0.00  0.00    +0.000 A 
ATOM     28  C   UNL     1      -0.476  11.842  21.245  0.00  0.00    +0.000 A 
BRANCH  23  30
ATOM     29  C   UNL     1      -3.236  13.281  20.567  0.00  0.00    +0.000 C 
ATOM     30  O   UNL     1      -1.897  13.476  20.116  0.00  0.00    +0.000 OA
ENDBRANCH  23  30
ENDBRANCH   1  26
TORSDOF 4
ENDMDL
MODEL 2
REMARK VINA RESULT:      -7.6      3.114      5.013
REMARK  Name = 
REMARK  7 active torsions:
REMARK  status: ('A' for Active; 'I' for Inactive)
REMARK    1  A    between atoms: C_1  and  O_2
REMARK    2  A    between atoms: O_2  and  C_3
REMARK    3  A    between atoms: C_6  and  N_7
REMARK    4  A    between atoms: C_11  and  C_13
REMARK    5  A    between atoms: C_18  and  C_19
REMARK    6  A    between atoms: C_19  and  C_20
REMARK    7  A    between atoms: C_24  and  C_25
REMARK                            x       y       z     vdW  Elec       q    Type
REMARK                         _______ _______ _______ _____ _____    ______ ____
ROOT
ATOM      1  N   UNL     1      -0.699  11.815  21.289  0.00  0.00    +0.000 N 
ATOM      2  C   UNL     1      -0.840  12.071  19.844  0.00  0.00    +0.000 C 
ATOM      3  C   UNL     1       0.470  11.677  19.100  0.00  0.00    +0.000 C 
ATOM      4  N   UNL     1       1.030  10.376  19.542  0.00  0.00    +0.000 N 
ATOM      5  C   UNL     1       1.461   9.459  18.599  0.00  0.00    +0.000 C 
ATOM      6  O   UNL     1       1.373   9.771  17.405  0.00  0.00    +0.000 OA
ATOM      7  C   UNL     1       1.172  10.296  20.987  0.00  0.00    +0.000 C 
ATOM      8  C   UNL     1      -0.215  10.456  21.616  0.00  0.00    +0.000 C 
ENDROOT
BRANCH   5   9
ATOM      9  C   UNL     1       2.102   8.174  18.908  0.00  0.00    +0.000 A 
ATOM     10  N   UNL     1       3.016   7.761  17.954  0.00  0.00    +0.000 N 
ATOM     11  C   UNL     1       3.531   6.525  18.206  0.00  0.00    +0.000 A 
ATOM     12  C   UNL     1       4.498   5.805  17.502  0.00  0.00    +0.000 A 
ATOM     13  C   UNL     1       4.759   4.497  17.911  0.00  0.00    +0.000 A 
ATOM     14  C   UNL     1       4.039   3.928  18.958  0.00  0.00    +0.000 A 
ATOM     15  C   UNL     1       3.122   4.700  19.700  0.00  0.00    +0.000 A 
ATOM     16  C   UNL     1       2.872   6.043  19.326  0.00  0.00    +0.000 A 
ATOM     17  C   UNL     1       2.047   7.125  19.840  0.00  0.00    +0.000 A 
ATOM     18  C   UNL     1       1.286   6.993  21.120  0.00  0.00    +0.000 C 
ATOM     19  H   UNL     1       3.218   8.312  17.131  0.00  0.00    +0.000 HD
BRANCH  14  20
ATOM     20  C   UNL     1       4.214   2.489  19.311  0.00  0.00    +0.000 C 
ATOM     21  C   UNL     1       3.525   1.423  18.486  0.00  0.00    +0.000 C 
ATOM     22  O   UNL     1       4.903   2.186  20.282  0.00  0.00    +0.000 OA
ENDBRANCH  14  20
ENDBRANCH   5   9
BRANCH   1  26
ATOM     23  C   UNL     1      -2.774  13.972  24.260  0.00  0.00    +0.000 A 
ATOM     24  C   UNL     1      -1.535  14.428  23.809  0.00  0.00    +0.000 A 
ATOM     25  C   UNL     1      -0.817  13.721  22.827  0.00  0.00    +0.000 A 
ATOM     26  C   UNL     1      -1.330  12.544  22.275  0.00  0.00    +0.000 A 
ATOM     27  C   UNL     1      -2.548  12.077  22.795  0.00  0.00    +0.000 A 
ATOM     28  C   UNL     1      -3.267  12.773  23.766  0.00  0.00    +0.000 A 
BRANCH  23  30
ATOM     29  C   UNL     1      -3.786  16.044  24.757  0.00  0.00    +0.000 C 
ATOM     30  O   UNL     1      -3.400  14.745  25.200  0.00  0.00    +0.000 OA
ENDBRANCH  23  30
ENDBRANCH   1  26
TORSDOF 4
ENDMDL
MODEL 3
REMARK VINA RESULT:      -7.5      3.426      5.631
REMARK  Name = 
REMARK  7 active torsions:
REMARK  status: ('A' for Active; 'I' for Inactive)
REMARK    1  A    between atoms: C_1  and  O_2
REMARK    2  A    between atoms: O_2  and  C_3
REMARK    3  A    between atoms: C_6  and  N_7
REMARK    4  A    between atoms: C_11  and  C_13
REMARK    5  A    between atoms: C_18  and  C_19
REMARK    6  A    between atoms: C_19  and  C_20
REMARK    7  A    between atoms: C_24  and  C_25
REMARK                            x       y       z     vdW  Elec       q    Type
REMARK                         _______ _______ _______ _____ _____    ______ ____
ROOT
ATOM      1  N   UNL     1       1.058  13.632  19.800  0.00  0.00    +0.000 N 
ATOM      2  C   UNL     1       1.009  13.396  21.254  0.00  0.00    +0.000 C 
ATOM      3  C   UNL     1       0.309  12.036  21.551  0.00  0.00    +0.000 C 
ATOM      4  N   UNL     1       0.761  10.935  20.665  0.00  0.00    +0.000 N 
ATOM      5  C   UNL     1       1.067   9.700  21.207  0.00  0.00    +0.000 C 
ATOM      6  O   UNL     1       0.938   9.555  22.429  0.00  0.00    +0.000 OA
ATOM      7  C   UNL     1       0.692  11.293  19.257  0.00  0.00    +0.000 C 
ATOM      8  C   UNL     1       1.606  12.500  19.023  0.00  0.00    +0.000 C 
ENDROOT
BRANCH   5   9
ATOM      9  C   UNL     1       1.450   8.512  20.431  0.00  0.00    +0.000 A 
ATOM     10  N   UNL     1       1.417   7.334  21.158  0.00  0.00    +0.000 N 
ATOM     11  C   UNL     1       1.865   6.258  20.453  0.00  0.00    +0.000 A 
ATOM     12  C   UNL     1       1.938   4.916  20.832  0.00  0.00    +0.000 A 
ATOM     13  C   UNL     1       2.556   4.027  19.953  0.00  0.00    +0.000 A 
ATOM     14  C   UNL     1       3.117   4.485  18.762  0.00  0.00    +0.000 A 
ATOM     15  C   UNL     1       2.963   5.830  18.369  0.00  0.00    +0.000 A 
ATOM     16  C   UNL     1       2.304   6.741  19.230  0.00  0.00    +0.000 A 
ATOM     17  C   UNL     1       1.941   8.148  19.168  0.00  0.00    +0.000 A 
ATOM     18  C   UNL     1       2.156   8.961  17.931  0.00  0.00    +0.000 C 
ATOM     19  H   UNL     1       1.144   7.312  22.131  0.00  0.00    +0.000 HD
BRANCH  14  20
ATOM     20  C   UNL     1       3.898   3.567  17.885  0.00  0.00    +0.000 C 
ATOM     21  C   UNL     1       3.569   2.089  17.858  0.00  0.00    +0.000 C 
ATOM     22  O   UNL     1       4.816   4.019  17.205  0.00  0.00    +0.000 OA
ENDBRANCH  14  20
ENDBRANCH   5   9
BRANCH   1  26
ATOM     23  C   UNL     1       0.807  17.410  17.942  0.00  0.00    +0.000 A 
ATOM     24  C   UNL     1       2.055  16.883  18.276  0.00  0.00    +0.000 A 
ATOM     25  C   UNL     1       2.165  15.630  18.907  0.00  0.00    +0.000 A 
ATOM     26  C   UNL     1       1.026  14.880  19.211  0.00  0.00    +0.000 A 
ATOM     27  C   UNL     1      -0.217  15.465  18.921  0.00  0.00    +0.000 A 
ATOM     28  C   UNL     1      -0.335  16.705  18.294  0.00  0.00    +0.000 A 
BRANCH  23  30
ATOM     29  C   UNL     1       0.411  18.597  15.942  0.00  0.00    +0.000 C 
ATOM     30  O   UNL     1       0.810  18.624  17.311  0.00  0.00    +0.000 OA
ENDBRANCH  23  30
ENDBRANCH   1  26
TORSDOF 4
ENDMDL
MODEL 4
REMARK VINA RESULT:      -7.5      1.040      1.360
REMARK  Name = 
REMARK  7 active torsions:
REMARK  status: ('A' for Active; 'I' for Inactive)
REMARK    1  A    between atoms: C_1  and  O_2
REMARK    2  A    between atoms: O_2  and  C_3
REMARK    3  A    between atoms: C_6  and  N_7
REMARK    4  A    between atoms: C_11  and  C_13
REMARK    5  A    between atoms: C_18  and  C_19
REMARK    6  A    between atoms: C_19  and  C_20
REMARK    7  A    between atoms: C_24  and  C_25
REMARK                            x       y       z     vdW  Elec       q    Type
REMARK                         _______ _______ _______ _____ _____    ______ ____
ROOT
ATOM      1  N   UNL     1       1.197   9.344  19.904  0.00  0.00    +0.000 N 
ATOM      2  C   UNL     1       1.409   8.544  21.123  0.00  0.00    +0.000 C 
ATOM      3  C   UNL     1       1.378   7.025  20.778  0.00  0.00    +0.000 C 
ATOM      4  N   UNL     1       2.149   6.683  19.557  0.00  0.00    +0.000 N 
ATOM      5  C   UNL     1       3.000   5.592  19.567  0.00  0.00    +0.000 C 
ATOM      6  O   UNL     1       3.077   4.925  20.606  0.00  0.00    +0.000 OA
ATOM      7  C   UNL     1       1.784   7.513  18.420  0.00  0.00    +0.000 C 
ATOM      8  C   UNL     1       2.080   8.973  18.777  0.00  0.00    +0.000 C 
ENDROOT
BRANCH   5   9
ATOM      9  C   UNL     1       3.757   5.105  18.405  0.00  0.00    +0.000 A 
ATOM     10  N   UNL     1       4.937   5.792  18.178  0.00  0.00    +0.000 N 
ATOM     11  C   UNL     1       5.579   5.393  17.044  0.00  0.00    +0.000 A 
ATOM     12  C   UNL     1       6.800   5.820  16.518  0.00  0.00    +0.000 A 
ATOM     13  C   UNL     1       7.173   5.330  15.267  0.00  0.00    +0.000 A 
ATOM     14  C   UNL     1       6.325   4.482  14.558  0.00  0.00    +0.000 A 
ATOM     15  C   UNL     1       5.133   4.009  15.143  0.00  0.00    +0.000 A 
ATOM     16  C   UNL     1       4.756   4.463  16.430  0.00  0.00    +0.000 A 
ATOM     17  C   UNL     1       3.654   4.194  17.342  0.00  0.00    +0.000 A 
ATOM     18  C   UNL     1       2.634   3.140  17.052  0.00  0.00    +0.000 C 
ATOM     19  H   UNL     1       5.239   6.552  18.774  0.00  0.00    +0.000 HD
BRANCH  14  20
ATOM     20  C   UNL     1       6.653   4.066  13.164  0.00  0.00    +0.000 C 
ATOM     21  C   UNL     1       7.667   4.855  12.361  0.00  0.00    +0.000 C 
ATOM     22  O   UNL     1       6.081   3.096  12.674  0.00  0.00    +0.000 OA
ENDBRANCH  14  20
ENDBRANCH   5   9
BRANCH   1  26
ATOM     23  C   UNL     1      -0.538  13.186  19.766  0.00  0.00    +0.000 A 
ATOM     24  C   UNL     1      -1.065  12.217  20.620  0.00  0.00    +0.000 A 
ATOM     25  C   UNL     1      -0.512  10.924  20.677  0.00  0.00    +0.000 A 
ATOM     26  C   UNL     1       0.584  10.580  19.880  0.00  0.00    +0.000 A 
ATOM     27  C   UNL     1       1.050  11.556  18.985  0.00  0.00    +0.000 A 
ATOM     28  C   UNL     1       0.510  12.839  18.924  0.00  0.00    +0.000 A 
BRANCH  23  30
ATOM     29  C   UNL     1      -0.410  15.460  19.154  0.00  0.00    +0.000 C 
ATOM     30  O   UNL     1      -1.134  14.417  19.803  0.00  0.00    +0.000 OA
ENDBRANCH  23  30
ENDBRANCH   1  26
TORSDOF 4
ENDMDL
MODEL 5
REMARK VINA RESULT:      -7.5      2.243      4.547
REMARK  Name = 
REMARK  7 active torsions:
REMARK  status: ('A' for Active; 'I' for Inactive)
REMARK    1  A    between atoms: C_1  and  O_2
REMARK    2  A    between atoms: O_2  and  C_3
REMARK    3  A    between atoms: C_6  and  N_7
REMARK    4  A    between atoms: C_11  and  C_13
REMARK    5  A    between atoms: C_18  and  C_19
REMARK    6  A    between atoms: C_19  and  C_20
REMARK    7  A    between atoms: C_24  and  C_25
REMARK                            x       y       z     vdW  Elec       q    Type
REMARK                         _______ _______ _______ _____ _____    ______ ____
ROOT
ATOM      1  N   UNL     1      -1.672  12.044  21.129  0.00  0.00    +0.000 N 
ATOM      2  C   UNL     1      -0.987  11.769  22.404  0.00  0.00    +0.000 C 
ATOM      3  C   UNL     1      -0.626  10.257  22.502  0.00  0.00    +0.000 C 
ATOM      4  N   UNL     1      -0.049   9.707  21.250  0.00  0.00    +0.000 N 
ATOM      5  C   UNL     1       1.076   8.903  21.308  0.00  0.00    +0.000 C 
ATOM      6  O   UNL     1       1.557   8.660  22.421  0.00  0.00    +0.000 OA
ATOM      7  C   UNL     1      -0.869  10.003  20.086  0.00  0.00    +0.000 C 
ATOM      8  C   UNL     1      -0.963  11.525  19.939  0.00  0.00    +0.000 C 
ENDROOT
BRANCH   5   9
ATOM      9  C   UNL     1       1.695   8.238  20.153  0.00  0.00    +0.000 A 
ATOM     10  N   UNL     1       2.117   6.946  20.412  0.00  0.00    +0.000 N 
ATOM     11  C   UNL     1       2.773   6.377  19.362  0.00  0.00    +0.000 A 
ATOM     12  C   UNL     1       3.300   5.090  19.235  0.00  0.00    +0.000 A 
ATOM     13  C   UNL     1       4.037   4.801  18.087  0.00  0.00    +0.000 A 
ATOM     14  C   UNL     1       4.269   5.786  17.130  0.00  0.00    +0.000 A 
ATOM     15  C   UNL     1       3.664   7.054  17.246  0.00  0.00    +0.000 A 
ATOM     16  C   UNL     1       2.879   7.355  18.385  0.00  0.00    +0.000 A 
ATOM     17  C   UNL     1       2.101   8.499  18.835  0.00  0.00    +0.000 A 
ATOM     18  C   UNL     1       1.894   9.698  17.967  0.00  0.00    +0.000 C 
ATOM     19  H   UNL     1       1.995   6.512  21.318  0.00  0.00    +0.000 HD
BRANCH  14  20
ATOM     20  C   UNL     1       5.169   5.525  15.970  0.00  0.00    +0.000 C 
ATOM     21  C   UNL     1       5.707   4.129  15.734  0.00  0.00    +0.000 C 
ATOM     22  O   UNL     1       5.481   6.453  15.228  0.00  0.00    +0.000 OA
ENDBRANCH  14  20
ENDBRANCH   5   9
BRANCH   1  26
ATOM     23  C   UNL     1      -4.485  15.154  20.681  0.00  0.00    +0.000 A 
ATOM     24  C   UNL     1      -4.869  13.833  20.452  0.00  0.00    +0.000 A 
ATOM     25  C   UNL     1      -3.947  12.778  20.583  0.00  0.00    +0.000 A 
ATOM     26  C   UNL     1      -2.622  13.028  20.951  0.00  0.00    +0.000 A 
ATOM     27  C   UNL     1      -2.251  14.373  21.111  0.00  0.00    +0.000 A 
ATOM     28  C   UNL     1      -3.158  15.424  20.985  0.00  0.00    +0.000 A 
BRANCH  23  30
ATOM     29  C   UNL     1      -6.787  15.651  20.826  0.00  0.00    +0.000 C 
ATOM     30  O   UNL     1      -5.463  16.102  20.549  0.00  0.00    +0.000 OA
ENDBRANCH  23  30
ENDBRANCH   1  26
TORSDOF 4
ENDMDL
MODEL 6
REMARK VINA RESULT:      -7.5      3.027      4.897
REMARK  Name = 
REMARK  7 active torsions:
REMARK  status: ('A' for Active; 'I' for Inactive)
REMARK    1  A    between atoms: C_1  and  O_2
REMARK    2  A    between atoms: O_2  and  C_3
REMARK    3  A    between atoms: C_6  and  N_7
REMARK    4  A    between atoms: C_11  and  C_13
REMARK    5  A    between atoms: C_18  and  C_19
REMARK    6  A    between atoms: C_19  and  C_20
REMARK    7  A    between atoms: C_24  and  C_25
REMARK                            x       y       z     vdW  Elec       q    Type
REMARK                         _______ _______ _______ _____ _____    ______ ____
ROOT
ATOM      1  N   UNL     1      -1.067  11.623  20.683  0.00  0.00    +0.000 N 
ATOM      2  C   UNL     1      -0.887  11.980  19.264  0.00  0.00    +0.000 C 
ATOM      3  C   UNL     1       0.567  11.655  18.811  0.00  0.00    +0.000 C 
ATOM      4  N   UNL     1       1.048  10.331  19.279  0.00  0.00    +0.000 N 
ATOM      5  C   UNL     1       1.704   9.489  18.399  0.00  0.00    +0.000 C 
ATOM      6  O   UNL     1       1.878   9.884  17.239  0.00  0.00    +0.000 OA
ATOM      7  C   UNL     1       0.864  10.149  20.710  0.00  0.00    +0.000 C 
ATOM      8  C   UNL     1      -0.633  10.249  21.019  0.00  0.00    +0.000 C 
ENDROOT
BRANCH   5   9
ATOM      9  C   UNL     1       2.293   8.192  18.757  0.00  0.00    +0.000 A 
ATOM     10  N   UNL     1       3.242   7.739  17.856  0.00  0.00    +0.000 N 
ATOM     11  C   UNL     1       3.709   6.494  18.151  0.00  0.00    +0.000 A 
ATOM     12  C   UNL     1       4.689   5.737  17.505  0.00  0.00    +0.000 A 
ATOM     13  C   UNL     1       4.893   4.430  17.945  0.00  0.00    +0.000 A 
ATOM     14  C   UNL     1       4.106   3.896  18.963  0.00  0.00    +0.000 A 
ATOM     15  C   UNL     1       3.176   4.704  19.648  0.00  0.00    +0.000 A 
ATOM     16  C   UNL     1       2.982   6.047  19.243  0.00  0.00    +0.000 A 
ATOM     17  C   UNL     1       2.163   7.160  19.700  0.00  0.00    +0.000 A 
ATOM     18  C   UNL     1       1.337   7.068  20.942  0.00  0.00    +0.000 C 
ATOM     19  H   UNL     1       3.499   8.272  17.035  0.00  0.00    +0.000 HD
BRANCH  14  20
ATOM     20  C   UNL     1       4.224   2.459  19.344  0.00  0.00    +0.000 C 
ATOM     21  C   UNL     1       3.531   1.400  18.513  0.00  0.00    +0.000 C 
ATOM     22  O   UNL     1       4.869   2.151  20.344  0.00  0.00    +0.000 OA
ENDBRANCH  14  20
ENDBRANCH   5   9
BRANCH   1  26
ATOM     23  C   UNL     1      -3.668  13.747  23.234  0.00  0.00    +0.000 A 
ATOM     24  C   UNL     1      -3.018  12.604  23.701  0.00  0.00    +0.000 A 
ATOM     25  C   UNL     1      -2.154  11.871  22.867  0.00  0.00    +0.000 A 
ATOM     26  C   UNL     1      -1.923  12.272  21.548  0.00  0.00    +0.000 A 
ATOM     27  C   UNL     1      -2.641  13.388  21.089  0.00  0.00    +0.000 A 
ATOM     28  C   UNL     1      -3.497  14.121  21.909  0.00  0.00    +0.000 A 
BRANCH  23  30
ATOM     29  C   UNL     1      -5.813  14.609  23.703  0.00  0.00    +0.000 C 
ATOM     30  O   UNL     1      -4.469  14.399  24.131  0.00  0.00    +0.000 OA
ENDBRANCH  23  30
ENDBRANCH   1  26
TORSDOF 4
ENDMDL
MODEL 7
REMARK VINA RESULT:      -7.4      2.471      4.994
REMARK  Name = 
REMARK  7 active torsions:
REMARK  status: ('A' for Active; 'I' for Inactive)
REMARK    1  A    between atoms: C_1  and  O_2
REMARK    2  A    between atoms: O_2  and  C_3
REMARK    3  A    between atoms: C_6  and  N_7
REMARK    4  A    between atoms: C_11  and  C_13
REMARK    5  A    between atoms: C_18  and  C_19
REMARK    6  A    between atoms: C_19  and  C_20
REMARK    7  A    between atoms: C_24  and  C_25
REMARK                            x       y       z     vdW  Elec       q    Type
REMARK                         _______ _______ _______ _____ _____    ______ ____
ROOT
ATOM      1  N   UNL     1      -2.051  12.220  21.228  0.00  0.00    +0.000 N 
ATOM      2  C   UNL     1      -1.256  12.136  22.466  0.00  0.00    +0.000 C 
ATOM      3  C   UNL     1      -0.762  10.675  22.686  0.00  0.00    +0.000 C 
ATOM      4  N   UNL     1      -0.233  10.041  21.453  0.00  0.00    +0.000 N 
ATOM      5  C   UNL     1       0.957   9.336  21.502  0.00  0.00    +0.000 C 
ATOM      6  O   UNL     1       1.537   9.250  22.591  0.00  0.00    +0.000 OA
ATOM      7  C   UNL     1      -1.156  10.147  20.335  0.00  0.00    +0.000 C 
ATOM      8  C   UNL     1      -1.388  11.633  20.044  0.00  0.00    +0.000 C 
ENDROOT
BRANCH   5   9
ATOM      9  C   UNL     1       1.545   8.601  20.374  0.00  0.00    +0.000 A 
ATOM     10  N   UNL     1       1.990   7.332  20.703  0.00  0.00    +0.000 N 
ATOM     11  C   UNL     1       2.617   6.700  19.672  0.00  0.00    +0.000 A 
ATOM     12  C   UNL     1       3.152   5.411  19.614  0.00  0.00    +0.000 A 
ATOM     13  C   UNL     1       3.855   5.053  18.464  0.00  0.00    +0.000 A 
ATOM     14  C   UNL     1       4.046   5.974  17.437  0.00  0.00    +0.000 A 
ATOM     15  C   UNL     1       3.433   7.242  17.488  0.00  0.00    +0.000 A 
ATOM     16  C   UNL     1       2.682   7.611  18.630  0.00  0.00    +0.000 A 
ATOM     17  C   UNL     1       1.907   8.777  19.029  0.00  0.00    +0.000 A 
ATOM     18  C   UNL     1       1.660   9.914  18.090  0.00  0.00    +0.000 C 
ATOM     19  H   UNL     1       1.900   6.959  21.639  0.00  0.00    +0.000 HD
BRANCH  14  20
ATOM     20  C   UNL     1       4.912   5.644  16.268  0.00  0.00    +0.000 C 
ATOM     21  C   UNL     1       5.369   4.217  16.049  0.00  0.00    +0.000 C 
ATOM     22  O   UNL     1       5.260   6.540  15.504  0.00  0.00    +0.000 OA
ENDBRANCH  14  20
ENDBRANCH   5   9
BRANCH   1  26
ATOM     23  C   UNL     1      -5.279  14.832  20.486  0.00  0.00    +0.000 A 
ATOM     24  C   UNL     1      -4.192  15.270  21.243  0.00  0.00    +0.000 A 
ATOM     25  C   UNL     1      -3.108  14.415  21.515  0.00  0.00    +0.000 A 
ATOM     26  C   UNL     1      -3.092  13.105  21.029  0.00  0.00    +0.000 A 
ATOM     27  C   UNL     1      -4.228  12.674  20.325  0.00  0.00    +0.000 A 
ATOM     28  C   UNL     1      -5.305  13.515  20.050  0.00  0.00    +0.000 A 
BRANCH  23  30
ATOM     29  C   UNL     1      -7.545  15.194  19.939  0.00  0.00    +0.000 C 
ATOM     30  O   UNL     1      -6.270  15.748  20.261  0.00  0.00    +0.000 OA
ENDBRANCH  23  30
ENDBRANCH   1  26
TORSDOF 4
ENDMDL
MODEL 8
REMARK VINA RESULT:      -7.4      3.227      5.540
REMARK  Name = 
REMARK  7 active torsions:
REMARK  status: ('A' for Active; 'I' for Inactive)
REMARK    1  A    between atoms: C_1  and  O_2
REMARK    2  A    between atoms: O_2  and  C_3
REMARK    3  A    between atoms: C_6  and  N_7
REMARK    4  A    between atoms: C_11  and  C_13
REMARK    5  A    between atoms: C_18  and  C_19
REMARK    6  A    between atoms: C_19  and  C_20
REMARK    7  A    between atoms: C_24  and  C_25
REMARK                            x       y       z     vdW  Elec       q    Type
REMARK                         _______ _______ _______ _____ _____    ______ ____
ROOT
ATOM      1  N   UNL     1      -2.323  11.524  18.531  0.00  0.00    +0.000 N 
ATOM      2  C   UNL     1      -1.304  12.326  17.833  0.00  0.00    +0.000 C 
ATOM      3  C   UNL     1       0.090  12.116  18.497  0.00  0.00    +0.000 C 
ATOM      4  N   UNL     1       0.387  10.694  18.803  0.00  0.00    +0.000 N 
ATOM      5  C   UNL     1       1.627  10.169  18.485  0.00  0.00    +0.000 C 
ATOM      6  O   UNL     1       2.458  10.921  17.961  0.00  0.00    +0.000 OA
ATOM      7  C   UNL     1      -0.682  10.053  19.552  0.00  0.00    +0.000 C 
ATOM      8  C   UNL     1      -1.957  10.102  18.705  0.00  0.00    +0.000 C 
ENDROOT
BRANCH   5   9
ATOM      9  C   UNL     1       2.070   8.805  18.805  0.00  0.00    +0.000 A 
ATOM     10  N   UNL     1       2.801   8.203  17.795  0.00  0.00    +0.000 N 
ATOM     11  C   UNL     1       3.123   6.907  18.067  0.00  0.00    +0.000 A 
ATOM     12  C   UNL     1       3.879   6.004  17.318  0.00  0.00    +0.000 A 
ATOM     13  C   UNL     1       3.955   4.688  17.773  0.00  0.00    +0.000 A 
ATOM     14  C   UNL     1       3.258   4.293  18.913  0.00  0.00    +0.000 A 
ATOM     15  C   UNL     1       2.563   5.241  19.692  0.00  0.00    +0.000 A 
ATOM     16  C   UNL     1       2.507   6.591  19.268  0.00  0.00    +0.000 A 
ATOM     17  C   UNL     1       1.933   7.819  19.795  0.00  0.00    +0.000 A 
ATOM     18  C   UNL     1       1.293   7.872  21.145  0.00  0.00    +0.000 C 
ATOM     19  H   UNL     1       3.010   8.678  16.927  0.00  0.00    +0.000 HD
BRANCH  14  20
ATOM     20  C   UNL     1       3.222   2.861  19.327  0.00  0.00    +0.000 C 
ATOM     21  C   UNL     1       1.918   2.093  19.272  0.00  0.00    +0.000 C 
ATOM     22  O   UNL     1       4.251   2.324  19.728  0.00  0.00    +0.000 OA
ENDBRANCH  14  20
ENDBRANCH   5   9
BRANCH   1  26
ATOM     23  C   UNL     1      -6.396  12.605  18.716  0.00  0.00    +0.000 A 
ATOM     24  C   UNL     1      -5.550  12.904  19.784  0.00  0.00    +0.000 A 
ATOM     25  C   UNL     1      -4.190  12.544  19.752  0.00  0.00    +0.000 A 
ATOM     26  C   UNL     1      -3.651  11.880  18.646  0.00  0.00    +0.000 A 
ATOM     27  C   UNL     1      -4.542  11.537  17.616  0.00  0.00    +0.000 A 
ATOM     28  C   UNL     1      -5.890  11.892  17.639  0.00  0.00    +0.000 A 
BRANCH  23  30
ATOM     29  C   UNL     1      -7.916  14.051  19.794  0.00  0.00    +0.000 C 
ATOM     30  O   UNL     1      -7.695  13.018  18.836  0.00  0.00    +0.000 OA
ENDBRANCH  23  30
ENDBRANCH   1  26
TORSDOF 4
ENDMDL
MODEL 9
REMARK VINA RESULT:      -7.3      3.300     11.411
REMARK  Name = 
REMARK  7 active torsions:
REMARK  status: ('A' for Active; 'I' for Inactive)
REMARK    1  A    between atoms: C_1  and  O_2
REMARK    2  A    between atoms: O_2  and  C_3
REMARK    3  A    between atoms: C_6  and  N_7
REMARK    4  A    between atoms: C_11  and  C_13
REMARK    5  A    between atoms: C_18  and  C_19
REMARK    6  A    between atoms: C_19  and  C_20
REMARK    7  A    between atoms: C_24  and  C_25
REMARK                            x       y       z     vdW  Elec       q    Type
REMARK                         _______ _______ _______ _____ _____    ______ ____
ROOT
ATOM      1  N   UNL     1       1.977   7.735  19.400  0.00  0.00    +0.000 N 
ATOM      2  C   UNL     1       2.121   8.618  18.229  0.00  0.00    +0.000 C 
ATOM      3  C   UNL     1       0.914   9.599  18.147  0.00  0.00    +0.000 C 
ATOM      4  N   UNL     1       0.555  10.202  19.455  0.00  0.00    +0.000 N 
ATOM      5  C   UNL     1       0.305  11.560  19.539  0.00  0.00    +0.000 C 
ATOM      6  O   UNL     1       0.380  12.229  18.501  0.00  0.00    +0.000 OA
ATOM      7  C   UNL     1       0.382   9.202  20.497  0.00  0.00    +0.000 C 
ATOM      8  C   UNL     1       1.706   8.450  20.666  0.00  0.00    +0.000 C 
ENDROOT
BRANCH   5   9
ATOM      9  C   UNL     1      -0.133  12.261  20.754  0.00  0.00    +0.000 A 
ATOM     10  N   UNL     1      -1.335  11.802  21.263  0.00  0.00    +0.000 N 
ATOM     11  C   UNL     1      -1.775  12.523  22.332  0.00  0.00    +0.000 A 
ATOM     12  C   UNL     1      -2.909  12.335  23.125  0.00  0.00    +0.000 A 
ATOM     13  C   UNL     1      -3.191  13.300  24.091  0.00  0.00    +0.000 A 
ATOM     14  C   UNL     1      -2.386  14.429  24.218  0.00  0.00    +0.000 A 
ATOM     15  C   UNL     1      -1.206  14.558  23.457  0.00  0.00    +0.000 A 
ATOM     16  C   UNL     1      -0.880  13.569  22.497  0.00  0.00    +0.000 A 
ATOM     17  C   UNL     1       0.221  13.345  21.573  0.00  0.00    +0.000 A 
ATOM     18  C   UNL     1       1.432  14.220  21.568  0.00  0.00    +0.000 C 
ATOM     19  H   UNL     1      -1.847  11.045  20.828  0.00  0.00    +0.000 HD
BRANCH  14  20
ATOM     20  C   UNL     1      -2.758  15.530  25.153  0.00  0.00    +0.000 C 
ATOM     21  C   UNL     1      -4.027  16.322  24.916  0.00  0.00    +0.000 C 
ATOM     22  O   UNL     1      -2.019  15.795  26.098  0.00  0.00    +0.000 OA
ENDBRANCH  14  20
ENDBRANCH   5   9
BRANCH   1  26
ATOM     23  C   UNL     1       3.474   3.792  19.435  0.00  0.00    +0.000 A 
ATOM     24  C   UNL     1       2.561   4.196  20.409  0.00  0.00    +0.000 A 
ATOM     25  C   UNL     1       2.055   5.509  20.427  0.00  0.00    +0.000 A 
ATOM     26  C   UNL     1       2.453   6.442  19.465  0.00  0.00    +0.000 A 
ATOM     27  C   UNL     1       3.421   6.024  18.537  0.00  0.00    +0.000 A 
ATOM     28  C   UNL     1       3.926   4.724  18.512  0.00  0.00    +0.000 A 
BRANCH  23  30
ATOM     29  C   UNL     1       3.445   1.665  18.417  0.00  0.00    +0.000 C 
ATOM     30  O   UNL     1       3.887   2.489  19.493  0.00  0.00    +0.000 OA
ENDBRANCH  23  30
ENDBRANCH   1  26
TORSDOF 4
ENDMDL
