MODEL 1
REMARK VINA RESULT:      -7.3      0.000      0.000
REMARK  Name = 
REMARK  2 active torsions:
REMARK  status: ('A' for Active; 'I' for Inactive)
REMARK    1  A    between atoms: C_1  and  C_2
REMARK    2  A    between atoms: C_5  and  C_7
REMARK                            x       y       z     vdW  Elec       q    Type
REMARK                         _______ _______ _______ _____ _____    ______ ____
ROOT
ATOM      1  C   UNL     1       1.833   5.082  20.799  0.00  0.00    +0.000 C 
ATOM      2  C   UNL     1       2.197   4.281  19.552  0.00  0.00    +0.000 C 
ATOM      3  C   UNL     1       3.713   4.127  19.418  0.00  0.00    +0.000 C 
ATOM      4  N   UNL     1       4.037   3.285  18.259  0.00  0.00    +0.000 N 
ATOM      5  C   UNL     1       4.764   3.666  17.116  0.00  0.00    +0.000 C 
ATOM      6  O   UNL     1       5.001   2.849  16.235  0.00  0.00    +0.000 OA
ATOM      7  C   UNL     1       3.447   1.946  18.303  0.00  0.00    +0.000 C 
ATOM      8  C   UNL     1       1.932   2.048  18.384  0.00  0.00    +0.000 C 
ATOM      9  C   UNL     1       1.546   2.902  19.577  0.00  0.00    +0.000 C 
ATOM     10  F   UNL     1       1.892   2.247  20.717  0.00  0.00    +0.000 F 
ATOM     11  F   UNL     1       0.195   3.034  19.609  0.00  0.00    +0.000 F 
ENDROOT
BRANCH   5  12
ATOM     12  C   UNL     1       5.250   5.033  17.014  0.00  0.00    +0.000 A 
ATOM     13  O   UNL     1       4.676   5.899  16.126  0.00  0.00    +0.000 OA
ATOM     14  N   UNL     1       5.269   7.151  16.225  0.00  0.00    +0.000 NA
ATOM     15  C   UNL     1       6.234   7.002  17.131  0.00  0.00    +0.000 A 
ATOM     16  C   UNL     1       6.281   5.685  17.647  0.00  0.00    +0.000 A 
ATOM     17  C   UNL     1       7.271   5.235  18.656  0.00  0.00    +0.000 C 
ATOM     18  C   UNL     1       8.018   6.430  19.286  0.00  0.00    +0.000 C 
ATOM     19  C   UNL     1       8.390   7.505  18.248  0.00  0.00    +0.000 C 
ATOM     20  C   UNL     1       7.137   8.095  17.572  0.00  0.00    +0.000 C 
ENDBRANCH   5  12
TORSDOF 1
ENDMDL
MODEL 2
REMARK VINA RESULT:      -7.3      3.822      5.557
REMARK  Name = 
REMARK  2 active torsions:
REMARK  status: ('A' for Active; 'I' for Inactive)
REMARK    1  A    between atoms: C_1  and  C_2
REMARK    2  A    between atoms: C_5  and  C_7
REMARK                            x       y       z     vdW  Elec       q    Type
REMARK                         _______ _______ _______ _____ _____    ______ ____
ROOT
ATOM      1  C   UNL     1       7.603   6.872  18.329  0.00  0.00    +0.000 C 
ATOM      2  C   UNL     1       6.571   5.792  18.016  0.00  0.00    +0.000 C 
ATOM      3  C   UNL     1       5.276   6.404  17.479  0.00  0.00    +0.000 C 
ATOM      4  N   UNL     1       4.330   5.345  17.107  0.00  0.00    +0.000 N 
ATOM      5  C   UNL     1       3.062   5.112  17.670  0.00  0.00    +0.000 C 
ATOM      6  O   UNL     1       2.349   4.214  17.237  0.00  0.00    +0.000 OA
ATOM      7  C   UNL     1       4.838   4.406  16.105  0.00  0.00    +0.000 C 
ATOM      8  C   UNL     1       6.100   3.732  16.619  0.00  0.00    +0.000 C 
ATOM      9  C   UNL     1       7.116   4.789  17.005  0.00  0.00    +0.000 C 
ATOM     10  F   UNL     1       7.525   5.438  15.883  0.00  0.00    +0.000 F 
ATOM     11  F   UNL     1       8.218   4.179  17.515  0.00  0.00    +0.000 F 
ENDROOT
BRANCH   5  12
ATOM     12  C   UNL     1       2.602   5.970  18.750  0.00  0.00    +0.000 A 
ATOM     13  O   UNL     1       2.503   5.477  20.022  0.00  0.00    +0.000 OA
ATOM     14  N   UNL     1       2.083   6.475  20.892  0.00  0.00    +0.000 NA
ATOM     15  C   UNL     1       1.877   7.539  20.119  0.00  0.00    +0.000 A 
ATOM     16  C   UNL     1       2.168   7.274  18.759  0.00  0.00    +0.000 A 
ATOM     17  C   UNL     1       2.006   8.275  17.676  0.00  0.00    +0.000 C 
ATOM     18  C   UNL     1       1.791   9.693  18.246  0.00  0.00    +0.000 C 
ATOM     19  C   UNL     1       0.851   9.700  19.467  0.00  0.00    +0.000 C 
ATOM     20  C   UNL     1       1.422   8.859  20.624  0.00  0.00    +0.000 C 
ENDBRANCH   5  12
TORSDOF 1
ENDMDL
MODEL 3
REMARK VINA RESULT:      -7.2      3.750      5.655
REMARK  Name = 
REMARK  2 active torsions:
REMARK  status: ('A' for Active; 'I' for Inactive)
REMARK    1  A    between atoms: C_1  and  C_2
REMARK    2  A    between atoms: C_5  and  C_7
REMARK                            x       y       z     vdW  Elec       q    Type
REMARK                         _______ _______ _______ _____ _____    ______ ____
ROOT
ATOM      1  C   UNL     1       7.496   7.799  17.421  0.00  0.00    +0.000 C 
ATOM      2  C   UNL     1       6.463   6.780  17.895  0.00  0.00    +0.000 C 
ATOM      3  C   UNL     1       5.194   6.841  17.043  0.00  0.00    +0.000 C 
ATOM      4  N   UNL     1       4.250   5.799  17.464  0.00  0.00    +0.000 N 
ATOM      5  C   UNL     1       2.960   5.993  17.992  0.00  0.00    +0.000 C 
ATOM      6  O   UNL     1       2.253   5.030  18.265  0.00  0.00    +0.000 OA
ATOM      7  C   UNL     1       4.781   4.437  17.389  0.00  0.00    +0.000 C 
ATOM      8  C   UNL     1       6.018   4.313  18.265  0.00  0.00    +0.000 C 
ATOM      9  C   UNL     1       7.032   5.365  17.860  0.00  0.00    +0.000 C 
ATOM     10  F   UNL     1       7.485   5.080  16.610  0.00  0.00    +0.000 F 
ATOM     11  F   UNL     1       8.108   5.284  18.684  0.00  0.00    +0.000 F 
ENDROOT
BRANCH   5  12
ATOM     12  C   UNL     1       2.473   7.350  18.180  0.00  0.00    +0.000 A 
ATOM     13  O   UNL     1       2.594   8.267  17.173  0.00  0.00    +0.000 OA
ATOM     14  N   UNL     1       2.031   9.477  17.557  0.00  0.00    +0.000 NA
ATOM     15  C   UNL     1       1.634   9.288  18.813  0.00  0.00    +0.000 A 
ATOM     16  C   UNL     1       1.904   7.974  19.265  0.00  0.00    +0.000 A 
ATOM     17  C   UNL     1       1.585   7.495  20.632  0.00  0.00    +0.000 C 
ATOM     18  C   UNL     1       0.662   8.484  21.375  0.00  0.00    +0.000 C 
ATOM     19  C   UNL     1       1.055   9.953  21.131  0.00  0.00    +0.000 C 
ATOM     20  C   UNL     1       0.960  10.323  19.638  0.00  0.00    +0.000 C 
ENDBRANCH   5  12
TORSDOF 1
ENDMDL
MODEL 4
REMARK VINA RESULT:      -7.0      1.819      2.800
REMARK  Name = 
REMARK  2 active torsions:
REMARK  status: ('A' for Active; 'I' for Inactive)
REMARK    1  A    between atoms: C_1  and  C_2
REMARK    2  A    between atoms: C_5  and  C_7
REMARK                            x       y       z     vdW  Elec       q    Type
REMARK                         _______ _______ _______ _____ _____    ______ ____
ROOT
ATOM      1  C   UNL     1       2.971   1.516  18.676  0.00  0.00    +0.000 C 
ATOM      2  C   UNL     1       2.841   2.874  19.360  0.00  0.00    +0.000 C 
ATOM      3  C   UNL     1       2.424   3.958  18.364  0.00  0.00    +0.000 C 
ATOM      4  N   UNL     1       2.225   5.236  19.058  0.00  0.00    +0.000 N 
ATOM      5  C   UNL     1       2.943   6.428  18.852  0.00  0.00    +0.000 C 
ATOM      6  O   UNL     1       2.647   7.442  19.472  0.00  0.00    +0.000 OA
ATOM      7  C   UNL     1       1.226   5.193  20.127  0.00  0.00    +0.000 C 
ATOM      8  C   UNL     1       1.627   4.163  21.172  0.00  0.00    +0.000 C 
ATOM      9  C   UNL     1       1.833   2.818  20.503  0.00  0.00    +0.000 C 
ATOM     10  F   UNL     1       0.635   2.369  20.041  0.00  0.00    +0.000 F 
ATOM     11  F   UNL     1       2.244   1.919  21.433  0.00  0.00    +0.000 F 
ENDROOT
BRANCH   5  12
ATOM     12  C   UNL     1       4.019   6.442  17.874  0.00  0.00    +0.000 A 
ATOM     13  O   UNL     1       3.862   7.112  16.692  0.00  0.00    +0.000 OA
ATOM     14  N   UNL     1       5.021   7.023  15.933  0.00  0.00    +0.000 NA
ATOM     15  C   UNL     1       5.838   6.250  16.643  0.00  0.00    +0.000 A 
ATOM     16  C   UNL     1       5.254   5.838  17.866  0.00  0.00    +0.000 A 
ATOM     17  C   UNL     1       5.934   4.954  18.843  0.00  0.00    +0.000 C 
ATOM     18  C   UNL     1       7.435   4.801  18.517  0.00  0.00    +0.000 C 
ATOM     19  C   UNL     1       7.696   4.648  17.007  0.00  0.00    +0.000 C 
ATOM     20  C   UNL     1       7.214   5.883  16.222  0.00  0.00    +0.000 C 
ENDBRANCH   5  12
TORSDOF 1
ENDMDL
MODEL 5
REMARK VINA RESULT:      -7.0      2.143      3.269
REMARK  Name = 
REMARK  2 active torsions:
REMARK  status: ('A' for Active; 'I' for Inactive)
REMARK    1  A    between atoms: C_1  and  C_2
REMARK    2  A    between atoms: C_5  and  C_7
REMARK                            x       y       z     vdW  Elec       q    Type
REMARK                         _______ _______ _______ _____ _____    ______ ____
ROOT
ATOM      1  C   UNL     1       4.487   1.516  20.076  0.00  0.00    +0.000 C 
ATOM      2  C   UNL     1       3.875   2.911  19.977  0.00  0.00    +0.000 C 
ATOM      3  C   UNL     1       3.683   3.328  18.518  0.00  0.00    +0.000 C 
ATOM      4  N   UNL     1       3.018   4.635  18.448  0.00  0.00    +0.000 N 
ATOM      5  C   UNL     1       3.543   5.819  17.897  0.00  0.00    +0.000 C 
ATOM      6  O   UNL     1       2.864   6.838  17.863  0.00  0.00    +0.000 OA
ATOM      7  C   UNL     1       1.714   4.686  19.110  0.00  0.00    +0.000 C 
ATOM      8  C   UNL     1       1.864   4.328  20.580  0.00  0.00    +0.000 C 
ATOM      9  C   UNL     1       2.537   2.975  20.705  0.00  0.00    +0.000 C 
ATOM     10  F   UNL     1       1.699   2.021  20.219  0.00  0.00    +0.000 F 
ATOM     11  F   UNL     1       2.717   2.689  22.020  0.00  0.00    +0.000 F 
ENDROOT
BRANCH   5  12
ATOM     12  C   UNL     1       4.888   5.803  17.344  0.00  0.00    +0.000 A 
ATOM     13  O   UNL     1       5.903   6.446  17.996  0.00  0.00    +0.000 OA
ATOM     14  N   UNL     1       7.100   6.269  17.313  0.00  0.00    +0.000 NA
ATOM     15  C   UNL     1       6.775   5.572  16.227  0.00  0.00    +0.000 A 
ATOM     16  C   UNL     1       5.392   5.267  16.184  0.00  0.00    +0.000 A 
ATOM     17  C   UNL     1       4.753   4.518  15.075  0.00  0.00    +0.000 C 
ATOM     18  C   UNL     1       5.805   3.858  14.159  0.00  0.00    +0.000 C 
ATOM     19  C   UNL     1       7.011   4.777  13.890  0.00  0.00    +0.000 C 
ATOM     20  C   UNL     1       7.748   5.138  15.194  0.00  0.00    +0.000 C 
ENDBRANCH   5  12
TORSDOF 1
ENDMDL
MODEL 6
REMARK VINA RESULT:      -7.0      1.577      2.034
REMARK  Name = 
REMARK  2 active torsions:
REMARK  status: ('A' for Active; 'I' for Inactive)
REMARK    1  A    between atoms: C_1  and  C_2
REMARK    2  A    between atoms: C_5  and  C_7
REMARK                            x       y       z     vdW  Elec       q    Type
REMARK                         _______ _______ _______ _____ _____    ______ ____
ROOT
ATOM      1  C   UNL     1       2.455   3.040  21.760  0.00  0.00    +0.000 C 
ATOM      2  C   UNL     1       2.481   3.433  20.286  0.00  0.00    +0.000 C 
ATOM      3  C   UNL     1       3.748   2.922  19.599  0.00  0.00    +0.000 C 
ATOM      4  N   UNL     1       3.712   3.240  18.166  0.00  0.00    +0.000 N 
ATOM      5  C   UNL     1       4.608   4.065  17.463  0.00  0.00    +0.000 C 
ATOM      6  O   UNL     1       4.490   4.215  16.252  0.00  0.00    +0.000 OA
ATOM      7  C   UNL     1       2.557   2.689  17.455  0.00  0.00    +0.000 C 
ATOM      8  C   UNL     1       1.270   3.213  18.072  0.00  0.00    +0.000 C 
ATOM      9  C   UNL     1       1.254   2.897  19.555  0.00  0.00    +0.000 C 
ATOM     10  F   UNL     1       1.171   1.550  19.717  0.00  0.00    +0.000 F 
ATOM     11  F   UNL     1       0.128   3.418  20.107  0.00  0.00    +0.000 F 
ENDROOT
BRANCH   5  12
ATOM     12  C   UNL     1       5.689   4.712  18.190  0.00  0.00    +0.000 A 
ATOM     13  O   UNL     1       6.092   4.218  19.400  0.00  0.00    +0.000 OA
ATOM     14  N   UNL     1       7.155   4.964  19.892  0.00  0.00    +0.000 NA
ATOM     15  C   UNL     1       7.337   5.934  18.998  0.00  0.00    +0.000 A 
ATOM     16  C   UNL     1       6.430   5.836  17.915  0.00  0.00    +0.000 A 
ATOM     17  C   UNL     1       6.395   6.798  16.786  0.00  0.00    +0.000 C 
ATOM     18  C   UNL     1       7.642   7.707  16.780  0.00  0.00    +0.000 C 
ATOM     19  C   UNL     1       8.038   8.172  18.194  0.00  0.00    +0.000 C 
ATOM     20  C   UNL     1       8.386   6.979  19.105  0.00  0.00    +0.000 C 
ENDBRANCH   5  12
TORSDOF 1
ENDMDL
MODEL 7
REMARK VINA RESULT:      -6.8      4.102      5.595
REMARK  Name = 
REMARK  2 active torsions:
REMARK  status: ('A' for Active; 'I' for Inactive)
REMARK    1  A    between atoms: C_1  and  C_2
REMARK    2  A    between atoms: C_5  and  C_7
REMARK                            x       y       z     vdW  Elec       q    Type
REMARK                         _______ _______ _______ _____ _____    ______ ____
ROOT
ATOM      1  C   UNL     1       1.121   3.200  20.995  0.00  0.00    +0.000 C 
ATOM      2  C   UNL     1       1.464   4.035  19.764  0.00  0.00    +0.000 C 
ATOM      3  C   UNL     1       2.441   5.159  20.112  0.00  0.00    +0.000 C 
ATOM      4  N   UNL     1       2.820   5.896  18.900  0.00  0.00    +0.000 N 
ATOM      5  C   UNL     1       2.578   7.255  18.630  0.00  0.00    +0.000 C 
ATOM      6  O   UNL     1       2.986   7.760  17.591  0.00  0.00    +0.000 OA
ATOM      7  C   UNL     1       3.432   5.070  17.858  0.00  0.00    +0.000 C 
ATOM      8  C   UNL     1       2.473   3.966  17.441  0.00  0.00    +0.000 C 
ATOM      9  C   UNL     1       2.060   3.166  18.661  0.00  0.00    +0.000 C 
ATOM     10  F   UNL     1       3.144   2.497  19.135  0.00  0.00    +0.000 F 
ATOM     11  F   UNL     1       1.161   2.220  18.288  0.00  0.00    +0.000 F 
ENDROOT
BRANCH   5  12
ATOM     12  C   UNL     1       1.863   8.053  19.613  0.00  0.00    +0.000 A 
ATOM     13  O   UNL     1       1.921   7.719  20.938  0.00  0.00    +0.000 OA
ATOM     14  N   UNL     1       1.200   8.634  21.695  0.00  0.00    +0.000 NA
ATOM     15  C   UNL     1       0.668   9.470  20.806  0.00  0.00    +0.000 A 
ATOM     16  C   UNL     1       1.035   9.141  19.479  0.00  0.00    +0.000 A 
ATOM     17  C   UNL     1       0.568   9.893  18.289  0.00  0.00    +0.000 C 
ATOM     18  C   UNL     1      -0.093  11.230  18.690  0.00  0.00    +0.000 C 
ATOM     19  C   UNL     1      -0.991  11.093  19.933  0.00  0.00    +0.000 C 
ATOM     20  C   UNL     1      -0.187  10.630  21.163  0.00  0.00    +0.000 C 
ENDBRANCH   5  12
TORSDOF 1
ENDMDL
MODEL 8
REMARK VINA RESULT:      -6.7      3.017      4.545
REMARK  Name = 
REMARK  2 active torsions:
REMARK  status: ('A' for Active; 'I' for Inactive)
REMARK    1  A    between atoms: C_1  and  C_2
REMARK    2  A    between atoms: C_5  and  C_7
REMARK                            x       y       z     vdW  Elec       q    Type
REMARK                         _______ _______ _______ _____ _____    ______ ____
ROOT
ATOM      1  C   UNL     1       0.466   3.203  18.932  0.00  0.00    +0.000 C 
ATOM      2  C   UNL     1       1.728   3.774  18.292  0.00  0.00    +0.000 C 
ATOM      3  C   UNL     1       2.347   4.865  19.167  0.00  0.00    +0.000 C 
ATOM      4  N   UNL     1       3.602   5.341  18.573  0.00  0.00    +0.000 N 
ATOM      5  C   UNL     1       3.880   6.644  18.120  0.00  0.00    +0.000 C 
ATOM      6  O   UNL     1       4.989   6.922  17.681  0.00  0.00    +0.000 OA
ATOM      7  C   UNL     1       4.608   4.297  18.369  0.00  0.00    +0.000 C 
ATOM      8  C   UNL     1       4.053   3.213  17.459  0.00  0.00    +0.000 C 
ATOM      9  C   UNL     1       2.758   2.679  18.039  0.00  0.00    +0.000 C 
ATOM     10  F   UNL     1       3.032   2.025  19.198  0.00  0.00    +0.000 F 
ATOM     11  F   UNL     1       2.242   1.752  17.191  0.00  0.00    +0.000 F 
ENDROOT
BRANCH   5  12
ATOM     12  C   UNL     1       2.841   7.657  18.211  0.00  0.00    +0.000 A 
ATOM     13  O   UNL     1       2.535   8.424  17.120  0.00  0.00    +0.000 OA
ATOM     14  N   UNL     1       1.495   9.293  17.422  0.00  0.00    +0.000 NA
ATOM     15  C   UNL     1       1.231   9.079  18.709  0.00  0.00    +0.000 A 
ATOM     16  C   UNL     1       2.060   8.074  19.262  0.00  0.00    +0.000 A 
ATOM     17  C   UNL     1       1.996   7.648  20.682  0.00  0.00    +0.000 C 
ATOM     18  C   UNL     1       0.733   8.197  21.379  0.00  0.00    +0.000 C 
ATOM     19  C   UNL     1       0.430   9.655  20.984  0.00  0.00    +0.000 C 
ATOM     20  C   UNL     1       0.172   9.788  19.471  0.00  0.00    +0.000 C 
ENDBRANCH   5  12
TORSDOF 1
ENDMDL
MODEL 9
REMARK VINA RESULT:      -6.6      3.459      5.909
REMARK  Name = 
REMARK  2 active torsions:
REMARK  status: ('A' for Active; 'I' for Inactive)
REMARK    1  A    between atoms: C_1  and  C_2
REMARK    2  A    between atoms: C_5  and  C_7
REMARK                            x       y       z     vdW  Elec       q    Type
REMARK                         _______ _______ _______ _____ _____    ______ ____
ROOT
ATOM      1  C   UNL     1       4.534   4.231  14.373  0.00  0.00    +0.000 C 
ATOM      2  C   UNL     1       5.381   4.808  15.503  0.00  0.00    +0.000 C 
ATOM      3  C   UNL     1       5.231   3.985  16.783  0.00  0.00    +0.000 C 
ATOM      4  N   UNL     1       6.117   4.509  17.831  0.00  0.00    +0.000 N 
ATOM      5  C   UNL     1       5.729   5.052  19.069  0.00  0.00    +0.000 C 
ATOM      6  O   UNL     1       6.576   5.416  19.876  0.00  0.00    +0.000 OA
ATOM      7  C   UNL     1       7.535   4.527  17.468  0.00  0.00    +0.000 C 
ATOM      8  C   UNL     1       7.741   5.380  16.226  0.00  0.00    +0.000 C 
ATOM      9  C   UNL     1       6.853   4.869  15.108  0.00  0.00    +0.000 C 
ATOM     10  F   UNL     1       7.283   3.635  14.734  0.00  0.00    +0.000 F 
ATOM     11  F   UNL     1       7.002   5.671  14.022  0.00  0.00    +0.000 F 
ENDROOT
BRANCH   5  12
ATOM     12  C   UNL     1       4.312   5.145  19.385  0.00  0.00    +0.000 A 
ATOM     13  O   UNL     1       3.678   6.356  19.335  0.00  0.00    +0.000 OA
ATOM     14  N   UNL     1       2.331   6.204  19.635  0.00  0.00    +0.000 NA
ATOM     15  C   UNL     1       2.187   4.912  19.921  0.00  0.00    +0.000 A 
ATOM     16  C   UNL     1       3.405   4.200  19.799  0.00  0.00    +0.000 A 
ATOM     17  C   UNL     1       3.538   2.749  20.078  0.00  0.00    +0.000 C 
ATOM     18  C   UNL     1       2.158   2.070  20.206  0.00  0.00    +0.000 C 
ATOM     19  C   UNL     1       1.149   2.929  20.991  0.00  0.00    +0.000 C 
ATOM     20  C   UNL     1       0.896   4.281  20.295  0.00  0.00    +0.000 C 
ENDBRANCH   5  12
TORSDOF 1
ENDMDL
