MODEL 1
REMARK VINA RESULT:      -7.2      0.000      0.000
REMARK  Name = 
REMARK  6 active torsions:
REMARK  status: ('A' for Active; 'I' for Inactive)
REMARK    1  A    between atoms: C_1  and  O_2
REMARK    2  A    between atoms: O_2  and  C_3
REMARK    3  A    between atoms: C_6  and  O_7
REMARK    4  A    between atoms: O_7  and  C_8
REMARK    5  A    between atoms: C_9  and  C_10
REMARK    6  A    between atoms: C_12  and  C_13
REMARK                            x       y       z     vdW  Elec       q    Type
REMARK                         _______ _______ _______ _____ _____    ______ ____
ROOT
ATOM      1  C   UNL     1       4.710   3.837  17.930  0.00  0.00    +0.000 C 
ATOM      2  C   UNL     1       4.571   4.017  16.418  0.00  0.00    +0.000 C 
ATOM      3  C   UNL     1       6.017   4.201  16.037  0.00  0.00    +0.000 C 
ATOM      4  N   UNL     1       6.843   4.291  17.035  0.00  0.00    +0.000 NA
ATOM      5  N   UNL     1       6.087   4.292  18.152  0.00  0.00    +0.000 N 
ATOM      6  H   UNL     1       6.530   3.869  18.968  0.00  0.00    +0.000 HD
ENDROOT
BRANCH   1  11
ATOM      7  C   UNL     1       2.646   6.873  18.899  0.00  0.00    +0.000 A 
ATOM      8  C   UNL     1       2.033   6.467  20.074  0.00  0.00    +0.000 A 
ATOM      9  C   UNL     1       2.242   5.173  20.565  0.00  0.00    +0.000 A 
ATOM     10  C   UNL     1       3.069   4.252  19.898  0.00  0.00    +0.000 A 
ATOM     11  C   UNL     1       3.710   4.651  18.717  0.00  0.00    +0.000 A 
ATOM     12  C   UNL     1       3.464   5.966  18.234  0.00  0.00    +0.000 A 
BRANCH   7  14
ATOM     13  C   UNL     1       1.506   8.916  19.311  0.00  0.00    +0.000 C 
ATOM     14  O   UNL     1       2.412   8.162  18.509  0.00  0.00    +0.000 OA
ENDBRANCH   7  14
BRANCH  10  15
ATOM     15  O   UNL     1       3.234   3.090  20.600  0.00  0.00    +0.000 OA
ATOM     16  C   UNL     1       2.215   2.672  21.496  0.00  0.00    +0.000 C 
ENDBRANCH  10  15
ENDBRANCH   1  11
BRANCH   3  17
ATOM     17  C   UNL     1       6.442   4.292  14.625  0.00  0.00    +0.000 A 
ATOM     18  C   UNL     1       7.452   5.169  14.230  0.00  0.00    +0.000 A 
ATOM     19  C   UNL     1       7.811   5.172  12.894  0.00  0.00    +0.000 A 
ATOM     20  N   UNL     1       7.248   4.380  11.959  0.00  0.00    +0.000 NA
ATOM     21  C   UNL     1       6.274   3.535  12.377  0.00  0.00    +0.000 A 
ATOM     22  C   UNL     1       5.844   3.457  13.685  0.00  0.00    +0.000 A 
ENDBRANCH   3  17
TORSDOF 4
ENDMDL
MODEL 2
REMARK VINA RESULT:      -7.1      1.158      3.209
REMARK  Name = 
REMARK  6 active torsions:
REMARK  status: ('A' for Active; 'I' for Inactive)
REMARK    1  A    between atoms: C_1  and  O_2
REMARK    2  A    between atoms: O_2  and  C_3
REMARK    3  A    between atoms: C_6  and  O_7
REMARK    4  A    between atoms: O_7  and  C_8
REMARK    5  A    between atoms: C_9  and  C_10
REMARK    6  A    between atoms: C_12  and  C_13
REMARK                            x       y       z     vdW  Elec       q    Type
REMARK                         _______ _______ _______ _____ _____    ______ ____
ROOT
ATOM      1  C   UNL     1       5.612   5.397  17.980  0.00  0.00    +0.000 C 
ATOM      2  C   UNL     1       5.600   4.418  16.805  0.00  0.00    +0.000 C 
ATOM      3  C   UNL     1       6.124   5.309  15.709  0.00  0.00    +0.000 C 
ATOM      4  N   UNL     1       6.269   6.557  16.035  0.00  0.00    +0.000 NA
ATOM      5  N   UNL     1       5.783   6.680  17.288  0.00  0.00    +0.000 N 
ATOM      6  H   UNL     1       6.242   7.392  17.856  0.00  0.00    +0.000 HD
ENDROOT
BRANCH   1  11
ATOM      7  C   UNL     1       3.012   3.975  20.352  0.00  0.00    +0.000 A 
ATOM      8  C   UNL     1       1.996   4.917  20.295  0.00  0.00    +0.000 A 
ATOM      9  C   UNL     1       2.146   6.067  19.512  0.00  0.00    +0.000 A 
ATOM     10  C   UNL     1       3.312   6.307  18.764  0.00  0.00    +0.000 A 
ATOM     11  C   UNL     1       4.343   5.358  18.796  0.00  0.00    +0.000 A 
ATOM     12  C   UNL     1       4.168   4.208  19.615  0.00  0.00    +0.000 A 
BRANCH   7  14
ATOM     13  C   UNL     1       1.427   2.682  21.560  0.00  0.00    +0.000 C 
ATOM     14  O   UNL     1       2.768   2.868  21.116  0.00  0.00    +0.000 OA
ENDBRANCH   7  14
BRANCH  10  15
ATOM     15  O   UNL     1       3.211   7.422  17.979  0.00  0.00    +0.000 OA
ATOM     16  C   UNL     1       2.167   8.351  18.225  0.00  0.00    +0.000 C 
ENDBRANCH  10  15
ENDBRANCH   1  11
BRANCH   3  17
ATOM     17  C   UNL     1       6.423   4.786  14.360  0.00  0.00    +0.000 A 
ATOM     18  C   UNL     1       5.622   3.810  13.769  0.00  0.00    +0.000 A 
ATOM     19  C   UNL     1       5.953   3.396  12.492  0.00  0.00    +0.000 A 
ATOM     20  N   UNL     1       6.997   3.879  11.789  0.00  0.00    +0.000 NA
ATOM     21  C   UNL     1       7.753   4.832  12.389  0.00  0.00    +0.000 A 
ATOM     22  C   UNL     1       7.506   5.311  13.658  0.00  0.00    +0.000 A 
ENDBRANCH   3  17
TORSDOF 4
ENDMDL
MODEL 3
REMARK VINA RESULT:      -7.1      0.397      1.103
REMARK  Name = 
REMARK  6 active torsions:
REMARK  status: ('A' for Active; 'I' for Inactive)
REMARK    1  A    between atoms: C_1  and  O_2
REMARK    2  A    between atoms: O_2  and  C_3
REMARK    3  A    between atoms: C_6  and  O_7
REMARK    4  A    between atoms: O_7  and  C_8
REMARK    5  A    between atoms: C_9  and  C_10
REMARK    6  A    between atoms: C_12  and  C_13
REMARK                            x       y       z     vdW  Elec       q    Type
REMARK                         _______ _______ _______ _____ _____    ______ ____
ROOT
ATOM      1  C   UNL     1       4.737   3.952  17.853  0.00  0.00    +0.000 C 
ATOM      2  C   UNL     1       4.601   4.067  16.334  0.00  0.00    +0.000 C 
ATOM      3  C   UNL     1       6.049   4.221  15.947  0.00  0.00    +0.000 C 
ATOM      4  N   UNL     1       6.875   4.347  16.940  0.00  0.00    +0.000 NA
ATOM      5  N   UNL     1       6.119   4.404  18.056  0.00  0.00    +0.000 N 
ATOM      6  H   UNL     1       6.557   4.012  18.889  0.00  0.00    +0.000 HD
ENDROOT
BRANCH   1  11
ATOM      7  C   UNL     1       2.816   7.090  18.788  0.00  0.00    +0.000 A 
ATOM      8  C   UNL     1       2.106   6.693  19.910  0.00  0.00    +0.000 A 
ATOM      9  C   UNL     1       2.200   5.375  20.373  0.00  0.00    +0.000 A 
ATOM     10  C   UNL     1       3.007   4.420  19.729  0.00  0.00    +0.000 A 
ATOM     11  C   UNL     1       3.745   4.808  18.602  0.00  0.00    +0.000 A 
ATOM     12  C   UNL     1       3.614   6.149  18.146  0.00  0.00    +0.000 A 
BRANCH   7  14
ATOM     13  C   UNL     1       1.476   8.769  17.775  0.00  0.00    +0.000 C 
ATOM     14  O   UNL     1       2.689   8.402  18.425  0.00  0.00    +0.000 OA
ENDBRANCH   7  14
BRANCH  10  15
ATOM     15  O   UNL     1       3.052   3.232  20.403  0.00  0.00    +0.000 OA
ATOM     16  C   UNL     1       2.232   3.052  21.547  0.00  0.00    +0.000 C 
ENDBRANCH  10  15
ENDBRANCH   1  11
BRANCH   3  17
ATOM     17  C   UNL     1       6.476   4.247  14.533  0.00  0.00    +0.000 A 
ATOM     18  C   UNL     1       5.877   3.423  13.581  0.00  0.00    +0.000 A 
ATOM     19  C   UNL     1       6.314   3.530  12.274  0.00  0.00    +0.000 A 
ATOM     20  N   UNL     1       7.278   4.381  11.868  0.00  0.00    +0.000 NA
ATOM     21  C   UNL     1       7.836   5.173  12.816  0.00  0.00    +0.000 A 
ATOM     22  C   UNL     1       7.471   5.142  14.145  0.00  0.00    +0.000 A 
ENDBRANCH   3  17
TORSDOF 4
ENDMDL
MODEL 4
REMARK VINA RESULT:      -7.1      1.090      3.008
REMARK  Name = 
REMARK  6 active torsions:
REMARK  status: ('A' for Active; 'I' for Inactive)
REMARK    1  A    between atoms: C_1  and  O_2
REMARK    2  A    between atoms: O_2  and  C_3
REMARK    3  A    between atoms: C_6  and  O_7
REMARK    4  A    between atoms: O_7  and  C_8
REMARK    5  A    between atoms: C_9  and  C_10
REMARK    6  A    between atoms: C_12  and  C_13
REMARK                            x       y       z     vdW  Elec       q    Type
REMARK                         _______ _______ _______ _____ _____    ______ ____
ROOT
ATOM      1  C   UNL     1       5.663   4.968  17.994  0.00  0.00    +0.000 C 
ATOM      2  C   UNL     1       5.573   4.189  16.681  0.00  0.00    +0.000 C 
ATOM      3  C   UNL     1       6.282   5.142  15.756  0.00  0.00    +0.000 C 
ATOM      4  N   UNL     1       6.591   6.290  16.277  0.00  0.00    +0.000 NA
ATOM      5  N   UNL     1       6.059   6.298  17.517  0.00  0.00    +0.000 N 
ATOM      6  H   UNL     1       6.585   6.838  18.204  0.00  0.00    +0.000 HD
ENDROOT
BRANCH   1  11
ATOM      7  C   UNL     1       2.852   3.679  20.196  0.00  0.00    +0.000 A 
ATOM      8  C   UNL     1       1.917   4.700  20.130  0.00  0.00    +0.000 A 
ATOM      9  C   UNL     1       2.192   5.861  19.397  0.00  0.00    +0.000 A 
ATOM     10  C   UNL     1       3.408   6.031  18.711  0.00  0.00    +0.000 A 
ATOM     11  C   UNL     1       4.359   5.003  18.752  0.00  0.00    +0.000 A 
ATOM     12  C   UNL     1       4.056   3.844  19.520  0.00  0.00    +0.000 A 
BRANCH   7  14
ATOM     13  C   UNL     1       1.410   2.729  21.828  0.00  0.00    +0.000 C 
ATOM     14  O   UNL     1       2.487   2.570  20.908  0.00  0.00    +0.000 OA
ENDBRANCH   7  14
BRANCH  10  15
ATOM     15  O   UNL     1       3.431   7.177  17.964  0.00  0.00    +0.000 OA
ATOM     16  C   UNL     1       2.455   8.180  18.202  0.00  0.00    +0.000 C 
ENDBRANCH  10  15
ENDBRANCH   1  11
BRANCH   3  17
ATOM     17  C   UNL     1       6.577   4.787  14.352  0.00  0.00    +0.000 A 
ATOM     18  C   UNL     1       7.590   5.430  13.641  0.00  0.00    +0.000 A 
ATOM     19  C   UNL     1       7.821   5.017  12.342  0.00  0.00    +0.000 A 
ATOM     20  N   UNL     1       7.131   4.035  11.727  0.00  0.00    +0.000 NA
ATOM     21  C   UNL     1       6.157   3.426  12.448  0.00  0.00    +0.000 A 
ATOM     22  C   UNL     1       5.849   3.764  13.748  0.00  0.00    +0.000 A 
ENDBRANCH   3  17
TORSDOF 4
ENDMDL
MODEL 5
REMARK VINA RESULT:      -7.1      1.198      1.289
REMARK  Name = 
REMARK  6 active torsions:
REMARK  status: ('A' for Active; 'I' for Inactive)
REMARK    1  A    between atoms: C_1  and  O_2
REMARK    2  A    between atoms: O_2  and  C_3
REMARK    3  A    between atoms: C_6  and  O_7
REMARK    4  A    between atoms: O_7  and  C_8
REMARK    5  A    between atoms: C_9  and  C_10
REMARK    6  A    between atoms: C_12  and  C_13
REMARK                            x       y       z     vdW  Elec       q    Type
REMARK                         _______ _______ _______ _____ _____    ______ ____
ROOT
ATOM      1  C   UNL     1       5.499   4.918  18.077  0.00  0.00    +0.000 C 
ATOM      2  C   UNL     1       5.387   4.162  16.752  0.00  0.00    +0.000 C 
ATOM      3  C   UNL     1       6.161   5.089  15.851  0.00  0.00    +0.000 C 
ATOM      4  N   UNL     1       6.523   6.211  16.392  0.00  0.00    +0.000 NA
ATOM      5  N   UNL     1       5.973   6.231  17.624  0.00  0.00    +0.000 N 
ATOM      6  H   UNL     1       6.516   6.733  18.326  0.00  0.00    +0.000 HD
ENDROOT
BRANCH   1  11
ATOM      7  C   UNL     1       2.468   6.586  19.640  0.00  0.00    +0.000 A 
ATOM      8  C   UNL     1       1.837   5.534  20.287  0.00  0.00    +0.000 A 
ATOM      9  C   UNL     1       2.361   4.239  20.199  0.00  0.00    +0.000 A 
ATOM     10  C   UNL     1       3.527   3.960  19.464  0.00  0.00    +0.000 A 
ATOM     11  C   UNL     1       4.187   5.013  18.817  0.00  0.00    +0.000 A 
ATOM     12  C   UNL     1       3.621   6.315  18.911  0.00  0.00    +0.000 A 
BRANCH   7  14
ATOM     13  C   UNL     1       1.325   8.091  21.079  0.00  0.00    +0.000 C 
ATOM     14  O   UNL     1       1.907   7.821  19.806  0.00  0.00    +0.000 OA
ENDBRANCH   7  14
BRANCH  10  15
ATOM     15  O   UNL     1       3.934   2.661  19.600  0.00  0.00    +0.000 OA
ATOM     16  C   UNL     1       3.442   1.682  18.698  0.00  0.00    +0.000 C 
ENDBRANCH  10  15
ENDBRANCH   1  11
BRANCH   3  17
ATOM     17  C   UNL     1       6.457   4.736  14.447  0.00  0.00    +0.000 A 
ATOM     18  C   UNL     1       7.529   5.315  13.767  0.00  0.00    +0.000 A 
ATOM     19  C   UNL     1       7.756   4.908  12.465  0.00  0.00    +0.000 A 
ATOM     20  N   UNL     1       7.009   3.990  11.819  0.00  0.00    +0.000 NA
ATOM     21  C   UNL     1       5.979   3.443  12.510  0.00  0.00    +0.000 A 
ATOM     22  C   UNL     1       5.669   3.780  13.810  0.00  0.00    +0.000 A 
ENDBRANCH   3  17
TORSDOF 4
ENDMDL
MODEL 6
REMARK VINA RESULT:      -7.0      1.046      3.018
REMARK  Name = 
REMARK  6 active torsions:
REMARK  status: ('A' for Active; 'I' for Inactive)
REMARK    1  A    between atoms: C_1  and  O_2
REMARK    2  A    between atoms: O_2  and  C_3
REMARK    3  A    between atoms: C_6  and  O_7
REMARK    4  A    between atoms: O_7  and  C_8
REMARK    5  A    between atoms: C_9  and  C_10
REMARK    6  A    between atoms: C_12  and  C_13
REMARK                            x       y       z     vdW  Elec       q    Type
REMARK                         _______ _______ _______ _____ _____    ______ ____
ROOT
ATOM      1  C   UNL     1       5.024   3.751  18.018  0.00  0.00    +0.000 C 
ATOM      2  C   UNL     1       4.798   3.860  16.510  0.00  0.00    +0.000 C 
ATOM      3  C   UNL     1       6.204   4.143  16.049  0.00  0.00    +0.000 C 
ATOM      4  N   UNL     1       7.067   4.336  16.999  0.00  0.00    +0.000 NA
ATOM      5  N   UNL     1       6.369   4.321  18.153  0.00  0.00    +0.000 N 
ATOM      6  H   UNL     1       6.884   3.965  18.959  0.00  0.00    +0.000 HD
ENDROOT
BRANCH   1  11
ATOM      7  C   UNL     1       2.019   4.266  20.280  0.00  0.00    +0.000 A 
ATOM      8  C   UNL     1       1.869   5.645  20.284  0.00  0.00    +0.000 A 
ATOM      9  C   UNL     1       2.771   6.452  19.581  0.00  0.00    +0.000 A 
ATOM     10  C   UNL     1       3.844   5.905  18.855  0.00  0.00    +0.000 A 
ATOM     11  C   UNL     1       4.001   4.512  18.826  0.00  0.00    +0.000 A 
ATOM     12  C   UNL     1       3.079   3.720  19.564  0.00  0.00    +0.000 A 
BRANCH   7  14
ATOM     13  C   UNL     1       1.542   2.436  21.718  0.00  0.00    +0.000 C 
ATOM     14  O   UNL     1       1.075   3.554  20.967  0.00  0.00    +0.000 OA
ENDBRANCH   7  14
BRANCH  10  15
ATOM     15  O   UNL     1       4.534   6.850  18.147  0.00  0.00    +0.000 OA
ATOM     16  C   UNL     1       4.005   7.315  16.914  0.00  0.00    +0.000 C 
ENDBRANCH  10  15
ENDBRANCH   1  11
BRANCH   3  17
ATOM     17  C   UNL     1       6.551   4.213  14.615  0.00  0.00    +0.000 A 
ATOM     18  C   UNL     1       5.911   3.405  13.675  0.00  0.00    +0.000 A 
ATOM     19  C   UNL     1       6.274   3.554  12.349  0.00  0.00    +0.000 A 
ATOM     20  N   UNL     1       7.202   4.429  11.914  0.00  0.00    +0.000 NA
ATOM     21  C   UNL     1       7.802   5.203  12.851  0.00  0.00    +0.000 A 
ATOM     22  C   UNL     1       7.512   5.131  14.197  0.00  0.00    +0.000 A 
ENDBRANCH   3  17
TORSDOF 4
ENDMDL
MODEL 7
REMARK VINA RESULT:      -6.9      1.044      1.520
REMARK  Name = 
REMARK  6 active torsions:
REMARK  status: ('A' for Active; 'I' for Inactive)
REMARK    1  A    between atoms: C_1  and  O_2
REMARK    2  A    between atoms: O_2  and  C_3
REMARK    3  A    between atoms: C_6  and  O_7
REMARK    4  A    between atoms: O_7  and  C_8
REMARK    5  A    between atoms: C_9  and  C_10
REMARK    6  A    between atoms: C_12  and  C_13
REMARK                            x       y       z     vdW  Elec       q    Type
REMARK                         _______ _______ _______ _____ _____    ______ ____
ROOT
ATOM      1  C   UNL     1       5.445   4.405  18.146  0.00  0.00    +0.000 C 
ATOM      2  C   UNL     1       5.249   3.883  16.722  0.00  0.00    +0.000 C 
ATOM      3  C   UNL     1       6.244   4.739  15.984  0.00  0.00    +0.000 C 
ATOM      4  N   UNL     1       6.802   5.672  16.693  0.00  0.00    +0.000 NA
ATOM      5  N   UNL     1       6.204   5.636  17.902  0.00  0.00    +0.000 N 
ATOM      6  H   UNL     1       6.802   5.908  18.683  0.00  0.00    +0.000 HD
ENDROOT
BRANCH   1  11
ATOM      7  C   UNL     1       2.589   6.455  19.579  0.00  0.00    +0.000 A 
ATOM      8  C   UNL     1       1.849   5.510  20.272  0.00  0.00    +0.000 A 
ATOM      9  C   UNL     1       2.236   4.164  20.258  0.00  0.00    +0.000 A 
ATOM     10  C   UNL     1       3.373   3.729  19.554  0.00  0.00    +0.000 A 
ATOM     11  C   UNL     1       4.143   4.673  18.862  0.00  0.00    +0.000 A 
ATOM     12  C   UNL     1       3.714   6.029  18.880  0.00  0.00    +0.000 A 
BRANCH   7  14
ATOM     13  C   UNL     1       1.408   8.088  20.837  0.00  0.00    +0.000 C 
ATOM     14  O   UNL     1       2.157   7.749  19.673  0.00  0.00    +0.000 OA
ENDBRANCH   7  14
BRANCH  10  15
ATOM     15  O   UNL     1       3.643   2.405  19.764  0.00  0.00    +0.000 OA
ATOM     16  C   UNL     1       3.408   1.475  18.717  0.00  0.00    +0.000 C 
ENDBRANCH  10  15
ENDBRANCH   1  11
BRANCH   3  17
ATOM     17  C   UNL     1       6.535   4.531  14.550  0.00  0.00    +0.000 A 
ATOM     18  C   UNL     1       5.818   3.605  13.794  0.00  0.00    +0.000 A 
ATOM     19  C   UNL     1       6.132   3.493  12.452  0.00  0.00    +0.000 A 
ATOM     20  N   UNL     1       7.083   4.223  11.836  0.00  0.00    +0.000 NA
ATOM     21  C   UNL     1       7.758   5.118  12.597  0.00  0.00    +0.000 A 
ATOM     22  C   UNL     1       7.521   5.305  13.943  0.00  0.00    +0.000 A 
ENDBRANCH   3  17
TORSDOF 4
ENDMDL
MODEL 8
REMARK VINA RESULT:      -6.9      3.670      7.615
REMARK  Name = 
REMARK  6 active torsions:
REMARK  status: ('A' for Active; 'I' for Inactive)
REMARK    1  A    between atoms: C_1  and  O_2
REMARK    2  A    between atoms: O_2  and  C_3
REMARK    3  A    between atoms: C_6  and  O_7
REMARK    4  A    between atoms: O_7  and  C_8
REMARK    5  A    between atoms: C_9  and  C_10
REMARK    6  A    between atoms: C_12  and  C_13
REMARK                            x       y       z     vdW  Elec       q    Type
REMARK                         _______ _______ _______ _____ _____    ______ ____
ROOT
ATOM      1  C   UNL     1       2.565   6.807  18.219  0.00  0.00    +0.000 C 
ATOM      2  C   UNL     1       2.177   7.106  19.668  0.00  0.00    +0.000 C 
ATOM      3  C   UNL     1       1.680   8.521  19.525  0.00  0.00    +0.000 C 
ATOM      4  N   UNL     1       1.856   9.051  18.354  0.00  0.00    +0.000 NA
ATOM      5  N   UNL     1       2.556   8.152  17.632  0.00  0.00    +0.000 N 
ATOM      6  H   UNL     1       2.358   8.159  16.632  0.00  0.00    +0.000 HD
ENDROOT
BRANCH   1  11
ATOM      7  C   UNL     1       6.240   6.472  17.328  0.00  0.00    +0.000 A 
ATOM      8  C   UNL     1       6.497   5.133  17.580  0.00  0.00    +0.000 A 
ATOM      9  C   UNL     1       5.488   4.306  18.087  0.00  0.00    +0.000 A 
ATOM     10  C   UNL     1       4.196   4.794  18.356  0.00  0.00    +0.000 A 
ATOM     11  C   UNL     1       3.914   6.141  18.093  0.00  0.00    +0.000 A 
ATOM     12  C   UNL     1       4.965   6.960  17.594  0.00  0.00    +0.000 A 
BRANCH   7  14
ATOM     13  C   UNL     1       7.834   8.205  17.642  0.00  0.00    +0.000 C 
ATOM     14  O   UNL     1       7.273   7.198  16.804  0.00  0.00    +0.000 OA
ENDBRANCH   7  14
BRANCH  10  15
ATOM     15  O   UNL     1       3.330   3.805  18.733  0.00  0.00    +0.000 OA
ATOM     16  C   UNL     1       2.613   3.094  17.735  0.00  0.00    +0.000 C 
ENDBRANCH  10  15
ENDBRANCH   1  11
BRANCH   3  17
ATOM     17  C   UNL     1       1.059   9.243  20.654  0.00  0.00    +0.000 A 
ATOM     18  C   UNL     1       0.969   8.665  21.920  0.00  0.00    +0.000 A 
ATOM     19  C   UNL     1       0.401   9.420  22.930  0.00  0.00    +0.000 A 
ATOM     20  N   UNL     1      -0.066  10.674  22.764  0.00  0.00    +0.000 NA
ATOM     21  C   UNL     1       0.041  11.209  21.523  0.00  0.00    +0.000 A 
ATOM     22  C   UNL     1       0.591  10.539  20.450  0.00  0.00    +0.000 A 
ENDBRANCH   3  17
TORSDOF 4
ENDMDL
MODEL 9
REMARK VINA RESULT:      -6.9      3.838      7.475
REMARK  Name = 
REMARK  6 active torsions:
REMARK  status: ('A' for Active; 'I' for Inactive)
REMARK    1  A    between atoms: C_1  and  O_2
REMARK    2  A    between atoms: O_2  and  C_3
REMARK    3  A    between atoms: C_6  and  O_7
REMARK    4  A    between atoms: O_7  and  C_8
REMARK    5  A    between atoms: C_9  and  C_10
REMARK    6  A    between atoms: C_12  and  C_13
REMARK                            x       y       z     vdW  Elec       q    Type
REMARK                         _______ _______ _______ _____ _____    ______ ____
ROOT
ATOM      1  C   UNL     1       3.051   7.439  18.663  0.00  0.00    +0.000 C 
ATOM      2  C   UNL     1       2.240   8.438  17.836  0.00  0.00    +0.000 C 
ATOM      3  C   UNL     1       1.376   9.038  18.914  0.00  0.00    +0.000 C 
ATOM      4  N   UNL     1       1.472   8.471  20.077  0.00  0.00    +0.000 NA
ATOM      5  N   UNL     1       2.283   7.405  19.913  0.00  0.00    +0.000 N 
ATOM      6  H   UNL     1       2.844   7.165  20.730  0.00  0.00    +0.000 HD
ENDROOT
BRANCH   1  11
ATOM      7  C   UNL     1       2.052   3.869  17.845  0.00  0.00    +0.000 A 
ATOM      8  C   UNL     1       3.129   3.410  17.103  0.00  0.00    +0.000 A 
ATOM      9  C   UNL     1       4.198   4.266  16.812  0.00  0.00    +0.000 A 
ATOM     10  C   UNL     1       4.220   5.600  17.254  0.00  0.00    +0.000 A 
ATOM     11  C   UNL     1       3.147   6.077  18.019  0.00  0.00    +0.000 A 
ATOM     12  C   UNL     1       2.067   5.189  18.283  0.00  0.00    +0.000 A 
BRANCH   7  14
ATOM     13  C   UNL     1       0.724   2.768  19.479  0.00  0.00    +0.000 C 
ATOM     14  O   UNL     1       1.067   2.958  18.109  0.00  0.00    +0.000 OA
ENDBRANCH   7  14
BRANCH  10  15
ATOM     15  O   UNL     1       5.400   6.229  16.966  0.00  0.00    +0.000 OA
ATOM     16  C   UNL     1       6.472   6.148  17.893  0.00  0.00    +0.000 C 
ENDBRANCH  10  15
ENDBRANCH   1  11
BRANCH   3  17
ATOM     17  C   UNL     1       0.474  10.176  18.641  0.00  0.00    +0.000 A 
ATOM     18  C   UNL     1      -0.778   9.983  18.059  0.00  0.00    +0.000 A 
ATOM     19  C   UNL     1      -1.574  11.097  17.866  0.00  0.00    +0.000 A 
ATOM     20  N   UNL     1      -1.213  12.351  18.206  0.00  0.00    +0.000 NA
ATOM     21  C   UNL     1       0.008  12.504  18.775  0.00  0.00    +0.000 A 
ATOM     22  C   UNL     1       0.875  11.458  19.010  0.00  0.00    +0.000 A 
ENDBRANCH   3  17
TORSDOF 4
ENDMDL
