MODEL 1
REMARK VINA RESULT:      -7.8      0.000      0.000
REMARK  Name = 
REMARK  8 active torsions:
REMARK  status: ('A' for Active; 'I' for Inactive)
REMARK    1  A    between atoms: C_1  and  O_2
REMARK    2  A    between atoms: O_2  and  C_3
REMARK    3  A    between atoms: C_3  and  C_4
REMARK    4  A    between atoms: C_8  and  C_10
REMARK    5  A    between atoms: C_12  and  C_13
REMARK    6  A    between atoms: C_13  and  O_14
REMARK    7  A    between atoms: O_14  and  C_15
REMARK    8  A    between atoms: C_18  and  N_19
REMARK                            x       y       z     vdW  Elec       q    Type
REMARK                         _______ _______ _______ _____ _____    ______ ____
ROOT
ATOM      1  C   UNL     1       6.818   5.829  17.515  0.00  0.00    +0.000 A 
ATOM      2  C   UNL     1       6.735   7.183  17.084  0.00  0.00    +0.000 A 
ATOM      3  C   UNL     1       7.679   7.846  17.829  0.00  0.00    +0.000 A 
ATOM      4  O   UNL     1       8.288   6.962  18.659  0.00  0.00    +0.000 OA
ATOM      5  N   UNL     1       7.774   5.707  18.451  0.00  0.00    +0.000 NA
ENDROOT
BRANCH   1  10
ATOM      6  C   UNL     1       2.962   4.309  19.098  0.00  0.00    +0.000 C 
ATOM      7  C   UNL     1       2.711   3.518  17.814  0.00  0.00    +0.000 C 
ATOM      8  C   UNL     1       4.107   3.153  17.330  0.00  0.00    +0.000 C 
ATOM      9  N   UNL     1       4.917   4.284  17.730  0.00  0.00    +0.000 N 
ATOM     10  C   UNL     1       6.040   4.685  17.010  0.00  0.00    +0.000 C 
ATOM     11  O   UNL     1       6.364   4.123  15.963  0.00  0.00    +0.000 OA
ATOM     12  C   UNL     1       4.300   5.007  18.838  0.00  0.00    +0.000 C 
BRANCH   6  13
ATOM     13  C   UNL     1       3.030   3.422  20.341  0.00  0.00    +0.000 C 
BRANCH  13  15
ATOM     14  C   UNL     1       1.245   2.764  21.739  0.00  0.00    +0.000 C 
ATOM     15  O   UNL     1       2.018   3.851  21.253  0.00  0.00    +0.000 OA
ENDBRANCH  13  15
ENDBRANCH   6  13
ENDBRANCH   1  10
BRANCH   3  16
ATOM     16  C   UNL     1       8.180   9.235  17.903  0.00  0.00    +0.000 C 
BRANCH  16  17
ATOM     17  O   UNL     1       8.963   9.325  19.091  0.00  0.00    +0.000 OA
BRANCH  17  18
ATOM     18  C   UNL     1       9.457  10.567  19.383  0.00  0.00    +0.000 A 
ATOM     19  C   UNL     1       9.805  11.334  18.271  0.00  0.00    +0.000 A 
ATOM     20  C   UNL     1      10.320  12.623  18.423  0.00  0.00    +0.000 A 
ATOM     21  C   UNL     1      10.480  13.163  19.704  0.00  0.00    +0.000 A 
ATOM     22  C   UNL     1      10.111  12.402  20.822  0.00  0.00    +0.000 A 
ATOM     23  C   UNL     1       9.596  11.109  20.660  0.00  0.00    +0.000 A 
BRANCH  21  24
ATOM     24  N   UNL     1      11.011  14.466  19.886  0.00  0.00    +0.000 N 
ATOM     25  C   UNL     1      10.888  15.302  20.970  0.00  0.00    +0.000 A 
ATOM     26  N   UNL     1      11.494  16.446  20.744  0.00  0.00    +0.000 NA
ATOM     27  C   UNL     1      11.995  16.272  19.491  0.00  0.00    +0.000 A 
ATOM     28  N   UNL     1      11.746  15.088  18.930  0.00  0.00    +0.000 NA
ENDBRANCH  21  24
ENDBRANCH  17  18
ENDBRANCH  16  17
ENDBRANCH   3  16
TORSDOF 7
ENDMDL
MODEL 2
REMARK VINA RESULT:      -7.8      0.810      1.237
REMARK  Name = 
REMARK  8 active torsions:
REMARK  status: ('A' for Active; 'I' for Inactive)
REMARK    1  A    between atoms: C_1  and  O_2
REMARK    2  A    between atoms: O_2  and  C_3
REMARK    3  A    between atoms: C_3  and  C_4
REMARK    4  A    between atoms: C_8  and  C_10
REMARK    5  A    between atoms: C_12  and  C_13
REMARK    6  A    between atoms: C_13  and  O_14
REMARK    7  A    between atoms: O_14  and  C_15
REMARK    8  A    between atoms: C_18  and  N_19
REMARK                            x       y       z     vdW  Elec       q    Type
REMARK                         _______ _______ _______ _____ _____    ______ ____
ROOT
ATOM      1  C   UNL     1       6.238   5.572  17.587  0.00  0.00    +0.000 A 
ATOM      2  C   UNL     1       6.243   6.935  17.178  0.00  0.00    +0.000 A 
ATOM      3  C   UNL     1       7.454   7.425  17.604  0.00  0.00    +0.000 A 
ATOM      4  O   UNL     1       8.134   6.434  18.233  0.00  0.00    +0.000 OA
ATOM      5  N   UNL     1       7.395   5.278  18.205  0.00  0.00    +0.000 NA
ENDROOT
BRANCH   1  10
ATOM      6  C   UNL     1       2.274   5.356  19.568  0.00  0.00    +0.000 C 
ATOM      7  C   UNL     1       1.747   4.419  18.479  0.00  0.00    +0.000 C 
ATOM      8  C   UNL     1       2.979   3.644  18.036  0.00  0.00    +0.000 C 
ATOM      9  N   UNL     1       4.057   4.601  18.172  0.00  0.00    +0.000 N 
ATOM     10  C   UNL     1       5.180   4.575  17.350  0.00  0.00    +0.000 C 
ATOM     11  O   UNL     1       5.283   3.764  16.430  0.00  0.00    +0.000 OA
ATOM     12  C   UNL     1       3.712   5.648  19.129  0.00  0.00    +0.000 C 
BRANCH   6  13
ATOM     13  C   UNL     1       2.235   4.731  20.962  0.00  0.00    +0.000 C 
BRANCH  13  15
ATOM     14  C   UNL     1       1.876   2.496  21.636  0.00  0.00    +0.000 C 
ATOM     15  O   UNL     1       1.353   3.608  20.924  0.00  0.00    +0.000 OA
ENDBRANCH  13  15
ENDBRANCH   6  13
ENDBRANCH   1  10
BRANCH   3  16
ATOM     16  C   UNL     1       8.162   8.718  17.507  0.00  0.00    +0.000 C 
BRANCH  16  17
ATOM     17  O   UNL     1       8.577   9.059  18.827  0.00  0.00    +0.000 OA
BRANCH  17  18
ATOM     18  C   UNL     1       9.164  10.286  18.967  0.00  0.00    +0.000 A 
ATOM     19  C   UNL     1       9.660  10.554  20.244  0.00  0.00    +0.000 A 
ATOM     20  C   UNL     1      10.287  11.769  20.528  0.00  0.00    +0.000 A 
ATOM     21  C   UNL     1      10.435  12.729  19.520  0.00  0.00    +0.000 A 
ATOM     22  C   UNL     1       9.956  12.453  18.231  0.00  0.00    +0.000 A 
ATOM     23  C   UNL     1       9.327  11.231  17.956  0.00  0.00    +0.000 A 
BRANCH  21  24
ATOM     24  N   UNL     1      11.059  13.975  19.785  0.00  0.00    +0.000 N 
ATOM     25  C   UNL     1      10.765  14.895  20.764  0.00  0.00    +0.000 A 
ATOM     26  N   UNL     1      11.546  15.946  20.661  0.00  0.00    +0.000 NA
ATOM     27  C   UNL     1      12.329  15.629  19.594  0.00  0.00    +0.000 A 
ATOM     28  N   UNL     1      12.088  14.444  19.035  0.00  0.00    +0.000 NA
ENDBRANCH  21  24
ENDBRANCH  17  18
ENDBRANCH  16  17
ENDBRANCH   3  16
TORSDOF 7
ENDMDL
MODEL 3
REMARK VINA RESULT:      -7.5      7.572     10.531
REMARK  Name = 
REMARK  8 active torsions:
REMARK  status: ('A' for Active; 'I' for Inactive)
REMARK    1  A    between atoms: C_1  and  O_2
REMARK    2  A    between atoms: O_2  and  C_3
REMARK    3  A    between atoms: C_3  and  C_4
REMARK    4  A    between atoms: C_8  and  C_10
REMARK    5  A    between atoms: C_12  and  C_13
REMARK    6  A    between atoms: C_13  and  O_14
REMARK    7  A    between atoms: O_14  and  C_15
REMARK    8  A    between atoms: C_18  and  N_19
REMARK                            x       y       z     vdW  Elec       q    Type
REMARK                         _______ _______ _______ _____ _____    ______ ____
ROOT
ATOM      1  C   UNL     1       2.600   7.192  18.765  0.00  0.00    +0.000 A 
ATOM      2  C   UNL     1       2.035   8.271  18.027  0.00  0.00    +0.000 A 
ATOM      3  C   UNL     1       1.348   9.011  18.958  0.00  0.00    +0.000 A 
ATOM      4  O   UNL     1       1.479   8.423  20.174  0.00  0.00    +0.000 OA
ATOM      5  N   UNL     1       2.273   7.309  20.064  0.00  0.00    +0.000 NA
ENDROOT
BRANCH   1  10
ATOM      6  C   UNL     1       1.512   2.928  18.202  0.00  0.00    +0.000 C 
ATOM      7  C   UNL     1       2.719   2.709  17.289  0.00  0.00    +0.000 C 
ATOM      8  C   UNL     1       3.760   3.686  17.817  0.00  0.00    +0.000 C 
ATOM      9  N   UNL     1       2.974   4.813  18.274  0.00  0.00    +0.000 N 
ATOM     10  C   UNL     1       3.463   6.116  18.250  0.00  0.00    +0.000 C 
ATOM     11  O   UNL     1       4.574   6.376  17.785  0.00  0.00    +0.000 OA
ATOM     12  C   UNL     1       1.603   4.411  18.573  0.00  0.00    +0.000 C 
BRANCH   6  13
ATOM     13  C   UNL     1       1.537   2.042  19.447  0.00  0.00    +0.000 C 
BRANCH  13  15
ATOM     14  C   UNL     1       2.151   2.718  21.625  0.00  0.00    +0.000 C 
ATOM     15  O   UNL     1       1.200   2.848  20.577  0.00  0.00    +0.000 OA
ENDBRANCH  13  15
ENDBRANCH   6  13
ENDBRANCH   1  10
BRANCH   3  16
ATOM     16  C   UNL     1       0.563  10.263  18.939  0.00  0.00    +0.000 C 
BRANCH  16  17
ATOM     17  O   UNL     1      -0.234  10.228  17.758  0.00  0.00    +0.000 OA
BRANCH  17  18
ATOM     18  C   UNL     1      -1.555  10.542  17.924  0.00  0.00    +0.000 A 
ATOM     19  C   UNL     1      -1.802  11.565  18.841  0.00  0.00    +0.000 A 
ATOM     20  C   UNL     1      -3.106  11.989  19.107  0.00  0.00    +0.000 A 
ATOM     21  C   UNL     1      -4.182  11.394  18.438  0.00  0.00    +0.000 A 
ATOM     22  C   UNL     1      -3.934  10.381  17.501  0.00  0.00    +0.000 A 
ATOM     23  C   UNL     1      -2.623   9.961  17.241  0.00  0.00    +0.000 A 
BRANCH  21  24
ATOM     24  N   UNL     1      -5.517  11.799  18.698  0.00  0.00    +0.000 N 
ATOM     25  C   UNL     1      -6.549  11.980  17.809  0.00  0.00    +0.000 A 
ATOM     26  N   UNL     1      -7.629  12.398  18.431  0.00  0.00    +0.000 NA
ATOM     27  C   UNL     1      -7.217  12.455  19.727  0.00  0.00    +0.000 A 
ATOM     28  N   UNL     1      -5.954  12.091  19.948  0.00  0.00    +0.000 NA
ENDBRANCH  21  24
ENDBRANCH  17  18
ENDBRANCH  16  17
ENDBRANCH   3  16
TORSDOF 7
ENDMDL
MODEL 4
REMARK VINA RESULT:      -7.4      1.226      1.592
REMARK  Name = 
REMARK  8 active torsions:
REMARK  status: ('A' for Active; 'I' for Inactive)
REMARK    1  A    between atoms: C_1  and  O_2
REMARK    2  A    between atoms: O_2  and  C_3
REMARK    3  A    between atoms: C_3  and  C_4
REMARK    4  A    between atoms: C_8  and  C_10
REMARK    5  A    between atoms: C_12  and  C_13
REMARK    6  A    between atoms: C_13  and  O_14
REMARK    7  A    between atoms: O_14  and  C_15
REMARK    8  A    between atoms: C_18  and  N_19
REMARK                            x       y       z     vdW  Elec       q    Type
REMARK                         _______ _______ _______ _____ _____    ______ ____
ROOT
ATOM      1  C   UNL     1       6.382   5.617  16.972  0.00  0.00    +0.000 A 
ATOM      2  C   UNL     1       7.355   5.887  17.976  0.00  0.00    +0.000 A 
ATOM      3  C   UNL     1       7.621   7.230  17.853  0.00  0.00    +0.000 A 
ATOM      4  O   UNL     1       6.871   7.738  16.843  0.00  0.00    +0.000 OA
ATOM      5  N   UNL     1       6.085   6.748  16.310  0.00  0.00    +0.000 NA
ENDROOT
BRANCH   1  10
ATOM      6  C   UNL     1       2.790   3.951  18.974  0.00  0.00    +0.000 C 
ATOM      7  C   UNL     1       2.589   2.942  17.841  0.00  0.00    +0.000 C 
ATOM      8  C   UNL     1       4.001   2.662  17.346  0.00  0.00    +0.000 C 
ATOM      9  N   UNL     1       4.686   3.925  17.524  0.00  0.00    +0.000 N 
ATOM     10  C   UNL     1       5.727   4.328  16.692  0.00  0.00    +0.000 C 
ATOM     11  O   UNL     1       6.079   3.646  15.729  0.00  0.00    +0.000 OA
ATOM     12  C   UNL     1       4.027   4.742  18.539  0.00  0.00    +0.000 C 
BRANCH   6  13
ATOM     13  C   UNL     1       3.006   3.286  20.333  0.00  0.00    +0.000 C 
BRANCH  13  15
ATOM     14  C   UNL     1       1.090   4.641  20.591  0.00  0.00    +0.000 C 
ATOM     15  O   UNL     1       2.030   3.798  21.241  0.00  0.00    +0.000 OA
ENDBRANCH  13  15
ENDBRANCH   6  13
ENDBRANCH   1  10
BRANCH   3  16
ATOM     16  C   UNL     1       8.477   8.204  18.562  0.00  0.00    +0.000 C 
BRANCH  16  17
ATOM     17  O   UNL     1       8.539   9.368  17.741  0.00  0.00    +0.000 OA
BRANCH  17  18
ATOM     18  C   UNL     1       8.895  10.525  18.377  0.00  0.00    +0.000 A 
ATOM     19  C   UNL     1       9.403  10.351  19.665  0.00  0.00    +0.000 A 
ATOM     20  C   UNL     1       9.809  11.448  20.429  0.00  0.00    +0.000 A 
ATOM     21  C   UNL     1       9.718  12.739  19.897  0.00  0.00    +0.000 A 
ATOM     22  C   UNL     1       9.227  12.914  18.595  0.00  0.00    +0.000 A 
ATOM     23  C   UNL     1       8.822  11.808  17.836  0.00  0.00    +0.000 A 
BRANCH  21  24
ATOM     24  N   UNL     1      10.114  13.871  20.656  0.00  0.00    +0.000 N 
ATOM     25  C   UNL     1       9.720  14.239  21.920  0.00  0.00    +0.000 A 
ATOM     26  N   UNL     1      10.281  15.376  22.267  0.00  0.00    +0.000 NA
ATOM     27  C   UNL     1      11.033  15.679  21.174  0.00  0.00    +0.000 A 
ATOM     28  N   UNL     1      10.981  14.797  20.176  0.00  0.00    +0.000 NA
ENDBRANCH  21  24
ENDBRANCH  17  18
ENDBRANCH  16  17
ENDBRANCH   3  16
TORSDOF 7
ENDMDL
MODEL 5
REMARK VINA RESULT:      -7.4      1.251      1.281
REMARK  Name = 
REMARK  8 active torsions:
REMARK  status: ('A' for Active; 'I' for Inactive)
REMARK    1  A    between atoms: C_1  and  O_2
REMARK    2  A    between atoms: O_2  and  C_3
REMARK    3  A    between atoms: C_3  and  C_4
REMARK    4  A    between atoms: C_8  and  C_10
REMARK    5  A    between atoms: C_12  and  C_13
REMARK    6  A    between atoms: C_13  and  O_14
REMARK    7  A    between atoms: O_14  and  C_15
REMARK    8  A    between atoms: C_18  and  N_19
REMARK                            x       y       z     vdW  Elec       q    Type
REMARK                         _______ _______ _______ _____ _____    ______ ____
ROOT
ATOM      1  C   UNL     1       6.456   5.921  17.162  0.00  0.00    +0.000 A 
ATOM      2  C   UNL     1       7.348   6.194  18.238  0.00  0.00    +0.000 A 
ATOM      3  C   UNL     1       7.783   7.478  18.015  0.00  0.00    +0.000 A 
ATOM      4  O   UNL     1       7.204   7.950  16.882  0.00  0.00    +0.000 OA
ATOM      5  N   UNL     1       6.363   6.998  16.363  0.00  0.00    +0.000 NA
ENDROOT
BRANCH   1  10
ATOM      6  C   UNL     1       2.394   4.993  18.686  0.00  0.00    +0.000 C 
ATOM      7  C   UNL     1       2.242   3.855  17.675  0.00  0.00    +0.000 C 
ATOM      8  C   UNL     1       3.663   3.345  17.481  0.00  0.00    +0.000 C 
ATOM      9  N   UNL     1       4.477   4.535  17.614  0.00  0.00    +0.000 N 
ATOM     10  C   UNL     1       5.684   4.687  16.938  0.00  0.00    +0.000 C 
ATOM     11  O   UNL     1       6.089   3.833  16.148  0.00  0.00    +0.000 OA
ATOM     12  C   UNL     1       3.782   5.565  18.381  0.00  0.00    +0.000 C 
BRANCH   6  13
ATOM     13  C   UNL     1       2.295   4.520  20.136  0.00  0.00    +0.000 C 
BRANCH  13  15
ATOM     14  C   UNL     1       1.293   2.715  21.282  0.00  0.00    +0.000 C 
ATOM     15  O   UNL     1       2.021   3.118  20.131  0.00  0.00    +0.000 OA
ENDBRANCH  13  15
ENDBRANCH   6  13
ENDBRANCH   1  10
BRANCH   3  16
ATOM     16  C   UNL     1       8.672   8.427  18.716  0.00  0.00    +0.000 C 
BRANCH  16  17
ATOM     17  O   UNL     1       8.750   9.595  17.902  0.00  0.00    +0.000 OA
BRANCH  17  18
ATOM     18  C   UNL     1       9.069  10.754  18.554  0.00  0.00    +0.000 A 
ATOM     19  C   UNL     1       8.811  11.920  17.833  0.00  0.00    +0.000 A 
ATOM     20  C   UNL     1       9.087  13.176  18.380  0.00  0.00    +0.000 A 
ATOM     21  C   UNL     1       9.616  13.272  19.671  0.00  0.00    +0.000 A 
ATOM     22  C   UNL     1       9.857  12.102  20.405  0.00  0.00    +0.000 A 
ATOM     23  C   UNL     1       9.578  10.846  19.849  0.00  0.00    +0.000 A 
BRANCH  21  24
ATOM     24  N   UNL     1       9.915  14.535  20.245  0.00  0.00    +0.000 N 
ATOM     25  C   UNL     1      10.394  14.817  21.503  0.00  0.00    +0.000 A 
ATOM     26  N   UNL     1      10.508  16.115  21.674  0.00  0.00    +0.000 NA
ATOM     27  C   UNL     1      10.090  16.608  20.477  0.00  0.00    +0.000 A 
ATOM     28  N   UNL     1       9.733  15.698  19.571  0.00  0.00    +0.000 NA
ENDBRANCH  21  24
ENDBRANCH  17  18
ENDBRANCH  16  17
ENDBRANCH   3  16
TORSDOF 7
ENDMDL
MODEL 6
REMARK VINA RESULT:      -7.3      7.531      9.332
REMARK  Name = 
REMARK  8 active torsions:
REMARK  status: ('A' for Active; 'I' for Inactive)
REMARK    1  A    between atoms: C_1  and  O_2
REMARK    2  A    between atoms: O_2  and  C_3
REMARK    3  A    between atoms: C_3  and  C_4
REMARK    4  A    between atoms: C_8  and  C_10
REMARK    5  A    between atoms: C_12  and  C_13
REMARK    6  A    between atoms: C_13  and  O_14
REMARK    7  A    between atoms: O_14  and  C_15
REMARK    8  A    between atoms: C_18  and  N_19
REMARK                            x       y       z     vdW  Elec       q    Type
REMARK                         _______ _______ _______ _____ _____    ______ ____
ROOT
ATOM      1  C   UNL     1       3.000   7.333  18.154  0.00  0.00    +0.000 A 
ATOM      2  C   UNL     1       2.243   7.856  19.240  0.00  0.00    +0.000 A 
ATOM      3  C   UNL     1       1.669   9.003  18.746  0.00  0.00    +0.000 A 
ATOM      4  O   UNL     1       2.054   9.169  17.456  0.00  0.00    +0.000 OA
ATOM      5  N   UNL     1       2.860   8.125  17.077  0.00  0.00    +0.000 NA
ENDROOT
BRANCH   1  10
ATOM      6  C   UNL     1       1.450   3.177  18.039  0.00  0.00    +0.000 C 
ATOM      7  C   UNL     1       2.819   2.646  17.608  0.00  0.00    +0.000 C 
ATOM      8  C   UNL     1       3.805   3.606  18.258  0.00  0.00    +0.000 C 
ATOM      9  N   UNL     1       3.113   4.878  18.235  0.00  0.00    +0.000 N 
ATOM     10  C   UNL     1       3.791   6.090  18.138  0.00  0.00    +0.000 C 
ATOM     11  O   UNL     1       5.015   6.132  18.010  0.00  0.00    +0.000 OA
ATOM     12  C   UNL     1       1.667   4.689  18.151  0.00  0.00    +0.000 C 
BRANCH   6  13
ATOM     13  C   UNL     1       0.970   2.585  19.363  0.00  0.00    +0.000 C 
BRANCH  13  15
ATOM     14  C   UNL     1       1.730   3.215  21.508  0.00  0.00    +0.000 C 
ATOM     15  O   UNL     1       1.007   3.614  20.353  0.00  0.00    +0.000 OA
ENDBRANCH  13  15
ENDBRANCH   6  13
ENDBRANCH   1  10
BRANCH   3  16
ATOM     16  C   UNL     1       0.744  10.029  19.270  0.00  0.00    +0.000 C 
BRANCH  16  17
ATOM     17  O   UNL     1       0.603   9.778  20.666  0.00  0.00    +0.000 OA
BRANCH  17  18
ATOM     18  C   UNL     1      -0.336  10.534  21.313  0.00  0.00    +0.000 A 
ATOM     19  C   UNL     1      -1.033  11.425  20.496  0.00  0.00    +0.000 A 
ATOM     20  C   UNL     1      -2.023  12.256  21.025  0.00  0.00    +0.000 A 
ATOM     21  C   UNL     1      -2.333  12.192  22.388  0.00  0.00    +0.000 A 
ATOM     22  C   UNL     1      -1.648  11.282  23.206  0.00  0.00    +0.000 A 
ATOM     23  C   UNL     1      -0.656  10.452  22.668  0.00  0.00    +0.000 A 
BRANCH  21  24
ATOM     24  N   UNL     1      -3.327  13.033  22.951  0.00  0.00    +0.000 N 
ATOM     25  C   UNL     1      -3.271  14.384  23.199  0.00  0.00    +0.000 A 
ATOM     26  N   UNL     1      -4.383  14.797  23.765  0.00  0.00    +0.000 NA
ATOM     27  C   UNL     1      -5.116  13.654  23.845  0.00  0.00    +0.000 A 
ATOM     28  N   UNL     1      -4.532  12.560  23.355  0.00  0.00    +0.000 NA
ENDBRANCH  21  24
ENDBRANCH  17  18
ENDBRANCH  16  17
ENDBRANCH   3  16
TORSDOF 7
ENDMDL
MODEL 7
REMARK VINA RESULT:      -7.3      7.566     10.357
REMARK  Name = 
REMARK  8 active torsions:
REMARK  status: ('A' for Active; 'I' for Inactive)
REMARK    1  A    between atoms: C_1  and  O_2
REMARK    2  A    between atoms: O_2  and  C_3
REMARK    3  A    between atoms: C_3  and  C_4
REMARK    4  A    between atoms: C_8  and  C_10
REMARK    5  A    between atoms: C_12  and  C_13
REMARK    6  A    between atoms: C_13  and  O_14
REMARK    7  A    between atoms: O_14  and  C_15
REMARK    8  A    between atoms: C_18  and  N_19
REMARK                            x       y       z     vdW  Elec       q    Type
REMARK                         _______ _______ _______ _____ _____    ______ ____
ROOT
ATOM      1  C   UNL     1       2.725   7.250  18.357  0.00  0.00    +0.000 A 
ATOM      2  C   UNL     1       2.223   8.364  17.628  0.00  0.00    +0.000 A 
ATOM      3  C   UNL     1       1.534   9.107  18.556  0.00  0.00    +0.000 A 
ATOM      4  O   UNL     1       1.605   8.487  19.760  0.00  0.00    +0.000 OA
ATOM      5  N   UNL     1       2.362   7.347  19.647  0.00  0.00    +0.000 NA
ENDROOT
BRANCH   1  10
ATOM      6  C   UNL     1       1.680   2.942  18.157  0.00  0.00    +0.000 C 
ATOM      7  C   UNL     1       2.814   2.682  17.164  0.00  0.00    +0.000 C 
ATOM      8  C   UNL     1       3.875   3.706  17.542  0.00  0.00    +0.000 C 
ATOM      9  N   UNL     1       3.106   4.849  17.989  0.00  0.00    +0.000 N 
ATOM     10  C   UNL     1       3.565   6.155  17.842  0.00  0.00    +0.000 C 
ATOM     11  O   UNL     1       4.629   6.400  17.272  0.00  0.00    +0.000 OA
ATOM     12  C   UNL     1       1.772   4.448  18.424  0.00  0.00    +0.000 C 
BRANCH   6  13
ATOM     13  C   UNL     1       1.824   2.139  19.449  0.00  0.00    +0.000 C 
BRANCH  13  15
ATOM     14  C   UNL     1       1.312   2.803  21.657  0.00  0.00    +0.000 C 
ATOM     15  O   UNL     1       2.115   3.049  20.511  0.00  0.00    +0.000 OA
ENDBRANCH  13  15
ENDBRANCH   6  13
ENDBRANCH   1  10
BRANCH   3  16
ATOM     16  C   UNL     1       0.795  10.387  18.544  0.00  0.00    +0.000 C 
BRANCH  16  17
ATOM     17  O   UNL     1      -0.226  10.280  19.534  0.00  0.00    +0.000 OA
BRANCH  17  18
ATOM     18  C   UNL     1      -1.476  10.674  19.143  0.00  0.00    +0.000 A 
ATOM     19  C   UNL     1      -2.005  11.743  19.867  0.00  0.00    +0.000 A 
ATOM     20  C   UNL     1      -3.273  12.250  19.573  0.00  0.00    +0.000 A 
ATOM     21  C   UNL     1      -4.022  11.691  18.531  0.00  0.00    +0.000 A 
ATOM     22  C   UNL     1      -3.483  10.631  17.788  0.00  0.00    +0.000 A 
ATOM     23  C   UNL     1      -2.211  10.128  18.091  0.00  0.00    +0.000 A 
BRANCH  21  24
ATOM     24  N   UNL     1      -5.316  12.181  18.218  0.00  0.00    +0.000 N 
ATOM     25  C   UNL     1      -6.394  12.359  19.053  0.00  0.00    +0.000 A 
ATOM     26  N   UNL     1      -7.433  12.800  18.380  0.00  0.00    +0.000 NA
ATOM     27  C   UNL     1      -6.946  12.891  17.113  0.00  0.00    +0.000 A 
ATOM     28  N   UNL     1      -5.669  12.543  16.959  0.00  0.00    +0.000 NA
ENDBRANCH  21  24
ENDBRANCH  17  18
ENDBRANCH  16  17
ENDBRANCH   3  16
TORSDOF 7
ENDMDL
MODEL 8
REMARK VINA RESULT:      -7.2      6.532      9.563
REMARK  Name = 
REMARK  8 active torsions:
REMARK  status: ('A' for Active; 'I' for Inactive)
REMARK    1  A    between atoms: C_1  and  O_2
REMARK    2  A    between atoms: O_2  and  C_3
REMARK    3  A    between atoms: C_3  and  C_4
REMARK    4  A    between atoms: C_8  and  C_10
REMARK    5  A    between atoms: C_12  and  C_13
REMARK    6  A    between atoms: C_13  and  O_14
REMARK    7  A    between atoms: O_14  and  C_15
REMARK    8  A    between atoms: C_18  and  N_19
REMARK                            x       y       z     vdW  Elec       q    Type
REMARK                         _______ _______ _______ _____ _____    ______ ____
ROOT
ATOM      1  C   UNL     1       1.576   9.455  18.518  0.00  0.00    +0.000 A 
ATOM      2  C   UNL     1       1.782   8.542  19.591  0.00  0.00    +0.000 A 
ATOM      3  C   UNL     1       2.144   7.364  18.983  0.00  0.00    +0.000 A 
ATOM      4  O   UNL     1       2.150   7.545  17.638  0.00  0.00    +0.000 OA
ATOM      5  N   UNL     1       1.822   8.845  17.346  0.00  0.00    +0.000 NA
ENDROOT
BRANCH   1  10
ATOM      6  C   UNL     1      -2.525  11.138  18.706  0.00  0.00    +0.000 C 
ATOM      7  C   UNL     1      -1.986  12.474  19.222  0.00  0.00    +0.000 C 
ATOM      8  C   UNL     1      -0.607  12.582  18.588  0.00  0.00    +0.000 C 
ATOM      9  N   UNL     1      -0.146  11.210  18.531  0.00  0.00    +0.000 N 
ATOM     10  C   UNL     1       1.203  10.877  18.618  0.00  0.00    +0.000 C 
ATOM     11  O   UNL     1       2.065  11.736  18.804  0.00  0.00    +0.000 OA
ATOM     12  C   UNL     1      -1.269  10.277  18.551  0.00  0.00    +0.000 C 
BRANCH   6  13
ATOM     13  C   UNL     1      -3.276  11.270  17.382  0.00  0.00    +0.000 C 
BRANCH  13  15
ATOM     14  C   UNL     1      -2.957  10.527  15.163  0.00  0.00    +0.000 C 
ATOM     15  O   UNL     1      -2.892  10.182  16.540  0.00  0.00    +0.000 OA
ENDBRANCH  13  15
ENDBRANCH   6  13
ENDBRANCH   1  10
BRANCH   3  16
ATOM     16  C   UNL     1       2.540   6.018  19.445  0.00  0.00    +0.000 C 
BRANCH  16  17
ATOM     17  O   UNL     1       3.963   5.966  19.382  0.00  0.00    +0.000 OA
BRANCH  17  18
ATOM     18  C   UNL     1       4.491   5.593  18.176  0.00  0.00    +0.000 A 
ATOM     19  C   UNL     1       5.444   6.471  17.659  0.00  0.00    +0.000 A 
ATOM     20  C   UNL     1       6.067   6.213  16.436  0.00  0.00    +0.000 A 
ATOM     21  C   UNL     1       5.744   5.054  15.720  0.00  0.00    +0.000 A 
ATOM     22  C   UNL     1       4.801   4.160  16.248  0.00  0.00    +0.000 A 
ATOM     23  C   UNL     1       4.181   4.428  17.476  0.00  0.00    +0.000 A 
BRANCH  21  24
ATOM     24  N   UNL     1       6.354   4.774  14.471  0.00  0.00    +0.000 N 
ATOM     25  C   UNL     1       5.982   3.856  13.517  0.00  0.00    +0.000 A 
ATOM     26  N   UNL     1       6.824   3.869  12.508  0.00  0.00    +0.000 NA
ATOM     27  C   UNL     1       7.713   4.830  12.878  0.00  0.00    +0.000 A 
ATOM     28  N   UNL     1       7.470   5.421  14.049  0.00  0.00    +0.000 NA
ENDBRANCH  21  24
ENDBRANCH  17  18
ENDBRANCH  16  17
ENDBRANCH   3  16
TORSDOF 7
ENDMDL
MODEL 9
REMARK VINA RESULT:      -7.2      6.495      8.736
REMARK  Name = 
REMARK  8 active torsions:
REMARK  status: ('A' for Active; 'I' for Inactive)
REMARK    1  A    between atoms: C_1  and  O_2
REMARK    2  A    between atoms: O_2  and  C_3
REMARK    3  A    between atoms: C_3  and  C_4
REMARK    4  A    between atoms: C_8  and  C_10
REMARK    5  A    between atoms: C_12  and  C_13
REMARK    6  A    between atoms: C_13  and  O_14
REMARK    7  A    between atoms: O_14  and  C_15
REMARK    8  A    between atoms: C_18  and  N_19
REMARK                            x       y       z     vdW  Elec       q    Type
REMARK                         _______ _______ _______ _____ _____    ______ ____
ROOT
ATOM      1  C   UNL     1       2.999   5.038  18.989  0.00  0.00    +0.000 A 
ATOM      2  C   UNL     1       2.495   6.353  19.194  0.00  0.00    +0.000 A 
ATOM      3  C   UNL     1       1.916   6.316  20.439  0.00  0.00    +0.000 A 
ATOM      4  O   UNL     1       2.051   5.068  20.952  0.00  0.00    +0.000 OA
ATOM      5  N   UNL     1       2.742   4.278  20.067  0.00  0.00    +0.000 NA
ENDROOT
BRANCH   1  10
ATOM      6  C   UNL     1       7.282   5.723  18.056  0.00  0.00    +0.000 C 
ATOM      7  C   UNL     1       7.276   4.576  17.044  0.00  0.00    +0.000 C 
ATOM      8  C   UNL     1       5.853   4.571  16.504  0.00  0.00    +0.000 C 
ATOM      9  N   UNL     1       5.053   4.979  17.639  0.00  0.00    +0.000 N 
ATOM     10  C   UNL     1       3.743   4.542  17.819  0.00  0.00    +0.000 C 
ATOM     11  O   UNL     1       3.222   3.740  17.042  0.00  0.00    +0.000 OA
ATOM     12  C   UNL     1       5.852   5.729  18.603  0.00  0.00    +0.000 C 
BRANCH   6  13
ATOM     13  C   UNL     1       7.642   7.070  17.429  0.00  0.00    +0.000 C 
BRANCH  13  15
ATOM     14  C   UNL     1       8.294   9.242  18.085  0.00  0.00    +0.000 C 
ATOM     15  O   UNL     1       8.301   7.861  18.418  0.00  0.00    +0.000 OA
ENDBRANCH  13  15
ENDBRANCH   6  13
ENDBRANCH   1  10
BRANCH   3  16
ATOM     16  C   UNL     1       1.240   7.294  21.317  0.00  0.00    +0.000 C 
BRANCH  16  17
ATOM     17  O   UNL     1       1.049   8.476  20.543  0.00  0.00    +0.000 OA
BRANCH  17  18
ATOM     18  C   UNL     1       0.477   9.530  21.201  0.00  0.00    +0.000 A 
ATOM     19  C   UNL     1       0.738  10.781  20.639  0.00  0.00    +0.000 A 
ATOM     20  C   UNL     1       0.213  11.944  21.207  0.00  0.00    +0.000 A 
ATOM     21  C   UNL     1      -0.596  11.861  22.345  0.00  0.00    +0.000 A 
ATOM     22  C   UNL     1      -0.876  10.603  22.899  0.00  0.00    +0.000 A 
ATOM     23  C   UNL     1      -0.345   9.441  22.323  0.00  0.00    +0.000 A 
BRANCH  21  24
ATOM     24  N   UNL     1      -1.132  13.028  22.947  0.00  0.00    +0.000 N 
ATOM     25  C   UNL     1      -2.387  13.228  23.471  0.00  0.00    +0.000 A 
ATOM     26  N   UNL     1      -2.517  14.461  23.906  0.00  0.00    +0.000 NA
ATOM     27  C   UNL     1      -1.296  14.998  23.637  0.00  0.00    +0.000 A 
ATOM     28  N   UNL     1      -0.415  14.173  23.071  0.00  0.00    +0.000 NA
ENDBRANCH  21  24
ENDBRANCH  17  18
ENDBRANCH  16  17
ENDBRANCH   3  16
TORSDOF 7
ENDMDL
