MODEL 1
REMARK VINA RESULT:      -7.3      0.000      0.000
REMARK  Name = 
REMARK  11 active torsions:
REMARK  status: ('A' for Active; 'I' for Inactive)
REMARK    1  A    between atoms: C_1  and  C_2
REMARK    2  A    between atoms: C_2  and  C_3
REMARK    3  A    between atoms: C_3  and  C_4
REMARK    4  A    between atoms: C_4  and  C_5
REMARK    5  A    between atoms: C_5  and  C_6
REMARK    6  A    between atoms: C_6  and  S_7
REMARK    7  A    between atoms: S_7  and  C_8
REMARK    8  A    between atoms: C_11  and  C_12
REMARK    9  A    between atoms: N_15  and  C_16
REMARK   10  A    between atoms: C_22  and  N_23
REMARK   11  A    between atoms: N_28  and  C_29
REMARK                            x       y       z     vdW  Elec       q    Type
REMARK                         _______ _______ _______ _____ _____    ______ ____
ROOT
ATOM      1  C   UNL     1       0.773   9.501  20.992  0.00  0.00    +0.000 A 
ATOM      2  C   UNL     1       0.863   9.158  22.349  0.00  0.00    +0.000 A 
ATOM      3  N   UNL     1       0.290  10.054  23.151  0.00  0.00    +0.000 NA
ATOM      4  N   UNL     1      -0.286  10.958  22.302  0.00  0.00    +0.000 N 
ATOM      5  C   UNL     1       0.065  10.686  20.985  0.00  0.00    +0.000 A 
ENDROOT
BRANCH   1   9
ATOM      6  C   UNL     1       2.411   7.401  18.498  0.00  0.00    +0.000 A 
ATOM      7  N   UNL     1       2.162   8.480  17.796  0.00  0.00    +0.000 NA
ATOM      8  N   UNL     1       1.535   9.368  18.638  0.00  0.00    +0.000 NA
ATOM      9  C   UNL     1       1.423   8.819  19.836  0.00  0.00    +0.000 A 
ATOM     10  N   UNL     1       1.980   7.569  19.786  0.00  0.00    +0.000 N 
ATOM     11  C   UNL     1       1.959   6.549  20.803  0.00  0.00    +0.000 C 
BRANCH   6  12
ATOM     12  S   UNL     1       3.095   5.924  17.920  0.00  0.00    +0.000 S 
BRANCH  12  13
ATOM     13  C   UNL     1       1.651   4.819  17.925  0.00  0.00    +0.000 C 
BRANCH  13  14
ATOM     14  C   UNL     1       2.151   3.385  17.746  0.00  0.00    +0.000 C 
BRANCH  14  15
ATOM     15  C   UNL     1       1.516   2.430  18.759  0.00  0.00    +0.000 C 
BRANCH  15  16
ATOM     16  C   UNL     1       0.821   3.208  19.880  0.00  0.00    +0.000 C 
BRANCH  16  18
ATOM     17  C   UNL     1       2.731   2.886  21.489  0.00  0.00    +0.000 C 
ATOM     18  C   UNL     1       1.240   2.698  21.257  0.00  0.00    +0.000 C 
ENDBRANCH  16  18
ENDBRANCH  15  16
ENDBRANCH  14  15
ENDBRANCH  13  14
ENDBRANCH  12  13
ENDBRANCH   6  12
ENDBRANCH   1   9
BRANCH   4  19
ATOM     19  C   UNL     1      -1.197  11.910  22.849  0.00  0.00    +0.000 A 
ATOM     20  C   UNL     1      -0.829  13.261  22.916  0.00  0.00    +0.000 A 
ATOM     21  C   UNL     1      -1.751  14.213  23.364  0.00  0.00    +0.000 A 
ATOM     22  C   UNL     1      -3.036  13.825  23.744  0.00  0.00    +0.000 A 
ATOM     23  C   UNL     1      -3.390  12.481  23.723  0.00  0.00    +0.000 A 
ATOM     24  C   UNL     1      -2.462  11.524  23.317  0.00  0.00    +0.000 A 
ENDBRANCH   4  19
BRANCH   5  25
ATOM     25  N   UNL     1      -0.257  11.489  19.886  0.00  0.00    +0.000 N 
ATOM     26  C   UNL     1       0.450  12.581  19.414  0.00  0.00    +0.000 A 
ATOM     27  C   UNL     1      -0.232  13.154  18.366  0.00  0.00    +0.000 A 
ATOM     28  C   UNL     1      -1.376  12.366  18.137  0.00  0.00    +0.000 A 
ATOM     29  C   UNL     1      -1.374  11.365  19.081  0.00  0.00    +0.000 A 
ENDBRANCH   5  25
TORSDOF 9
ENDMDL
MODEL 2
REMARK VINA RESULT:      -7.1      3.775      6.556
REMARK  Name = 
REMARK  11 active torsions:
REMARK  status: ('A' for Active; 'I' for Inactive)
REMARK    1  A    between atoms: C_1  and  C_2
REMARK    2  A    between atoms: C_2  and  C_3
REMARK    3  A    between atoms: C_3  and  C_4
REMARK    4  A    between atoms: C_4  and  C_5
REMARK    5  A    between atoms: C_5  and  C_6
REMARK    6  A    between atoms: C_6  and  S_7
REMARK    7  A    between atoms: S_7  and  C_8
REMARK    8  A    between atoms: C_11  and  C_12
REMARK    9  A    between atoms: N_15  and  C_16
REMARK   10  A    between atoms: C_22  and  N_23
REMARK   11  A    between atoms: N_28  and  C_29
REMARK                            x       y       z     vdW  Elec       q    Type
REMARK                         _______ _______ _______ _____ _____    ______ ____
ROOT
ATOM      1  C   UNL     1       3.201   6.997  18.024  0.00  0.00    +0.000 A 
ATOM      2  C   UNL     1       3.068   8.330  17.609  0.00  0.00    +0.000 A 
ATOM      3  N   UNL     1       2.198   9.020  18.345  0.00  0.00    +0.000 NA
ATOM      4  N   UNL     1       1.824   8.156  19.337  0.00  0.00    +0.000 N 
ATOM      5  C   UNL     1       2.359   6.893  19.114  0.00  0.00    +0.000 A 
ENDROOT
BRANCH   1   9
ATOM      6  C   UNL     1       5.481   4.678  16.370  0.00  0.00    +0.000 A 
ATOM      7  N   UNL     1       4.420   3.923  16.524  0.00  0.00    +0.000 NA
ATOM      8  N   UNL     1       3.467   4.695  17.147  0.00  0.00    +0.000 NA
ATOM      9  C   UNL     1       3.961   5.905  17.351  0.00  0.00    +0.000 A 
ATOM     10  N   UNL     1       5.239   5.933  16.859  0.00  0.00    +0.000 N 
ATOM     11  C   UNL     1       6.214   6.985  16.987  0.00  0.00    +0.000 C 
BRANCH   6  12
ATOM     12  S   UNL     1       7.013   4.195  15.735  0.00  0.00    +0.000 S 
BRANCH  12  13
ATOM     13  C   UNL     1       6.898   4.765  14.012  0.00  0.00    +0.000 C 
BRANCH  13  14
ATOM     14  C   UNL     1       5.734   4.031  13.346  0.00  0.00    +0.000 C 
BRANCH  14  15
ATOM     15  C   UNL     1       6.217   2.863  12.483  0.00  0.00    +0.000 C 
BRANCH  15  16
ATOM     16  C   UNL     1       5.267   2.623  11.308  0.00  0.00    +0.000 C 
BRANCH  16  18
ATOM     17  C   UNL     1       3.250   3.612  10.168  0.00  0.00    +0.000 C 
ATOM     18  C   UNL     1       3.943   3.360  11.499  0.00  0.00    +0.000 C 
ENDBRANCH  16  18
ENDBRANCH  15  16
ENDBRANCH  14  15
ENDBRANCH  13  14
ENDBRANCH  12  13
ENDBRANCH   6  12
ENDBRANCH   1   9
BRANCH   4  19
ATOM     19  C   UNL     1       1.088   8.678  20.442  0.00  0.00    +0.000 A 
ATOM     20  C   UNL     1       1.557   8.469  21.747  0.00  0.00    +0.000 A 
ATOM     21  C   UNL     1       0.893   9.056  22.829  0.00  0.00    +0.000 A 
ATOM     22  C   UNL     1      -0.236   9.848  22.616  0.00  0.00    +0.000 A 
ATOM     23  C   UNL     1      -0.732  10.019  21.328  0.00  0.00    +0.000 A 
ATOM     24  C   UNL     1      -0.097   9.403  20.251  0.00  0.00    +0.000 A 
ENDBRANCH   4  19
BRANCH   5  25
ATOM     25  N   UNL     1       2.072   5.754  19.873  0.00  0.00    +0.000 N 
ATOM     26  C   UNL     1       0.922   4.986  19.824  0.00  0.00    +0.000 A 
ATOM     27  C   UNL     1       0.984   4.000  20.783  0.00  0.00    +0.000 A 
ATOM     28  C   UNL     1       2.235   4.120  21.417  0.00  0.00    +0.000 A 
ATOM     29  C   UNL     1       2.874   5.200  20.854  0.00  0.00    +0.000 A 
ENDBRANCH   5  25
TORSDOF 9
ENDMDL
MODEL 3
REMARK VINA RESULT:      -7.0      2.180      2.887
REMARK  Name = 
REMARK  11 active torsions:
REMARK  status: ('A' for Active; 'I' for Inactive)
REMARK    1  A    between atoms: C_1  and  C_2
REMARK    2  A    between atoms: C_2  and  C_3
REMARK    3  A    between atoms: C_3  and  C_4
REMARK    4  A    between atoms: C_4  and  C_5
REMARK    5  A    between atoms: C_5  and  C_6
REMARK    6  A    between atoms: C_6  and  S_7
REMARK    7  A    between atoms: S_7  and  C_8
REMARK    8  A    between atoms: C_11  and  C_12
REMARK    9  A    between atoms: N_15  and  C_16
REMARK   10  A    between atoms: C_22  and  N_23
REMARK   11  A    between atoms: N_28  and  C_29
REMARK                            x       y       z     vdW  Elec       q    Type
REMARK                         _______ _______ _______ _____ _____    ______ ____
ROOT
ATOM      1  C   UNL     1       0.661   9.675  21.133  0.00  0.00    +0.000 A 
ATOM      2  C   UNL     1       0.737   9.343  22.493  0.00  0.00    +0.000 A 
ATOM      3  N   UNL     1       0.146  10.240  23.281  0.00  0.00    +0.000 NA
ATOM      4  N   UNL     1      -0.426  11.133  22.418  0.00  0.00    +0.000 N 
ATOM      5  C   UNL     1      -0.056  10.854  21.108  0.00  0.00    +0.000 A 
ENDROOT
BRANCH   1   9
ATOM      6  C   UNL     1       2.298   7.554  18.656  0.00  0.00    +0.000 A 
ATOM      7  N   UNL     1       2.168   8.672  17.984  0.00  0.00    +0.000 NA
ATOM      8  N   UNL     1       1.553   9.573  18.823  0.00  0.00    +0.000 NA
ATOM      9  C   UNL     1       1.331   8.990  19.990  0.00  0.00    +0.000 A 
ATOM     10  N   UNL     1       1.802   7.706  19.922  0.00  0.00    +0.000 N 
ATOM     11  C   UNL     1       1.650   6.655  20.895  0.00  0.00    +0.000 C 
BRANCH   6  12
ATOM     12  S   UNL     1       2.912   6.053  18.060  0.00  0.00    +0.000 S 
BRANCH  12  13
ATOM     13  C   UNL     1       4.396   6.591  17.157  0.00  0.00    +0.000 C 
BRANCH  13  14
ATOM     14  C   UNL     1       5.056   5.352  16.550  0.00  0.00    +0.000 C 
BRANCH  14  15
ATOM     15  C   UNL     1       6.554   5.562  16.319  0.00  0.00    +0.000 C 
BRANCH  15  16
ATOM     16  C   UNL     1       7.380   4.739  17.311  0.00  0.00    +0.000 C 
BRANCH  16  18
ATOM     17  C   UNL     1       7.978   6.936  18.386  0.00  0.00    +0.000 C 
ATOM     18  C   UNL     1       7.583   5.487  18.626  0.00  0.00    +0.000 C 
ENDBRANCH  16  18
ENDBRANCH  15  16
ENDBRANCH  14  15
ENDBRANCH  13  14
ENDBRANCH  12  13
ENDBRANCH   6  12
ENDBRANCH   1   9
BRANCH   4  19
ATOM     19  C   UNL     1      -1.352  12.081  22.946  0.00  0.00    +0.000 A 
ATOM     20  C   UNL     1      -0.976  13.427  23.060  0.00  0.00    +0.000 A 
ATOM     21  C   UNL     1      -1.908  14.378  23.488  0.00  0.00    +0.000 A 
ATOM     22  C   UNL     1      -3.211  13.994  23.804  0.00  0.00    +0.000 A 
ATOM     23  C   UNL     1      -3.575  12.654  23.739  0.00  0.00    +0.000 A 
ATOM     24  C   UNL     1      -2.638  11.697  23.351  0.00  0.00    +0.000 A 
ENDBRANCH   4  19
BRANCH   5  25
ATOM     25  N   UNL     1      -0.371  11.647  19.999  0.00  0.00    +0.000 N 
ATOM     26  C   UNL     1      -1.405  11.453  19.100  0.00  0.00    +0.000 A 
ATOM     27  C   UNL     1      -1.332  12.397  18.102  0.00  0.00    +0.000 A 
ATOM     28  C   UNL     1      -0.251  13.243  18.412  0.00  0.00    +0.000 A 
ATOM     29  C   UNL     1       0.325  12.760  19.564  0.00  0.00    +0.000 A 
ENDBRANCH   5  25
TORSDOF 9
ENDMDL
MODEL 4
REMARK VINA RESULT:      -7.0      1.631      2.054
REMARK  Name = 
REMARK  11 active torsions:
REMARK  status: ('A' for Active; 'I' for Inactive)
REMARK    1  A    between atoms: C_1  and  C_2
REMARK    2  A    between atoms: C_2  and  C_3
REMARK    3  A    between atoms: C_3  and  C_4
REMARK    4  A    between atoms: C_4  and  C_5
REMARK    5  A    between atoms: C_5  and  C_6
REMARK    6  A    between atoms: C_6  and  S_7
REMARK    7  A    between atoms: S_7  and  C_8
REMARK    8  A    between atoms: C_11  and  C_12
REMARK    9  A    between atoms: N_15  and  C_16
REMARK   10  A    between atoms: C_22  and  N_23
REMARK   11  A    between atoms: N_28  and  C_29
REMARK                            x       y       z     vdW  Elec       q    Type
REMARK                         _______ _______ _______ _____ _____    ______ ____
ROOT
ATOM      1  C   UNL     1       0.242  10.370  20.064  0.00  0.00    +0.000 A 
ATOM      2  C   UNL     1       0.532  10.906  21.327  0.00  0.00    +0.000 A 
ATOM      3  N   UNL     1      -0.401  11.753  21.760  0.00  0.00    +0.000 NA
ATOM      4  N   UNL     1      -1.384  11.697  20.811  0.00  0.00    +0.000 N 
ATOM      5  C   UNL     1      -0.978  10.925  19.729  0.00  0.00    +0.000 A 
ENDROOT
BRANCH   1   9
ATOM      6  C   UNL     1       2.401   7.938  18.411  0.00  0.00    +0.000 A 
ATOM      7  N   UNL     1       2.224   8.812  17.450  0.00  0.00    +0.000 NA
ATOM      8  N   UNL     1       1.412   9.800  17.955  0.00  0.00    +0.000 NA
ATOM      9  C   UNL     1       1.120   9.516  19.213  0.00  0.00    +0.000 A 
ATOM     10  N   UNL     1       1.742   8.340  19.541  0.00  0.00    +0.000 N 
ATOM     11  C   UNL     1       1.596   7.568  20.747  0.00  0.00    +0.000 C 
BRANCH   6  12
ATOM     12  S   UNL     1       3.253   6.439  18.304  0.00  0.00    +0.000 S 
BRANCH  12  13
ATOM     13  C   UNL     1       1.920   5.284  17.859  0.00  0.00    +0.000 C 
BRANCH  13  14
ATOM     14  C   UNL     1       2.389   3.867  18.191  0.00  0.00    +0.000 C 
BRANCH  14  15
ATOM     15  C   UNL     1       1.320   3.077  18.948  0.00  0.00    +0.000 C 
BRANCH  15  16
ATOM     16  C   UNL     1       0.857   3.839  20.193  0.00  0.00    +0.000 C 
BRANCH  16  18
ATOM     17  C   UNL     1       2.490   2.545  21.608  0.00  0.00    +0.000 C 
ATOM     18  C   UNL     1       1.964   3.925  21.241  0.00  0.00    +0.000 C 
ENDBRANCH  16  18
ENDBRANCH  15  16
ENDBRANCH  14  15
ENDBRANCH  13  14
ENDBRANCH  12  13
ENDBRANCH   6  12
ENDBRANCH   1   9
BRANCH   4  19
ATOM     19  C   UNL     1      -2.641  12.301  21.108  0.00  0.00    +0.000 A 
ATOM     20  C   UNL     1      -3.496  12.671  20.060  0.00  0.00    +0.000 A 
ATOM     21  C   UNL     1      -4.769  13.178  20.343  0.00  0.00    +0.000 A 
ATOM     22  C   UNL     1      -5.192  13.318  21.665  0.00  0.00    +0.000 A 
ATOM     23  C   UNL     1      -4.330  12.997  22.708  0.00  0.00    +0.000 A 
ATOM     24  C   UNL     1      -3.047  12.530  22.431  0.00  0.00    +0.000 A 
ENDBRANCH   4  19
BRANCH   5  25
ATOM     25  N   UNL     1      -1.698  10.765  18.541  0.00  0.00    +0.000 N 
ATOM     26  C   UNL     1      -1.760  11.649  17.477  0.00  0.00    +0.000 A 
ATOM     27  C   UNL     1      -2.638  11.171  16.532  0.00  0.00    +0.000 A 
ATOM     28  C   UNL     1      -3.101   9.923  16.990  0.00  0.00    +0.000 A 
ATOM     29  C   UNL     1      -2.522   9.703  18.219  0.00  0.00    +0.000 A 
ENDBRANCH   5  25
TORSDOF 9
ENDMDL
MODEL 5
REMARK VINA RESULT:      -7.0      1.993      3.090
REMARK  Name = 
REMARK  11 active torsions:
REMARK  status: ('A' for Active; 'I' for Inactive)
REMARK    1  A    between atoms: C_1  and  C_2
REMARK    2  A    between atoms: C_2  and  C_3
REMARK    3  A    between atoms: C_3  and  C_4
REMARK    4  A    between atoms: C_4  and  C_5
REMARK    5  A    between atoms: C_5  and  C_6
REMARK    6  A    between atoms: C_6  and  S_7
REMARK    7  A    between atoms: S_7  and  C_8
REMARK    8  A    between atoms: C_11  and  C_12
REMARK    9  A    between atoms: N_15  and  C_16
REMARK   10  A    between atoms: C_22  and  N_23
REMARK   11  A    between atoms: N_28  and  C_29
REMARK                            x       y       z     vdW  Elec       q    Type
REMARK                         _______ _______ _______ _____ _____    ______ ____
ROOT
ATOM      1  C   UNL     1       0.840   9.473  20.980  0.00  0.00    +0.000 A 
ATOM      2  C   UNL     1       0.989   9.214  22.350  0.00  0.00    +0.000 A 
ATOM      3  N   UNL     1       0.411  10.134  23.120  0.00  0.00    +0.000 NA
ATOM      4  N   UNL     1      -0.228  10.965  22.242  0.00  0.00    +0.000 N 
ATOM      5  C   UNL     1       0.089  10.630  20.931  0.00  0.00    +0.000 A 
ENDROOT
BRANCH   1   9
ATOM      6  C   UNL     1       2.377   7.259  18.520  0.00  0.00    +0.000 A 
ATOM      7  N   UNL     1       2.287   8.374  17.835  0.00  0.00    +0.000 NA
ATOM      8  N   UNL     1       1.714   9.308  18.666  0.00  0.00    +0.000 NA
ATOM      9  C   UNL     1       1.476   8.748  19.841  0.00  0.00    +0.000 A 
ATOM     10  N   UNL     1       1.896   7.446  19.787  0.00  0.00    +0.000 N 
ATOM     11  C   UNL     1       1.707   6.413  20.773  0.00  0.00    +0.000 C 
BRANCH   6  12
ATOM     12  S   UNL     1       2.928   5.729  17.939  0.00  0.00    +0.000 S 
BRANCH  12  13
ATOM     13  C   UNL     1       4.710   5.817  18.289  0.00  0.00    +0.000 C 
BRANCH  13  14
ATOM     14  C   UNL     1       5.363   6.683  17.212  0.00  0.00    +0.000 C 
BRANCH  14  15
ATOM     15  C   UNL     1       6.493   5.943  16.494  0.00  0.00    +0.000 C 
BRANCH  15  16
ATOM     16  C   UNL     1       6.085   4.502  16.175  0.00  0.00    +0.000 C 
BRANCH  16  18
ATOM     17  C   UNL     1       6.308   3.929  13.733  0.00  0.00    +0.000 C 
ATOM     18  C   UNL     1       5.369   4.408  14.829  0.00  0.00    +0.000 C 
ENDBRANCH  16  18
ENDBRANCH  15  16
ENDBRANCH  14  15
ENDBRANCH  13  14
ENDBRANCH  12  13
ENDBRANCH   6  12
ENDBRANCH   1   9
BRANCH   4  19
ATOM     19  C   UNL     1      -1.155  11.914  22.766  0.00  0.00    +0.000 A 
ATOM     20  C   UNL     1      -2.414  11.482  23.205  0.00  0.00    +0.000 A 
ATOM     21  C   UNL     1      -3.293  12.390  23.806  0.00  0.00    +0.000 A 
ATOM     22  C   UNL     1      -2.922  13.725  23.970  0.00  0.00    +0.000 A 
ATOM     23  C   UNL     1      -1.693  14.168  23.493  0.00  0.00    +0.000 A 
ATOM     24  C   UNL     1      -0.831  13.276  22.858  0.00  0.00    +0.000 A 
ENDBRANCH   4  19
BRANCH   5  25
ATOM     25  N   UNL     1      -0.300  11.355  19.800  0.00  0.00    +0.000 N 
ATOM     26  C   UNL     1       0.270  12.520  19.318  0.00  0.00    +0.000 A 
ATOM     27  C   UNL     1      -0.447  12.971  18.234  0.00  0.00    +0.000 A 
ATOM     28  C   UNL     1      -1.468  12.032  17.994  0.00  0.00    +0.000 A 
ATOM     29  C   UNL     1      -1.364  11.064  18.966  0.00  0.00    +0.000 A 
ENDBRANCH   5  25
TORSDOF 9
ENDMDL
MODEL 6
REMARK VINA RESULT:      -6.9      2.065      3.084
REMARK  Name = 
REMARK  11 active torsions:
REMARK  status: ('A' for Active; 'I' for Inactive)
REMARK    1  A    between atoms: C_1  and  C_2
REMARK    2  A    between atoms: C_2  and  C_3
REMARK    3  A    between atoms: C_3  and  C_4
REMARK    4  A    between atoms: C_4  and  C_5
REMARK    5  A    between atoms: C_5  and  C_6
REMARK    6  A    between atoms: C_6  and  S_7
REMARK    7  A    between atoms: S_7  and  C_8
REMARK    8  A    between atoms: C_11  and  C_12
REMARK    9  A    between atoms: N_15  and  C_16
REMARK   10  A    between atoms: C_22  and  N_23
REMARK   11  A    between atoms: N_28  and  C_29
REMARK                            x       y       z     vdW  Elec       q    Type
REMARK                         _______ _______ _______ _____ _____    ______ ____
ROOT
ATOM      1  C   UNL     1       0.751   9.598  21.025  0.00  0.00    +0.000 A 
ATOM      2  C   UNL     1       0.865   9.271  22.384  0.00  0.00    +0.000 A 
ATOM      3  N   UNL     1       0.282  10.161  23.185  0.00  0.00    +0.000 NA
ATOM      4  N   UNL     1      -0.325  11.043  22.334  0.00  0.00    +0.000 N 
ATOM      5  C   UNL     1       0.017  10.767  21.016  0.00  0.00    +0.000 A 
ENDROOT
BRANCH   1   9
ATOM      6  C   UNL     1       2.366   7.497  18.517  0.00  0.00    +0.000 A 
ATOM      7  N   UNL     1       2.181   8.604  17.838  0.00  0.00    +0.000 NA
ATOM      8  N   UNL     1       1.569   9.496  18.688  0.00  0.00    +0.000 NA
ATOM      9  C   UNL     1       1.402   8.920  19.867  0.00  0.00    +0.000 A 
ATOM     10  N   UNL     1       1.908   7.649  19.797  0.00  0.00    +0.000 N 
ATOM     11  C   UNL     1       1.817   6.604  20.785  0.00  0.00    +0.000 C 
BRANCH   6  12
ATOM     12  S   UNL     1       3.002   6.008  17.916  0.00  0.00    +0.000 S 
BRANCH  12  13
ATOM     13  C   UNL     1       4.556   6.552  17.144  0.00  0.00    +0.000 C 
BRANCH  13  14
ATOM     14  C   UNL     1       5.660   5.581  17.565  0.00  0.00    +0.000 C 
BRANCH  14  15
ATOM     15  C   UNL     1       5.723   4.359  16.646  0.00  0.00    +0.000 C 
BRANCH  15  16
ATOM     16  C   UNL     1       5.480   4.759  15.189  0.00  0.00    +0.000 C 
BRANCH  16  18
ATOM     17  C   UNL     1       5.735   3.660  12.937  0.00  0.00    +0.000 C 
ATOM     18  C   UNL     1       6.427   4.025  14.241  0.00  0.00    +0.000 C 
ENDBRANCH  16  18
ENDBRANCH  15  16
ENDBRANCH  14  15
ENDBRANCH  13  14
ENDBRANCH  12  13
ENDBRANCH   6  12
ENDBRANCH   1   9
BRANCH   4  19
ATOM     19  C   UNL     1      -1.251  11.980  22.883  0.00  0.00    +0.000 A 
ATOM     20  C   UNL     1      -0.903  13.336  22.957  0.00  0.00    +0.000 A 
ATOM     21  C   UNL     1      -1.839  14.273  23.406  0.00  0.00    +0.000 A 
ATOM     22  C   UNL     1      -3.119  13.865  23.783  0.00  0.00    +0.000 A 
ATOM     23  C   UNL     1      -3.453  12.515  23.756  0.00  0.00    +0.000 A 
ATOM     24  C   UNL     1      -2.510  11.573  23.347  0.00  0.00    +0.000 A 
ENDBRANCH   4  19
BRANCH   5  25
ATOM     25  N   UNL     1      -0.337  11.552  19.913  0.00  0.00    +0.000 N 
ATOM     26  C   UNL     1      -1.395  11.345  19.046  0.00  0.00    +0.000 A 
ATOM     27  C   UNL     1      -1.359  12.286  18.042  0.00  0.00    +0.000 A 
ATOM     28  C   UNL     1      -0.276  13.142  18.317  0.00  0.00    +0.000 A 
ATOM     29  C   UNL     1       0.337  12.669  19.454  0.00  0.00    +0.000 A 
ENDBRANCH   5  25
TORSDOF 9
ENDMDL
MODEL 7
REMARK VINA RESULT:      -6.9      2.637      3.700
REMARK  Name = 
REMARK  11 active torsions:
REMARK  status: ('A' for Active; 'I' for Inactive)
REMARK    1  A    between atoms: C_1  and  C_2
REMARK    2  A    between atoms: C_2  and  C_3
REMARK    3  A    between atoms: C_3  and  C_4
REMARK    4  A    between atoms: C_4  and  C_5
REMARK    5  A    between atoms: C_5  and  C_6
REMARK    6  A    between atoms: C_6  and  S_7
REMARK    7  A    between atoms: S_7  and  C_8
REMARK    8  A    between atoms: C_11  and  C_12
REMARK    9  A    between atoms: N_15  and  C_16
REMARK   10  A    between atoms: C_22  and  N_23
REMARK   11  A    between atoms: N_28  and  C_29
REMARK                            x       y       z     vdW  Elec       q    Type
REMARK                         _______ _______ _______ _____ _____    ______ ____
ROOT
ATOM      1  C   UNL     1       0.505  10.295  20.153  0.00  0.00    +0.000 A 
ATOM      2  C   UNL     1       0.886  10.773  21.415  0.00  0.00    +0.000 A 
ATOM      3  N   UNL     1       0.013  11.639  21.929  0.00  0.00    +0.000 NA
ATOM      4  N   UNL     1      -1.022  11.656  21.035  0.00  0.00    +0.000 N 
ATOM      5  C   UNL     1      -0.707  10.908  19.907  0.00  0.00    +0.000 A 
ENDROOT
BRANCH   1   9
ATOM      6  C   UNL     1       2.451   7.832  18.292  0.00  0.00    +0.000 A 
ATOM      7  N   UNL     1       2.301   8.771  17.389  0.00  0.00    +0.000 NA
ATOM      8  N   UNL     1       1.571   9.777  17.976  0.00  0.00    +0.000 NA
ATOM      9  C   UNL     1       1.299   9.438  19.226  0.00  0.00    +0.000 A 
ATOM     10  N   UNL     1       1.854   8.209  19.465  0.00  0.00    +0.000 N 
ATOM     11  C   UNL     1       1.696   7.378  20.630  0.00  0.00    +0.000 C 
BRANCH   6  12
ATOM     12  S   UNL     1       3.200   6.292  18.071  0.00  0.00    +0.000 S 
BRANCH  12  13
ATOM     13  C   UNL     1       4.566   6.701  16.942  0.00  0.00    +0.000 C 
BRANCH  13  14
ATOM     14  C   UNL     1       5.275   5.400  16.564  0.00  0.00    +0.000 C 
BRANCH  14  15
ATOM     15  C   UNL     1       5.414   5.247  15.048  0.00  0.00    +0.000 C 
BRANCH  15  16
ATOM     16  C   UNL     1       6.096   3.923  14.693  0.00  0.00    +0.000 C 
BRANCH  16  18
ATOM     17  C   UNL     1       5.105   3.548  12.409  0.00  0.00    +0.000 C 
ATOM     18  C   UNL     1       6.377   3.823  13.195  0.00  0.00    +0.000 C 
ENDBRANCH  16  18
ENDBRANCH  15  16
ENDBRANCH  14  15
ENDBRANCH  13  14
ENDBRANCH  12  13
ENDBRANCH   6  12
ENDBRANCH   1   9
BRANCH   4  19
ATOM     19  C   UNL     1      -2.235  12.298  21.422  0.00  0.00    +0.000 A 
ATOM     20  C   UNL     1      -2.983  12.999  20.466  0.00  0.00    +0.000 A 
ATOM     21  C   UNL     1      -4.220  13.551  20.816  0.00  0.00    +0.000 A 
ATOM     22  C   UNL     1      -4.713  13.409  22.113  0.00  0.00    +0.000 A 
ATOM     23  C   UNL     1      -3.953  12.755  23.077  0.00  0.00    +0.000 A 
ATOM     24  C   UNL     1      -2.702  12.238  22.743  0.00  0.00    +0.000 A 
ENDBRANCH   4  19
BRANCH   5  25
ATOM     25  N   UNL     1      -1.497  10.821  18.755  0.00  0.00    +0.000 N 
ATOM     26  C   UNL     1      -2.351   9.790  18.406  0.00  0.00    +0.000 A 
ATOM     27  C   UNL     1      -2.885  10.035  17.161  0.00  0.00    +0.000 A 
ATOM     28  C   UNL     1      -2.392  11.284  16.739  0.00  0.00    +0.000 A 
ATOM     29  C   UNL     1      -1.542  11.737  17.721  0.00  0.00    +0.000 A 
ENDBRANCH   5  25
TORSDOF 9
ENDMDL
MODEL 8
REMARK VINA RESULT:      -6.8      3.934      6.707
REMARK  Name = 
REMARK  11 active torsions:
REMARK  status: ('A' for Active; 'I' for Inactive)
REMARK    1  A    between atoms: C_1  and  C_2
REMARK    2  A    between atoms: C_2  and  C_3
REMARK    3  A    between atoms: C_3  and  C_4
REMARK    4  A    between atoms: C_4  and  C_5
REMARK    5  A    between atoms: C_5  and  C_6
REMARK    6  A    between atoms: C_6  and  S_7
REMARK    7  A    between atoms: S_7  and  C_8
REMARK    8  A    between atoms: C_11  and  C_12
REMARK    9  A    between atoms: N_15  and  C_16
REMARK   10  A    between atoms: C_22  and  N_23
REMARK   11  A    between atoms: N_28  and  C_29
REMARK                            x       y       z     vdW  Elec       q    Type
REMARK                         _______ _______ _______ _____ _____    ______ ____
ROOT
ATOM      1  C   UNL     1       3.206   6.891  18.115  0.00  0.00    +0.000 A 
ATOM      2  C   UNL     1       3.111   8.217  17.670  0.00  0.00    +0.000 A 
ATOM      3  N   UNL     1       2.253   8.945  18.382  0.00  0.00    +0.000 NA
ATOM      4  N   UNL     1       1.848   8.112  19.389  0.00  0.00    +0.000 N 
ATOM      5  C   UNL     1       2.352   6.832  19.198  0.00  0.00    +0.000 A 
ENDROOT
BRANCH   1   9
ATOM      6  C   UNL     1       5.200   4.516  16.192  0.00  0.00    +0.000 A 
ATOM      7  N   UNL     1       4.734   3.742  17.143  0.00  0.00    +0.000 NA
ATOM      8  N   UNL     1       3.949   4.532  17.951  0.00  0.00    +0.000 NA
ATOM      9  C   UNL     1       3.945   5.766  17.472  0.00  0.00    +0.000 A 
ATOM     10  N   UNL     1       4.724   5.789  16.346  0.00  0.00    +0.000 N 
ATOM     11  C   UNL     1       5.131   6.936  15.575  0.00  0.00    +0.000 C 
BRANCH   6  12
ATOM     12  S   UNL     1       6.322   4.074  14.956  0.00  0.00    +0.000 S 
BRANCH  12  13
ATOM     13  C   UNL     1       5.214   3.500  13.634  0.00  0.00    +0.000 C 
BRANCH  13  14
ATOM     14  C   UNL     1       6.041   3.335  12.359  0.00  0.00    +0.000 C 
BRANCH  14  15
ATOM     15  C   UNL     1       5.210   2.754  11.213  0.00  0.00    +0.000 C 
BRANCH  15  16
ATOM     16  C   UNL     1       3.825   3.404  11.158  0.00  0.00    +0.000 C 
BRANCH  16  18
ATOM     17  C   UNL     1       2.634   4.615   9.300  0.00  0.00    +0.000 C 
ATOM     18  C   UNL     1       3.206   3.286   9.767  0.00  0.00    +0.000 C 
ENDBRANCH  16  18
ENDBRANCH  15  16
ENDBRANCH  14  15
ENDBRANCH  13  14
ENDBRANCH  12  13
ENDBRANCH   6  12
ENDBRANCH   1   9
BRANCH   4  19
ATOM     19  C   UNL     1       1.115   8.676  20.475  0.00  0.00    +0.000 A 
ATOM     20  C   UNL     1       1.616   8.565  21.780  0.00  0.00    +0.000 A 
ATOM     21  C   UNL     1       0.953   9.194  22.838  0.00  0.00    +0.000 A 
ATOM     22  C   UNL     1      -0.207   9.933  22.602  0.00  0.00    +0.000 A 
ATOM     23  C   UNL     1      -0.734  10.007  21.317  0.00  0.00    +0.000 A 
ATOM     24  C   UNL     1      -0.098   9.347  20.266  0.00  0.00    +0.000 A 
ENDBRANCH   4  19
BRANCH   5  25
ATOM     25  N   UNL     1       2.029   5.717  19.979  0.00  0.00    +0.000 N 
ATOM     26  C   UNL     1       2.711   5.248  21.088  0.00  0.00    +0.000 A 
ATOM     27  C   UNL     1       2.129   4.082  21.529  0.00  0.00    +0.000 A 
ATOM     28  C   UNL     1       1.015   3.838  20.703  0.00  0.00    +0.000 A 
ATOM     29  C   UNL     1       0.981   4.841  19.762  0.00  0.00    +0.000 A 
ENDBRANCH   5  25
TORSDOF 9
ENDMDL
MODEL 9
REMARK VINA RESULT:      -6.8      2.557      3.437
REMARK  Name = 
REMARK  11 active torsions:
REMARK  status: ('A' for Active; 'I' for Inactive)
REMARK    1  A    between atoms: C_1  and  C_2
REMARK    2  A    between atoms: C_2  and  C_3
REMARK    3  A    between atoms: C_3  and  C_4
REMARK    4  A    between atoms: C_4  and  C_5
REMARK    5  A    between atoms: C_5  and  C_6
REMARK    6  A    between atoms: C_6  and  S_7
REMARK    7  A    between atoms: S_7  and  C_8
REMARK    8  A    between atoms: C_11  and  C_12
REMARK    9  A    between atoms: N_15  and  C_16
REMARK   10  A    between atoms: C_22  and  N_23
REMARK   11  A    between atoms: N_28  and  C_29
REMARK                            x       y       z     vdW  Elec       q    Type
REMARK                         _______ _______ _______ _____ _____    ______ ____
ROOT
ATOM      1  C   UNL     1       0.511  10.640  20.148  0.00  0.00    +0.000 A 
ATOM      2  C   UNL     1       0.976  11.246  21.324  0.00  0.00    +0.000 A 
ATOM      3  N   UNL     1       0.147  12.177  21.793  0.00  0.00    +0.000 NA
ATOM      4  N   UNL     1      -0.943  12.114  20.969  0.00  0.00    +0.000 N 
ATOM      5  C   UNL     1      -0.708  11.244  19.912  0.00  0.00    +0.000 A 
ENDROOT
BRANCH   1   9
ATOM      6  C   UNL     1       2.248   7.931  18.428  0.00  0.00    +0.000 A 
ATOM      7  N   UNL     1       2.200   8.839  17.484  0.00  0.00    +0.000 NA
ATOM      8  N   UNL     1       1.558   9.933  18.015  0.00  0.00    +0.000 NA
ATOM      9  C   UNL     1       1.237   9.675  19.272  0.00  0.00    +0.000 A 
ATOM     10  N   UNL     1       1.670   8.411  19.572  0.00  0.00    +0.000 N 
ATOM     11  C   UNL     1       1.417   7.648  20.767  0.00  0.00    +0.000 C 
BRANCH   6  12
ATOM     12  S   UNL     1       2.853   6.319  18.285  0.00  0.00    +0.000 S 
BRANCH  12  13
ATOM     13  C   UNL     1       4.328   6.567  17.251  0.00  0.00    +0.000 C 
BRANCH  13  14
ATOM     14  C   UNL     1       5.189   5.306  17.342  0.00  0.00    +0.000 C 
BRANCH  14  15
ATOM     15  C   UNL     1       6.093   5.322  18.577  0.00  0.00    +0.000 C 
BRANCH  15  16
ATOM     16  C   UNL     1       7.560   5.498  18.177  0.00  0.00    +0.000 C 
BRANCH  16  18
ATOM     17  C   UNL     1       7.785   7.938  17.597  0.00  0.00    +0.000 C 
ATOM     18  C   UNL     1       8.101   6.856  18.618  0.00  0.00    +0.000 C 
ENDBRANCH  16  18
ENDBRANCH  15  16
ENDBRANCH  14  15
ENDBRANCH  13  14
ENDBRANCH  12  13
ENDBRANCH   6  12
ENDBRANCH   1   9
BRANCH   4  19
ATOM     19  C   UNL     1      -2.122  12.815  21.358  0.00  0.00    +0.000 A 
ATOM     20  C   UNL     1      -2.474  14.000  20.697  0.00  0.00    +0.000 A 
ATOM     21  C   UNL     1      -3.677  14.642  21.008  0.00  0.00    +0.000 A 
ATOM     22  C   UNL     1      -4.529  14.109  21.976  0.00  0.00    +0.000 A 
ATOM     23  C   UNL     1      -4.162  12.961  22.668  0.00  0.00    +0.000 A 
ATOM     24  C   UNL     1      -2.946  12.340  22.390  0.00  0.00    +0.000 A 
ENDBRANCH   4  19
BRANCH   5  25
ATOM     25  N   UNL     1      -1.570  11.045  18.828  0.00  0.00    +0.000 N 
ATOM     26  C   UNL     1      -2.398   9.958  18.608  0.00  0.00    +0.000 A 
ATOM     27  C   UNL     1      -3.027  10.096  17.392  0.00  0.00    +0.000 A 
ATOM     28  C   UNL     1      -2.623  11.333  16.856  0.00  0.00    +0.000 A 
ATOM     29  C   UNL     1      -1.729  11.887  17.743  0.00  0.00    +0.000 A 
ENDBRANCH   5  25
TORSDOF 9
ENDMDL
