MODEL 1
REMARK VINA RESULT:      -7.5      0.000      0.000
REMARK  Name = 
REMARK  2 active torsions:
REMARK  status: ('A' for Active; 'I' for Inactive)
REMARK    1  A    between atoms: C_2  and  C_3
REMARK    2  A    between atoms: C_3  and  N_4
REMARK                            x       y       z     vdW  Elec       q    Type
REMARK                         _______ _______ _______ _____ _____    ______ ____
ROOT
ATOM      1  C   UNL     1       5.160   5.078  18.204  0.00  0.00    +0.000 C 
ENDROOT
BRANCH   1   2
ATOM      2  N   UNL     1       5.572   4.810  16.830  0.00  0.00    +0.000 N 
ATOM      3  C   UNL     1       4.797   4.187  15.831  0.00  0.00    +0.000 C 
ATOM      4  O   UNL     1       3.646   3.816  15.959  0.00  0.00    +0.000 OA
ATOM      5  C   UNL     1       5.586   4.122  14.585  0.00  0.00    +0.000 A 
ATOM      6  C   UNL     1       5.173   3.605  13.368  0.00  0.00    +0.000 A 
ATOM      7  C   UNL     1       6.061   3.674  12.287  0.00  0.00    +0.000 A 
ATOM      8  C   UNL     1       7.336   4.254  12.436  0.00  0.00    +0.000 A 
ATOM      9  C   UNL     1       7.744   4.775  13.665  0.00  0.00    +0.000 A 
ATOM     10  C   UNL     1       6.847   4.693  14.714  0.00  0.00    +0.000 A 
ATOM     11  S   UNL     1       7.084   5.303  16.325  0.00  0.00    +0.000 S 
ATOM     12  O   UNL     1       7.097   6.746  16.273  0.00  0.00    +0.000 OA
ATOM     13  O   UNL     1       8.106   4.524  16.980  0.00  0.00    +0.000 OA
ENDBRANCH   1   2
BRANCH   1  15
ATOM     14  O   UNL     1       4.154   7.121  17.454  0.00  0.00    +0.000 OA
ATOM     15  C   UNL     1       4.109   6.185  18.255  0.00  0.00    +0.000 C 
ATOM     16  N   UNL     1       3.136   6.043  19.237  0.00  0.00    +0.000 N 
ATOM     17  C   UNL     1       2.981   4.898  20.152  0.00  0.00    +0.000 C 
ATOM     18  C   UNL     1       1.761   5.168  21.037  0.00  0.00    +0.000 C 
ATOM     19  C   UNL     1       1.489   6.606  20.740  0.00  0.00    +0.000 A 
ATOM     20  C   UNL     1       0.606   7.447  21.400  0.00  0.00    +0.000 A 
ATOM     21  C   UNL     1       0.482   8.761  20.948  0.00  0.00    +0.000 A 
ATOM     22  C   UNL     1       1.220   9.205  19.842  0.00  0.00    +0.000 A 
ATOM     23  C   UNL     1       2.108   8.348  19.184  0.00  0.00    +0.000 A 
ATOM     24  C   UNL     1       2.247   7.053  19.654  0.00  0.00    +0.000 A 
ENDBRANCH   1  15
TORSDOF 2
ENDMDL
MODEL 2
REMARK VINA RESULT:      -7.0      4.205      8.130
REMARK  Name = 
REMARK  2 active torsions:
REMARK  status: ('A' for Active; 'I' for Inactive)
REMARK    1  A    between atoms: C_2  and  C_3
REMARK    2  A    between atoms: C_3  and  N_4
REMARK                            x       y       z     vdW  Elec       q    Type
REMARK                         _______ _______ _______ _____ _____    ______ ____
ROOT
ATOM      1  C   UNL     1       2.224   7.898  20.501  0.00  0.00    +0.000 C 
ENDROOT
BRANCH   1   2
ATOM      2  N   UNL     1       1.215   8.895  20.161  0.00  0.00    +0.000 N 
ATOM      3  C   UNL     1       0.871   9.328  18.864  0.00  0.00    +0.000 C 
ATOM      4  O   UNL     1       1.342   8.898  17.828  0.00  0.00    +0.000 OA
ATOM      5  C   UNL     1      -0.203  10.335  18.966  0.00  0.00    +0.000 A 
ATOM      6  C   UNL     1      -0.831  10.986  17.917  0.00  0.00    +0.000 A 
ATOM      7  C   UNL     1      -1.863  11.884  18.222  0.00  0.00    +0.000 A 
ATOM      8  C   UNL     1      -2.247  12.116  19.557  0.00  0.00    +0.000 A 
ATOM      9  C   UNL     1      -1.610  11.455  20.608  0.00  0.00    +0.000 A 
ATOM     10  C   UNL     1      -0.596  10.575  20.278  0.00  0.00    +0.000 A 
ATOM     11  S   UNL     1       0.321   9.595  21.383  0.00  0.00    +0.000 S 
ATOM     12  O   UNL     1      -0.553   8.590  21.941  0.00  0.00    +0.000 OA
ATOM     13  O   UNL     1       1.160  10.449  22.188  0.00  0.00    +0.000 OA
ENDBRANCH   1   2
BRANCH   1  15
ATOM     14  O   UNL     1       0.790   5.991  20.730  0.00  0.00    +0.000 OA
ATOM     15  C   UNL     1       1.750   6.492  20.140  0.00  0.00    +0.000 C 
ATOM     16  N   UNL     1       2.461   5.860  19.128  0.00  0.00    +0.000 N 
ATOM     17  C   UNL     1       3.550   6.450  18.329  0.00  0.00    +0.000 C 
ATOM     18  C   UNL     1       4.012   5.396  17.319  0.00  0.00    +0.000 C 
ATOM     19  C   UNL     1       3.329   4.170  17.830  0.00  0.00    +0.000 A 
ATOM     20  C   UNL     1       3.530   2.862  17.418  0.00  0.00    +0.000 A 
ATOM     21  C   UNL     1       2.767   1.857  18.013  0.00  0.00    +0.000 A 
ATOM     22  C   UNL     1       1.809   2.173  18.986  0.00  0.00    +0.000 A 
ATOM     23  C   UNL     1       1.615   3.496  19.395  0.00  0.00    +0.000 A 
ATOM     24  C   UNL     1       2.394   4.486  18.821  0.00  0.00    +0.000 A 
ENDBRANCH   1  15
TORSDOF 2
ENDMDL
MODEL 3
REMARK VINA RESULT:      -7.0      5.625      8.600
REMARK  Name = 
REMARK  2 active torsions:
REMARK  status: ('A' for Active; 'I' for Inactive)
REMARK    1  A    between atoms: C_2  and  C_3
REMARK    2  A    between atoms: C_3  and  N_4
REMARK                            x       y       z     vdW  Elec       q    Type
REMARK                         _______ _______ _______ _____ _____    ______ ____
ROOT
ATOM      1  C   UNL     1       0.078  11.891  21.050  0.00  0.00    +0.000 C 
ENDROOT
BRANCH   1   2
ATOM      2  N   UNL     1       0.628  10.627  20.572  0.00  0.00    +0.000 N 
ATOM      3  C   UNL     1       1.166  10.380  19.293  0.00  0.00    +0.000 C 
ATOM      4  O   UNL     1       1.288  11.204  18.407  0.00  0.00    +0.000 OA
ATOM      5  C   UNL     1       1.620   8.977  19.229  0.00  0.00    +0.000 A 
ATOM      6  C   UNL     1       2.226   8.350  18.152  0.00  0.00    +0.000 A 
ATOM      7  C   UNL     1       2.624   7.016  18.305  0.00  0.00    +0.000 A 
ATOM      8  C   UNL     1       2.412   6.334  19.519  0.00  0.00    +0.000 A 
ATOM      9  C   UNL     1       1.802   6.973  20.599  0.00  0.00    +0.000 A 
ATOM     10  C   UNL     1       1.420   8.289  20.420  0.00  0.00    +0.000 A 
ATOM     11  S   UNL     1       0.689   9.323  21.611  0.00  0.00    +0.000 S 
ATOM     12  O   UNL     1       1.665   9.605  22.638  0.00  0.00    +0.000 OA
ATOM     13  O   UNL     1      -0.644   8.850  21.895  0.00  0.00    +0.000 OA
ENDBRANCH   1   2
BRANCH   1  15
ATOM     14  O   UNL     1      -1.667  12.041  19.412  0.00  0.00    +0.000 OA
ATOM     15  C   UNL     1      -1.376  12.057  20.611  0.00  0.00    +0.000 C 
ATOM     16  N   UNL     1      -2.299  12.212  21.637  0.00  0.00    +0.000 N 
ATOM     17  C   UNL     1      -2.016  12.141  23.082  0.00  0.00    +0.000 C 
ATOM     18  C   UNL     1      -3.337  12.343  23.828  0.00  0.00    +0.000 C 
ATOM     19  C   UNL     1      -4.234  12.810  22.728  0.00  0.00    +0.000 A 
ATOM     20  C   UNL     1      -5.514  13.328  22.849  0.00  0.00    +0.000 A 
ATOM     21  C   UNL     1      -6.195  13.686  21.687  0.00  0.00    +0.000 A 
ATOM     22  C   UNL     1      -5.602  13.504  20.430  0.00  0.00    +0.000 A 
ATOM     23  C   UNL     1      -4.310  12.981  20.318  0.00  0.00    +0.000 A 
ATOM     24  C   UNL     1      -3.628  12.653  21.478  0.00  0.00    +0.000 A 
ENDBRANCH   1  15
TORSDOF 2
ENDMDL
MODEL 4
REMARK VINA RESULT:      -7.0      5.697     10.364
REMARK  Name = 
REMARK  2 active torsions:
REMARK  status: ('A' for Active; 'I' for Inactive)
REMARK    1  A    between atoms: C_2  and  C_3
REMARK    2  A    between atoms: C_3  and  N_4
REMARK                            x       y       z     vdW  Elec       q    Type
REMARK                         _______ _______ _______ _____ _____    ______ ____
ROOT
ATOM      1  C   UNL     1       0.640  11.326  21.002  0.00  0.00    +0.000 C 
ENDROOT
BRANCH   1   2
ATOM      2  N   UNL     1      -0.750  11.757  21.112  0.00  0.00    +0.000 N 
ATOM      3  C   UNL     1      -1.472  11.954  22.306  0.00  0.00    +0.000 C 
ATOM      4  O   UNL     1      -1.024  11.833  23.430  0.00  0.00    +0.000 OA
ATOM      5  C   UNL     1      -2.839  12.400  21.970  0.00  0.00    +0.000 A 
ATOM      6  C   UNL     1      -3.849  12.721  22.862  0.00  0.00    +0.000 A 
ATOM      7  C   UNL     1      -5.070  13.166  22.341  0.00  0.00    +0.000 A 
ATOM      8  C   UNL     1      -5.263  13.282  20.951  0.00  0.00    +0.000 A 
ATOM      9  C   UNL     1      -4.240  12.958  20.059  0.00  0.00    +0.000 A 
ATOM     10  C   UNL     1      -3.046  12.522  20.601  0.00  0.00    +0.000 A 
ATOM     11  S   UNL     1      -1.606  12.102  19.722  0.00  0.00    +0.000 S 
ATOM     12  O   UNL     1      -1.057  13.303  19.137  0.00  0.00    +0.000 OA
ATOM     13  O   UNL     1      -1.845  10.894  18.971  0.00  0.00    +0.000 OA
ENDBRANCH   1   2
BRANCH   1  15
ATOM     14  O   UNL     1       0.381   9.158  21.993  0.00  0.00    +0.000 OA
ATOM     15  C   UNL     1       0.743   9.802  21.006  0.00  0.00    +0.000 C 
ATOM     16  N   UNL     1       1.251   9.232  19.845  0.00  0.00    +0.000 N 
ATOM     17  C   UNL     1       1.606   9.948  18.606  0.00  0.00    +0.000 C 
ATOM     18  C   UNL     1       2.095   8.911  17.591  0.00  0.00    +0.000 C 
ATOM     19  C   UNL     1       2.255   7.701  18.453  0.00  0.00    +0.000 A 
ATOM     20  C   UNL     1       2.854   6.498  18.110  0.00  0.00    +0.000 A 
ATOM     21  C   UNL     1       2.880   5.478  19.061  0.00  0.00    +0.000 A 
ATOM     22  C   UNL     1       2.294   5.665  20.321  0.00  0.00    +0.000 A 
ATOM     23  C   UNL     1       1.693   6.883  20.656  0.00  0.00    +0.000 A 
ATOM     24  C   UNL     1       1.694   7.901  19.718  0.00  0.00    +0.000 A 
ENDBRANCH   1  15
TORSDOF 2
ENDMDL
MODEL 5
REMARK VINA RESULT:      -7.0      5.372      9.436
REMARK  Name = 
REMARK  2 active torsions:
REMARK  status: ('A' for Active; 'I' for Inactive)
REMARK    1  A    between atoms: C_2  and  C_3
REMARK    2  A    between atoms: C_3  and  N_4
REMARK                            x       y       z     vdW  Elec       q    Type
REMARK                         _______ _______ _______ _____ _____    ______ ____
ROOT
ATOM      1  C   UNL     1       0.879  10.659  19.896  0.00  0.00    +0.000 C 
ENDROOT
BRANCH   1   2
ATOM      2  N   UNL     1      -0.490  11.131  19.721  0.00  0.00    +0.000 N 
ATOM      3  C   UNL     1      -1.361  10.799  18.663  0.00  0.00    +0.000 C 
ATOM      4  O   UNL     1      -1.108  10.030  17.756  0.00  0.00    +0.000 OA
ATOM      5  C   UNL     1      -2.652  11.482  18.876  0.00  0.00    +0.000 A 
ATOM      6  C   UNL     1      -3.778  11.396  18.072  0.00  0.00    +0.000 A 
ATOM      7  C   UNL     1      -4.926  12.092  18.470  0.00  0.00    +0.000 A 
ATOM      8  C   UNL     1      -4.934  12.857  19.653  0.00  0.00    +0.000 A 
ATOM      9  C   UNL     1      -3.797  12.937  20.458  0.00  0.00    +0.000 A 
ATOM     10  C   UNL     1      -2.678  12.240  20.041  0.00  0.00    +0.000 A 
ATOM     11  S   UNL     1      -1.157  12.134  20.876  0.00  0.00    +0.000 S 
ATOM     12  O   UNL     1      -1.349  11.368  22.086  0.00  0.00    +0.000 OA
ATOM     13  O   UNL     1      -0.511  13.424  20.850  0.00  0.00    +0.000 OA
ENDBRANCH   1   2
BRANCH   1  15
ATOM     14  O   UNL     1       0.245   8.704  21.131  0.00  0.00    +0.000 OA
ATOM     15  C   UNL     1       0.909   9.162  20.197  0.00  0.00    +0.000 C 
ATOM     16  N   UNL     1       1.708   8.397  19.358  0.00  0.00    +0.000 N 
ATOM     17  C   UNL     1       2.441   8.879  18.174  0.00  0.00    +0.000 C 
ATOM     18  C   UNL     1       3.159   7.680  17.549  0.00  0.00    +0.000 C 
ATOM     19  C   UNL     1       3.006   6.648  18.617  0.00  0.00    +0.000 A 
ATOM     20  C   UNL     1       3.624   5.409  18.684  0.00  0.00    +0.000 A 
ATOM     21  C   UNL     1       3.325   4.578  19.763  0.00  0.00    +0.000 A 
ATOM     22  C   UNL     1       2.405   4.985  20.740  0.00  0.00    +0.000 A 
ATOM     23  C   UNL     1       1.787   6.237  20.663  0.00  0.00    +0.000 A 
ATOM     24  C   UNL     1       2.109   7.068  19.604  0.00  0.00    +0.000 A 
ENDBRANCH   1  15
TORSDOF 2
ENDMDL
MODEL 6
REMARK VINA RESULT:      -6.9      5.782     10.364
REMARK  Name = 
REMARK  2 active torsions:
REMARK  status: ('A' for Active; 'I' for Inactive)
REMARK    1  A    between atoms: C_2  and  C_3
REMARK    2  A    between atoms: C_3  and  N_4
REMARK                            x       y       z     vdW  Elec       q    Type
REMARK                         _______ _______ _______ _____ _____    ______ ____
ROOT
ATOM      1  C   UNL     1       0.761  11.357  20.967  0.00  0.00    +0.000 C 
ENDROOT
BRANCH   1   2
ATOM      2  N   UNL     1      -0.605  11.846  21.114  0.00  0.00    +0.000 N 
ATOM      3  C   UNL     1      -1.591  11.889  20.107  0.00  0.00    +0.000 C 
ATOM      4  O   UNL     1      -1.457  11.480  18.970  0.00  0.00    +0.000 OA
ATOM      5  C   UNL     1      -2.833  12.444  20.679  0.00  0.00    +0.000 A 
ATOM      6  C   UNL     1      -4.039  12.628  20.021  0.00  0.00    +0.000 A 
ATOM      7  C   UNL     1      -5.119  13.134  20.755  0.00  0.00    +0.000 A 
ATOM      8  C   UNL     1      -4.981  13.447  22.121  0.00  0.00    +0.000 A 
ATOM      9  C   UNL     1      -3.764  13.257  22.777  0.00  0.00    +0.000 A 
ATOM     10  C   UNL     1      -2.715  12.757  22.028  0.00  0.00    +0.000 A 
ATOM     11  S   UNL     1      -1.118  12.385  22.607  0.00  0.00    +0.000 S 
ATOM     12  O   UNL     1      -1.203  11.250  23.496  0.00  0.00    +0.000 OA
ATOM     13  O   UNL     1      -0.443  13.612  22.953  0.00  0.00    +0.000 OA
ENDBRANCH   1   2
BRANCH   1  15
ATOM     14  O   UNL     1       0.395   9.206  21.963  0.00  0.00    +0.000 OA
ATOM     15  C   UNL     1       0.801   9.830  20.979  0.00  0.00    +0.000 C 
ATOM     16  N   UNL     1       1.304   9.234  19.830  0.00  0.00    +0.000 N 
ATOM     17  C   UNL     1       1.710   9.927  18.594  0.00  0.00    +0.000 C 
ATOM     18  C   UNL     1       2.173   8.866  17.593  0.00  0.00    +0.000 C 
ATOM     19  C   UNL     1       2.267   7.654  18.462  0.00  0.00    +0.000 A 
ATOM     20  C   UNL     1       2.821   6.426  18.135  0.00  0.00    +0.000 A 
ATOM     21  C   UNL     1       2.787   5.411  19.090  0.00  0.00    +0.000 A 
ATOM     22  C   UNL     1       2.188   5.628  20.339  0.00  0.00    +0.000 A 
ATOM     23  C   UNL     1       1.633   6.871  20.658  0.00  0.00    +0.000 A 
ATOM     24  C   UNL     1       1.693   7.884  19.716  0.00  0.00    +0.000 A 
ENDBRANCH   1  15
TORSDOF 2
ENDMDL
MODEL 7
REMARK VINA RESULT:      -6.8      4.929      9.158
REMARK  Name = 
REMARK  2 active torsions:
REMARK  status: ('A' for Active; 'I' for Inactive)
REMARK    1  A    between atoms: C_2  and  C_3
REMARK    2  A    between atoms: C_3  and  N_4
REMARK                            x       y       z     vdW  Elec       q    Type
REMARK                         _______ _______ _______ _____ _____    ______ ____
ROOT
ATOM      1  C   UNL     1       1.829   9.026  20.628  0.00  0.00    +0.000 C 
ENDROOT
BRANCH   1   2
ATOM      2  N   UNL     1       0.727   9.926  20.950  0.00  0.00    +0.000 N 
ATOM      3  C   UNL     1       0.219  10.198  22.237  0.00  0.00    +0.000 C 
ATOM      4  O   UNL     1       0.657   9.750  23.278  0.00  0.00    +0.000 OA
ATOM      5  C   UNL     1      -0.886  11.171  22.118  0.00  0.00    +0.000 A 
ATOM      6  C   UNL     1      -1.630  11.711  23.154  0.00  0.00    +0.000 A 
ATOM      7  C   UNL     1      -2.613  12.656  22.836  0.00  0.00    +0.000 A 
ATOM      8  C   UNL     1      -2.837  13.044  21.500  0.00  0.00    +0.000 A 
ATOM      9  C   UNL     1      -2.082  12.496  20.462  0.00  0.00    +0.000 A 
ATOM     10  C   UNL     1      -1.119  11.566  20.805  0.00  0.00    +0.000 A 
ATOM     11  S   UNL     1      -0.017  10.772  19.720  0.00  0.00    +0.000 S 
ATOM     12  O   UNL     1       0.916  11.752  19.213  0.00  0.00    +0.000 OA
ATOM     13  O   UNL     1      -0.756   9.871  18.871  0.00  0.00    +0.000 OA
ENDBRANCH   1   2
BRANCH   1  15
ATOM     14  O   UNL     1       0.506   7.200  21.446  0.00  0.00    +0.000 OA
ATOM     15  C   UNL     1       1.370   7.569  20.646  0.00  0.00    +0.000 C 
ATOM     16  N   UNL     1       1.980   6.736  19.717  0.00  0.00    +0.000 N 
ATOM     17  C   UNL     1       2.943   7.146  18.679  0.00  0.00    +0.000 C 
ATOM     18  C   UNL     1       3.323   5.899  17.876  0.00  0.00    +0.000 C 
ATOM     19  C   UNL     1       2.753   4.810  18.724  0.00  0.00    +0.000 A 
ATOM     20  C   UNL     1       2.954   3.445  18.588  0.00  0.00    +0.000 A 
ATOM     21  C   UNL     1       2.307   2.589  19.478  0.00  0.00    +0.000 A 
ATOM     22  C   UNL     1       1.459   3.103  20.469  0.00  0.00    +0.000 A 
ATOM     23  C   UNL     1       1.263   4.481  20.598  0.00  0.00    +0.000 A 
ATOM     24  C   UNL     1       1.930   5.328  19.729  0.00  0.00    +0.000 A 
ENDBRANCH   1  15
TORSDOF 2
ENDMDL
MODEL 8
REMARK VINA RESULT:      -6.8      4.247      7.991
REMARK  Name = 
REMARK  2 active torsions:
REMARK  status: ('A' for Active; 'I' for Inactive)
REMARK    1  A    between atoms: C_2  and  C_3
REMARK    2  A    between atoms: C_3  and  N_4
REMARK                            x       y       z     vdW  Elec       q    Type
REMARK                         _______ _______ _______ _____ _____    ______ ____
ROOT
ATOM      1  C   UNL     1       2.572   8.223  18.198  0.00  0.00    +0.000 C 
ENDROOT
BRANCH   1   2
ATOM      2  N   UNL     1       1.701   8.829  19.199  0.00  0.00    +0.000 N 
ATOM      3  C   UNL     1       1.504   8.377  20.520  0.00  0.00    +0.000 C 
ATOM      4  O   UNL     1       2.070   7.432  21.034  0.00  0.00    +0.000 OA
ATOM      5  C   UNL     1       0.554   9.280  21.197  0.00  0.00    +0.000 A 
ATOM      6  C   UNL     1       0.118   9.193  22.509  0.00  0.00    +0.000 A 
ATOM      7  C   UNL     1      -0.760  10.178  22.979  0.00  0.00    +0.000 A 
ATOM      8  C   UNL     1      -1.185  11.226  22.140  0.00  0.00    +0.000 A 
ATOM      9  C   UNL     1      -0.740  11.308  20.820  0.00  0.00    +0.000 A 
ATOM     10  C   UNL     1       0.125  10.323  20.383  0.00  0.00    +0.000 A 
ATOM     11  S   UNL     1       0.860  10.217  18.811  0.00  0.00    +0.000 S 
ATOM     12  O   UNL     1       1.808  11.298  18.672  0.00  0.00    +0.000 OA
ATOM     13  O   UNL     1      -0.158   9.925  17.831  0.00  0.00    +0.000 OA
ENDBRANCH   1   2
BRANCH   1  15
ATOM     14  O   UNL     1       1.063   6.535  17.409  0.00  0.00    +0.000 OA
ATOM     15  C   UNL     1       2.161   6.780  17.914  0.00  0.00    +0.000 C 
ATOM     16  N   UNL     1       3.097   5.812  18.253  0.00  0.00    +0.000 N 
ATOM     17  C   UNL     1       4.457   6.056  18.767  0.00  0.00    +0.000 C 
ATOM     18  C   UNL     1       5.131   4.697  18.972  0.00  0.00    +0.000 C 
ATOM     19  C   UNL     1       3.974   3.764  18.828  0.00  0.00    +0.000 A 
ATOM     20  C   UNL     1       3.950   2.405  19.103  0.00  0.00    +0.000 A 
ATOM     21  C   UNL     1       2.765   1.706  18.878  0.00  0.00    +0.000 A 
ATOM     22  C   UNL     1       1.637   2.363  18.368  0.00  0.00    +0.000 A 
ATOM     23  C   UNL     1       1.671   3.734  18.095  0.00  0.00    +0.000 A 
ATOM     24  C   UNL     1       2.842   4.429  18.346  0.00  0.00    +0.000 A 
ENDBRANCH   1  15
TORSDOF 2
ENDMDL
MODEL 9
REMARK VINA RESULT:      -6.8      5.036      8.972
REMARK  Name = 
REMARK  2 active torsions:
REMARK  status: ('A' for Active; 'I' for Inactive)
REMARK    1  A    between atoms: C_2  and  C_3
REMARK    2  A    between atoms: C_3  and  N_4
REMARK                            x       y       z     vdW  Elec       q    Type
REMARK                         _______ _______ _______ _____ _____    ______ ____
ROOT
ATOM      1  C   UNL     1       1.660   9.765  20.225  0.00  0.00    +0.000 C 
ENDROOT
BRANCH   1   2
ATOM      2  N   UNL     1       0.380  10.457  20.121  0.00  0.00    +0.000 N 
ATOM      3  C   UNL     1      -0.500  10.427  19.020  0.00  0.00    +0.000 C 
ATOM      4  O   UNL     1      -0.337   9.780  18.003  0.00  0.00    +0.000 OA
ATOM      5  C   UNL     1      -1.684  11.252  19.332  0.00  0.00    +0.000 A 
ATOM      6  C   UNL     1      -2.786  11.460  18.520  0.00  0.00    +0.000 A 
ATOM      7  C   UNL     1      -3.832  12.248  19.017  0.00  0.00    +0.000 A 
ATOM      8  C   UNL     1      -3.761  12.811  20.306  0.00  0.00    +0.000 A 
ATOM      9  C   UNL     1      -2.648  12.595  21.119  0.00  0.00    +0.000 A 
ATOM     10  C   UNL     1      -1.631  11.814  20.602  0.00  0.00    +0.000 A 
ATOM     11  S   UNL     1      -0.166  11.354  21.417  0.00  0.00    +0.000 S 
ATOM     12  O   UNL     1      -0.501  10.446  22.490  0.00  0.00    +0.000 OA
ATOM     13  O   UNL     1       0.661  12.522  21.599  0.00  0.00    +0.000 OA
ENDBRANCH   1   2
BRANCH   1  15
ATOM     14  O   UNL     1       0.762   7.861  21.373  0.00  0.00    +0.000 OA
ATOM     15  C   UNL     1       1.458   8.266  20.438  0.00  0.00    +0.000 C 
ATOM     16  N   UNL     1       2.094   7.439  19.522  0.00  0.00    +0.000 N 
ATOM     17  C   UNL     1       2.854   7.873  18.336  0.00  0.00    +0.000 C 
ATOM     18  C   UNL     1       3.347   6.617  17.611  0.00  0.00    +0.000 C 
ATOM     19  C   UNL     1       3.066   5.557  18.624  0.00  0.00    +0.000 A 
ATOM     20  C   UNL     1       3.478   4.233  18.592  0.00  0.00    +0.000 A 
ATOM     21  C   UNL     1       3.086   3.394  19.634  0.00  0.00    +0.000 A 
ATOM     22  C   UNL     1       2.279   3.878  20.673  0.00  0.00    +0.000 A 
ATOM     23  C   UNL     1       1.869   5.215  20.696  0.00  0.00    +0.000 A 
ATOM     24  C   UNL     1       2.283   6.050  19.673  0.00  0.00    +0.000 A 
ENDBRANCH   1  15
TORSDOF 2
ENDMDL
