MODEL 1
REMARK VINA RESULT:      -8.1      0.000      0.000
REMARK  Name = 
REMARK  3 active torsions:
REMARK  status: ('A' for Active; 'I' for Inactive)
REMARK    1  A    between atoms: C_2  and  C_4
REMARK    2  A    between atoms: C_7  and  C_8
REMARK    3  A    between atoms: C_11  and  C_12
REMARK                            x       y       z     vdW  Elec       q    Type
REMARK                         _______ _______ _______ _____ _____    ______ ____
ROOT
ATOM      1  C   UNL     1       6.246   4.641  16.239  0.00  0.00    +0.000 A 
ATOM      2  C   UNL     1       7.218   4.746  17.216  0.00  0.00    +0.000 A 
ATOM      3  C   UNL     1       6.554   4.932  18.449  0.00  0.00    +0.000 A 
ATOM      4  C   UNL     1       5.200   4.920  18.179  0.00  0.00    +0.000 A 
ATOM      5  O   UNL     1       5.011   4.768  16.833  0.00  0.00    +0.000 OA
ENDROOT
BRANCH   4   6
ATOM      6  C   UNL     1       4.006   4.976  19.023  0.00  0.00    +0.000 A 
ATOM      7  C   UNL     1       3.373   6.209  19.256  0.00  0.00    +0.000 A 
ATOM      8  C   UNL     1       2.295   6.305  20.137  0.00  0.00    +0.000 A 
ATOM      9 CL   UNL     1       1.575   7.840  20.432  0.00  0.00    +0.000 Cl
ATOM     10  C   UNL     1       1.815   5.179  20.795  0.00  0.00    +0.000 A 
ATOM     11  C   UNL     1       2.415   3.947  20.548  0.00  0.00    +0.000 A 
ATOM     12 CL   UNL     1       1.830   2.546  21.361  0.00  0.00    +0.000 Cl
ATOM     13  C   UNL     1       3.496   3.838  19.667  0.00  0.00    +0.000 A 
ENDBRANCH   4   6
BRANCH   1  17
ATOM     14  C   UNL     1       6.097   3.562  12.810  0.00  0.00    +0.000 A 
ATOM     15  C   UNL     1       7.137   4.460  12.696  0.00  0.00    +0.000 A 
ATOM     16  C   UNL     1       7.347   5.006  13.984  0.00  0.00    +0.000 A 
ATOM     17  C   UNL     1       6.430   4.414  14.834  0.00  0.00    +0.000 A 
ATOM     18  O   UNL     1       5.661   3.532  14.108  0.00  0.00    +0.000 OA
BRANCH  14  20
ATOM     19  N   UNL     1       6.053   1.626  11.477  0.00  0.00    +0.000 NA
ATOM     20  C   UNL     1       5.446   2.717  11.829  0.00  0.00    +0.000 C 
ATOM     21  N   UNL     1       4.245   3.017  11.250  0.00  0.00    +0.000 N 
ATOM     22  H   UNL     1       5.465   1.116  10.817  0.00  0.00    +0.000 HD
ATOM     23  H   UNL     1       4.101   2.654  10.318  0.00  0.00    +0.000 HD
ATOM     24  H   UNL     1       3.983   3.993  11.337  0.00  0.00    +0.000 HD
ENDBRANCH  14  20
ENDBRANCH   1  17
TORSDOF 3
ENDMDL
MODEL 2
REMARK VINA RESULT:      -8.0      0.165      2.089
REMARK  Name = 
REMARK  3 active torsions:
REMARK  status: ('A' for Active; 'I' for Inactive)
REMARK    1  A    between atoms: C_2  and  C_4
REMARK    2  A    between atoms: C_7  and  C_8
REMARK    3  A    between atoms: C_11  and  C_12
REMARK                            x       y       z     vdW  Elec       q    Type
REMARK                         _______ _______ _______ _____ _____    ______ ____
ROOT
ATOM      1  C   UNL     1       6.314   4.628  16.283  0.00  0.00    +0.000 A 
ATOM      2  C   UNL     1       7.297   4.681  17.253  0.00  0.00    +0.000 A 
ATOM      3  C   UNL     1       6.650   4.877  18.494  0.00  0.00    +0.000 A 
ATOM      4  C   UNL     1       5.295   4.923  18.236  0.00  0.00    +0.000 A 
ATOM      5  O   UNL     1       5.089   4.797  16.889  0.00  0.00    +0.000 OA
ENDROOT
BRANCH   4   6
ATOM      6  C   UNL     1       4.110   5.015  19.090  0.00  0.00    +0.000 A 
ATOM      7  C   UNL     1       3.525   3.844  19.600  0.00  0.00    +0.000 A 
ATOM      8  C   UNL     1       2.338   3.897  20.331  0.00  0.00    +0.000 A 
ATOM      9 CL   UNL     1       1.627   2.436  20.901  0.00  0.00    +0.000 Cl
ATOM     10  C   UNL     1       1.714   5.113  20.583  0.00  0.00    +0.000 A 
ATOM     11  C   UNL     1       2.301   6.282  20.109  0.00  0.00    +0.000 A 
ATOM     12 CL   UNL     1       1.535   7.794  20.412  0.00  0.00    +0.000 Cl
ATOM     13  C   UNL     1       3.491   6.242  19.374  0.00  0.00    +0.000 A 
ENDBRANCH   4   6
BRANCH   1  17
ATOM     14  C   UNL     1       6.118   3.574  12.849  0.00  0.00    +0.000 A 
ATOM     15  C   UNL     1       7.150   4.480  12.726  0.00  0.00    +0.000 A 
ATOM     16  C   UNL     1       7.377   5.017  14.014  0.00  0.00    +0.000 A 
ATOM     17  C   UNL     1       6.477   4.413  14.873  0.00  0.00    +0.000 A 
ATOM     18  O   UNL     1       5.702   3.531  14.153  0.00  0.00    +0.000 OA
BRANCH  14  20
ATOM     19  N   UNL     1       4.328   3.145  11.387  0.00  0.00    +0.000 NA
ATOM     20  C   UNL     1       5.457   2.732  11.872  0.00  0.00    +0.000 C 
ATOM     21  N   UNL     1       5.951   1.529  11.452  0.00  0.00    +0.000 N 
ATOM     22  H   UNL     1       4.001   2.478  10.688  0.00  0.00    +0.000 HD
ATOM     23  H   UNL     1       5.265   0.848  11.157  0.00  0.00    +0.000 HD
ATOM     24  H   UNL     1       6.653   1.138  12.072  0.00  0.00    +0.000 HD
ENDBRANCH  14  20
ENDBRANCH   1  17
TORSDOF 3
ENDMDL
MODEL 3
REMARK VINA RESULT:      -7.8      4.736      7.579
REMARK  Name = 
REMARK  3 active torsions:
REMARK  status: ('A' for Active; 'I' for Inactive)
REMARK    1  A    between atoms: C_2  and  C_4
REMARK    2  A    between atoms: C_7  and  C_8
REMARK    3  A    between atoms: C_11  and  C_12
REMARK                            x       y       z     vdW  Elec       q    Type
REMARK                         _______ _______ _______ _____ _____    ______ ____
ROOT
ATOM      1  C   UNL     1       5.276   4.748  17.936  0.00  0.00    +0.000 A 
ATOM      2  C   UNL     1       6.596   4.803  18.339  0.00  0.00    +0.000 A 
ATOM      3  C   UNL     1       7.393   4.638  17.184  0.00  0.00    +0.000 A 
ATOM      4  C   UNL     1       6.528   4.502  16.118  0.00  0.00    +0.000 A 
ATOM      5  O   UNL     1       5.239   4.544  16.576  0.00  0.00    +0.000 OA
ENDROOT
BRANCH   4   6
ATOM      6  C   UNL     1       6.723   4.389  14.671  0.00  0.00    +0.000 A 
ATOM      7  C   UNL     1       7.542   5.316  14.004  0.00  0.00    +0.000 A 
ATOM      8  C   UNL     1       7.663   5.293  12.613  0.00  0.00    +0.000 A 
ATOM      9 CL   UNL     1       8.638   6.473  11.827  0.00  0.00    +0.000 Cl
ATOM     10  C   UNL     1       6.985   4.343  11.859  0.00  0.00    +0.000 A 
ATOM     11  C   UNL     1       6.197   3.400  12.513  0.00  0.00    +0.000 A 
ATOM     12 CL   UNL     1       5.350   2.221  11.587  0.00  0.00    +0.000 Cl
ATOM     13  C   UNL     1       6.067   3.414  13.906  0.00  0.00    +0.000 A 
ENDBRANCH   4   6
BRANCH   1  17
ATOM     14  C   UNL     1       2.429   4.336  20.098  0.00  0.00    +0.000 A 
ATOM     15  C   UNL     1       2.306   5.688  19.854  0.00  0.00    +0.000 A 
ATOM     16  C   UNL     1       3.372   6.046  18.996  0.00  0.00    +0.000 A 
ATOM     17  C   UNL     1       4.100   4.897  18.747  0.00  0.00    +0.000 A 
ATOM     18  O   UNL     1       3.521   3.850  19.429  0.00  0.00    +0.000 OA
BRANCH  14  20
ATOM     19  N   UNL     1       0.494   3.042  20.425  0.00  0.00    +0.000 NA
ATOM     20  C   UNL     1       1.636   3.429  20.903  0.00  0.00    +0.000 C 
ATOM     21  N   UNL     1       2.018   2.979  22.135  0.00  0.00    +0.000 N 
ATOM     22  H   UNL     1       0.067   2.381  21.074  0.00  0.00    +0.000 HD
ATOM     23  H   UNL     1       1.269   2.752  22.775  0.00  0.00    +0.000 HD
ATOM     24  H   UNL     1       2.748   3.539  22.565  0.00  0.00    +0.000 HD
ENDBRANCH  14  20
ENDBRANCH   1  17
TORSDOF 3
ENDMDL
MODEL 4
REMARK VINA RESULT:      -7.8      1.239      2.459
REMARK  Name = 
REMARK  3 active torsions:
REMARK  status: ('A' for Active; 'I' for Inactive)
REMARK    1  A    between atoms: C_2  and  C_4
REMARK    2  A    between atoms: C_7  and  C_8
REMARK    3  A    between atoms: C_11  and  C_12
REMARK                            x       y       z     vdW  Elec       q    Type
REMARK                         _______ _______ _______ _____ _____    ______ ____
ROOT
ATOM      1  C   UNL     1       6.435   4.995  15.558  0.00  0.00    +0.000 A 
ATOM      2  C   UNL     1       7.376   4.992  16.570  0.00  0.00    +0.000 A 
ATOM      3  C   UNL     1       6.748   5.507  17.727  0.00  0.00    +0.000 A 
ATOM      4  C   UNL     1       5.443   5.793  17.379  0.00  0.00    +0.000 A 
ATOM      5  O   UNL     1       5.257   5.505  16.054  0.00  0.00    +0.000 OA
ENDROOT
BRANCH   4   6
ATOM      6  C   UNL     1       4.280   6.260  18.134  0.00  0.00    +0.000 A 
ATOM      7  C   UNL     1       3.796   5.498  19.212  0.00  0.00    +0.000 A 
ATOM      8  C   UNL     1       2.629   5.867  19.882  0.00  0.00    +0.000 A 
ATOM      9 CL   UNL     1       2.043   4.885  21.168  0.00  0.00    +0.000 Cl
ATOM     10  C   UNL     1       1.926   7.006  19.507  0.00  0.00    +0.000 A 
ATOM     11  C   UNL     1       2.413   7.784  18.461  0.00  0.00    +0.000 A 
ATOM     12 CL   UNL     1       1.548   9.195  17.985  0.00  0.00    +0.000 Cl
ATOM     13  C   UNL     1       3.581   7.424  17.780  0.00  0.00    +0.000 A 
ENDBRANCH   4   6
BRANCH   1  17
ATOM     14  C   UNL     1       6.218   3.359  12.360  0.00  0.00    +0.000 A 
ATOM     15  C   UNL     1       7.262   4.216  12.081  0.00  0.00    +0.000 A 
ATOM     16  C   UNL     1       7.499   4.967  13.256  0.00  0.00    +0.000 A 
ATOM     17  C   UNL     1       6.593   4.534  14.207  0.00  0.00    +0.000 A 
ATOM     18  O   UNL     1       5.805   3.551  13.652  0.00  0.00    +0.000 OA
BRANCH  14  20
ATOM     19  N   UNL     1       4.355   2.655  11.113  0.00  0.00    +0.000 NA
ATOM     20  C   UNL     1       5.544   2.369  11.545  0.00  0.00    +0.000 C 
ATOM     21  N   UNL     1       6.085   1.156  11.227  0.00  0.00    +0.000 N 
ATOM     22  H   UNL     1       4.022   1.890  10.524  0.00  0.00    +0.000 HD
ATOM     23  H   UNL     1       5.426   0.405  11.070  0.00  0.00    +0.000 HD
ATOM     24  H   UNL     1       6.857   0.884  11.827  0.00  0.00    +0.000 HD
ENDBRANCH  14  20
ENDBRANCH   1  17
TORSDOF 3
ENDMDL
MODEL 5
REMARK VINA RESULT:      -7.8      3.480      5.265
REMARK  Name = 
REMARK  3 active torsions:
REMARK  status: ('A' for Active; 'I' for Inactive)
REMARK    1  A    between atoms: C_2  and  C_4
REMARK    2  A    between atoms: C_7  and  C_8
REMARK    3  A    between atoms: C_11  and  C_12
REMARK                            x       y       z     vdW  Elec       q    Type
REMARK                         _______ _______ _______ _____ _____    ______ ____
ROOT
ATOM      1  C   UNL     1       3.050   5.424  19.170  0.00  0.00    +0.000 A 
ATOM      2  C   UNL     1       2.429   4.742  20.199  0.00  0.00    +0.000 A 
ATOM      3  C   UNL     1       1.650   5.682  20.913  0.00  0.00    +0.000 A 
ATOM      4  C   UNL     1       1.816   6.898  20.283  0.00  0.00    +0.000 A 
ATOM      5  O   UNL     1       2.686   6.749  19.238  0.00  0.00    +0.000 OA
ENDROOT
BRANCH   4   6
ATOM      6  C   UNL     1       1.222   8.222  20.478  0.00  0.00    +0.000 A 
ATOM      7  C   UNL     1       1.418   9.224  19.513  0.00  0.00    +0.000 A 
ATOM      8  C   UNL     1       0.950  10.522  19.723  0.00  0.00    +0.000 A 
ATOM      9 CL   UNL     1       1.249  11.734  18.538  0.00  0.00    +0.000 Cl
ATOM     10  C   UNL     1       0.267  10.849  20.888  0.00  0.00    +0.000 A 
ATOM     11  C   UNL     1       0.040   9.856  21.837  0.00  0.00    +0.000 A 
ATOM     12 CL   UNL     1      -0.802  10.251  23.286  0.00  0.00    +0.000 Cl
ATOM     13  C   UNL     1       0.505   8.551  21.638  0.00  0.00    +0.000 A 
ENDBRANCH   4   6
BRANCH   1  17
ATOM     14  C   UNL     1       5.770   4.563  16.977  0.00  0.00    +0.000 A 
ATOM     15  C   UNL     1       4.799   3.752  16.427  0.00  0.00    +0.000 A 
ATOM     16  C   UNL     1       3.620   3.958  17.180  0.00  0.00    +0.000 A 
ATOM     17  C   UNL     1       3.917   4.891  18.158  0.00  0.00    +0.000 A 
ATOM     18  O   UNL     1       5.239   5.255  18.033  0.00  0.00    +0.000 OA
BRANCH  14  20
ATOM     19  N   UNL     1       8.057   4.215  17.393  0.00  0.00    +0.000 NA
ATOM     20  C   UNL     1       7.162   4.765  16.631  0.00  0.00    +0.000 C 
ATOM     21  N   UNL     1       7.576   5.511  15.565  0.00  0.00    +0.000 N 
ATOM     22  H   UNL     1       8.983   4.406  17.009  0.00  0.00    +0.000 HD
ATOM     23  H   UNL     1       8.479   5.955  15.659  0.00  0.00    +0.000 HD
ATOM     24  H   UNL     1       6.864   6.140  15.206  0.00  0.00    +0.000 HD
ENDBRANCH  14  20
ENDBRANCH   1  17
TORSDOF 3
ENDMDL
MODEL 6
REMARK VINA RESULT:      -7.7      6.596      9.566
REMARK  Name = 
REMARK  3 active torsions:
REMARK  status: ('A' for Active; 'I' for Inactive)
REMARK    1  A    between atoms: C_2  and  C_4
REMARK    2  A    between atoms: C_7  and  C_8
REMARK    3  A    between atoms: C_11  and  C_12
REMARK                            x       y       z     vdW  Elec       q    Type
REMARK                         _______ _______ _______ _____ _____    ______ ____
ROOT
ATOM      1  C   UNL     1       1.157   9.206  19.820  0.00  0.00    +0.000 A 
ATOM      2  C   UNL     1       1.142   9.851  18.598  0.00  0.00    +0.000 A 
ATOM      3  C   UNL     1       1.850   9.036  17.686  0.00  0.00    +0.000 A 
ATOM      4  C   UNL     1       2.259   7.918  18.383  0.00  0.00    +0.000 A 
ATOM      5  O   UNL     1       1.860   8.030  19.687  0.00  0.00    +0.000 OA
ENDROOT
BRANCH   4   6
ATOM      6  C   UNL     1       2.944   6.684  17.995  0.00  0.00    +0.000 A 
ATOM      7  C   UNL     1       4.236   6.748  17.444  0.00  0.00    +0.000 A 
ATOM      8  C   UNL     1       4.870   5.598  16.971  0.00  0.00    +0.000 A 
ATOM      9 CL   UNL     1       6.433   5.721  16.262  0.00  0.00    +0.000 Cl
ATOM     10  C   UNL     1       4.241   4.361  17.047  0.00  0.00    +0.000 A 
ATOM     11  C   UNL     1       2.975   4.282  17.619  0.00  0.00    +0.000 A 
ATOM     12 CL   UNL     1       2.185   2.755  17.714  0.00  0.00    +0.000 Cl
ATOM     13  C   UNL     1       2.328   5.428  18.095  0.00  0.00    +0.000 A 
ENDBRANCH   4   6
BRANCH   1  17
ATOM     14  C   UNL     1      -0.599  10.903  22.462  0.00  0.00    +0.000 A 
ATOM     15  C   UNL     1      -0.215   9.777  23.162  0.00  0.00    +0.000 A 
ATOM     16  C   UNL     1       0.508   8.964  22.260  0.00  0.00    +0.000 A 
ATOM     17  C   UNL     1       0.542   9.628  21.047  0.00  0.00    +0.000 A 
ATOM     18  O   UNL     1      -0.143  10.815  21.174  0.00  0.00    +0.000 OA
BRANCH  14  20
ATOM     19  N   UNL     1      -0.705  13.086  23.327  0.00  0.00    +0.000 NA
ATOM     20  C   UNL     1      -1.361  12.068  22.862  0.00  0.00    +0.000 C 
ATOM     21  N   UNL     1      -2.723  12.142  22.791  0.00  0.00    +0.000 N 
ATOM     22  H   UNL     1      -1.360  13.841  23.528  0.00  0.00    +0.000 HD
ATOM     23  H   UNL     1      -3.170  12.747  23.467  0.00  0.00    +0.000 HD
ATOM     24  H   UNL     1      -3.177  11.238  22.710  0.00  0.00    +0.000 HD
ENDBRANCH  14  20
ENDBRANCH   1  17
TORSDOF 3
ENDMDL
MODEL 7
REMARK VINA RESULT:      -7.7      4.695      6.118
REMARK  Name = 
REMARK  3 active torsions:
REMARK  status: ('A' for Active; 'I' for Inactive)
REMARK    1  A    between atoms: C_2  and  C_4
REMARK    2  A    between atoms: C_7  and  C_8
REMARK    3  A    between atoms: C_11  and  C_12
REMARK                            x       y       z     vdW  Elec       q    Type
REMARK                         _______ _______ _______ _____ _____    ______ ____
ROOT
ATOM      1  C   UNL     1       2.987   6.703  18.546  0.00  0.00    +0.000 A 
ATOM      2  C   UNL     1       3.248   7.571  17.503  0.00  0.00    +0.000 A 
ATOM      3  C   UNL     1       2.484   8.738  17.729  0.00  0.00    +0.000 A 
ATOM      4  C   UNL     1       1.796   8.543  18.909  0.00  0.00    +0.000 A 
ATOM      5  O   UNL     1       2.082   7.296  19.396  0.00  0.00    +0.000 OA
ENDROOT
BRANCH   4   6
ATOM      6  C   UNL     1       0.921   9.394  19.717  0.00  0.00    +0.000 A 
ATOM      7  C   UNL     1       0.349  10.545  19.148  0.00  0.00    +0.000 A 
ATOM      8  C   UNL     1      -0.405  11.427  19.923  0.00  0.00    +0.000 A 
ATOM      9 CL   UNL     1      -1.050  12.850  19.202  0.00  0.00    +0.000 Cl
ATOM     10  C   UNL     1      -0.618  11.179  21.274  0.00  0.00    +0.000 A 
ATOM     11  C   UNL     1      -0.083  10.026  21.840  0.00  0.00    +0.000 A 
ATOM     12 CL   UNL     1      -0.338   9.710  23.513  0.00  0.00    +0.000 Cl
ATOM     13  C   UNL     1       0.676   9.134  21.073  0.00  0.00    +0.000 A 
ENDBRANCH   4   6
BRANCH   1  17
ATOM     14  C   UNL     1       3.706   3.187  18.813  0.00  0.00    +0.000 A 
ATOM     15  C   UNL     1       4.895   3.677  19.311  0.00  0.00    +0.000 A 
ATOM     16  C   UNL     1       4.799   5.088  19.282  0.00  0.00    +0.000 A 
ATOM     17  C   UNL     1       3.552   5.403  18.772  0.00  0.00    +0.000 A 
ATOM     18  O   UNL     1       2.886   4.233  18.480  0.00  0.00    +0.000 OA
BRANCH  14  20
ATOM     19  N   UNL     1       1.963   1.615  18.685  0.00  0.00    +0.000 NA
ATOM     20  C   UNL     1       3.239   1.832  18.601  0.00  0.00    +0.000 C 
ATOM     21  N   UNL     1       4.068   0.779  18.336  0.00  0.00    +0.000 N 
ATOM     22  H   UNL     1       1.777   0.634  18.475  0.00  0.00    +0.000 HD
ATOM     23  H   UNL     1       3.744  -0.127  18.644  0.00  0.00    +0.000 HD
ATOM     24  H   UNL     1       5.038   0.953  18.579  0.00  0.00    +0.000 HD
ENDBRANCH  14  20
ENDBRANCH   1  17
TORSDOF 3
ENDMDL
MODEL 8
REMARK VINA RESULT:      -7.7      4.671      6.254
REMARK  Name = 
REMARK  3 active torsions:
REMARK  status: ('A' for Active; 'I' for Inactive)
REMARK    1  A    between atoms: C_2  and  C_4
REMARK    2  A    between atoms: C_7  and  C_8
REMARK    3  A    between atoms: C_11  and  C_12
REMARK                            x       y       z     vdW  Elec       q    Type
REMARK                         _______ _______ _______ _____ _____    ______ ____
ROOT
ATOM      1  C   UNL     1       2.976   6.674  18.547  0.00  0.00    +0.000 A 
ATOM      2  C   UNL     1       3.208   7.534  17.491  0.00  0.00    +0.000 A 
ATOM      3  C   UNL     1       2.476   8.716  17.746  0.00  0.00    +0.000 A 
ATOM      4  C   UNL     1       1.836   8.536  18.955  0.00  0.00    +0.000 A 
ATOM      5  O   UNL     1       2.118   7.285  19.433  0.00  0.00    +0.000 OA
ENDROOT
BRANCH   4   6
ATOM      6  C   UNL     1       1.011   9.405  19.796  0.00  0.00    +0.000 A 
ATOM      7  C   UNL     1       0.903   9.145  21.173  0.00  0.00    +0.000 A 
ATOM      8  C   UNL     1       0.044   9.895  21.978  0.00  0.00    +0.000 A 
ATOM      9 CL   UNL     1      -0.096   9.517  23.651  0.00  0.00    +0.000 Cl
ATOM     10  C   UNL     1      -0.715  10.926  21.436  0.00  0.00    +0.000 A 
ATOM     11  C   UNL     1      -0.592  11.212  20.080  0.00  0.00    +0.000 A 
ATOM     12 CL   UNL     1      -1.530  12.485  19.398  0.00  0.00    +0.000 Cl
ATOM     13  C   UNL     1       0.265  10.467  19.262  0.00  0.00    +0.000 A 
ENDBRANCH   4   6
BRANCH   1  17
ATOM     14  C   UNL     1       3.640   3.146  18.793  0.00  0.00    +0.000 A 
ATOM     15  C   UNL     1       4.857   3.614  19.242  0.00  0.00    +0.000 A 
ATOM     16  C   UNL     1       4.785   5.026  19.214  0.00  0.00    +0.000 A 
ATOM     17  C   UNL     1       3.526   5.363  18.753  0.00  0.00    +0.000 A 
ATOM     18  O   UNL     1       2.827   4.206  18.491  0.00  0.00    +0.000 OA
BRANCH  14  20
ATOM     19  N   UNL     1       4.006   0.867  18.346  0.00  0.00    +0.000 NA
ATOM     20  C   UNL     1       3.140   1.799  18.602  0.00  0.00    +0.000 C 
ATOM     21  N   UNL     1       1.816   1.468  18.660  0.00  0.00    +0.000 N 
ATOM     22  H   UNL     1       3.521  -0.028  18.276  0.00  0.00    +0.000 HD
ATOM     23  H   UNL     1       1.534   0.676  18.099  0.00  0.00    +0.000 HD
ATOM     24  H   UNL     1       1.193   2.263  18.562  0.00  0.00    +0.000 HD
ENDBRANCH  14  20
ENDBRANCH   1  17
TORSDOF 3
ENDMDL
MODEL 9
REMARK VINA RESULT:      -7.7      1.032      1.032
REMARK  Name = 
REMARK  3 active torsions:
REMARK  status: ('A' for Active; 'I' for Inactive)
REMARK    1  A    between atoms: C_2  and  C_4
REMARK    2  A    between atoms: C_7  and  C_8
REMARK    3  A    between atoms: C_11  and  C_12
REMARK                            x       y       z     vdW  Elec       q    Type
REMARK                         _______ _______ _______ _____ _____    ______ ____
ROOT
ATOM      1  C   UNL     1       5.558   5.480  15.729  0.00  0.00    +0.000 A 
ATOM      2  C   UNL     1       6.141   6.560  16.362  0.00  0.00    +0.000 A 
ATOM      3  C   UNL     1       5.389   6.817  17.531  0.00  0.00    +0.000 A 
ATOM      4  C   UNL     1       4.382   5.873  17.573  0.00  0.00    +0.000 A 
ATOM      5  O   UNL     1       4.468   5.075  16.465  0.00  0.00    +0.000 OA
ENDROOT
BRANCH   4   6
ATOM      6  C   UNL     1       3.343   5.553  18.553  0.00  0.00    +0.000 A 
ATOM      7  C   UNL     1       2.742   6.585  19.294  0.00  0.00    +0.000 A 
ATOM      8  C   UNL     1       1.824   6.298  20.305  0.00  0.00    +0.000 A 
ATOM      9 CL   UNL     1       1.142   7.586  21.221  0.00  0.00    +0.000 Cl
ATOM     10  C   UNL     1       1.474   4.984  20.593  0.00  0.00    +0.000 A 
ATOM     11  C   UNL     1       2.041   3.957  19.845  0.00  0.00    +0.000 A 
ATOM     12 CL   UNL     1       1.618   2.325  20.196  0.00  0.00    +0.000 Cl
ATOM     13  C   UNL     1       2.963   4.231  18.829  0.00  0.00    +0.000 A 
ENDBRANCH   4   6
BRANCH   1  17
ATOM     14  C   UNL     1       5.877   3.566  12.699  0.00  0.00    +0.000 A 
ATOM     15  C   UNL     1       7.150   4.095  12.742  0.00  0.00    +0.000 A 
ATOM     16  C   UNL     1       7.217   4.903  13.900  0.00  0.00    +0.000 A 
ATOM     17  C   UNL     1       5.984   4.831  14.521  0.00  0.00    +0.000 A 
ATOM     18  O   UNL     1       5.162   4.013  13.778  0.00  0.00    +0.000 OA
BRANCH  14  20
ATOM     19  N   UNL     1       5.839   1.571  11.457  0.00  0.00    +0.000 NA
ATOM     20  C   UNL     1       5.236   2.682  11.747  0.00  0.00    +0.000 C 
ATOM     21  N   UNL     1       4.049   2.965  11.132  0.00  0.00    +0.000 N 
ATOM     22  H   UNL     1       5.259   1.036  10.811  0.00  0.00    +0.000 HD
ATOM     23  H   UNL     1       3.918   2.560  10.215  0.00  0.00    +0.000 HD
ATOM     24  H   UNL     1       3.794   3.946  11.169  0.00  0.00    +0.000 HD
ENDBRANCH  14  20
ENDBRANCH   1  17
TORSDOF 3
ENDMDL
