MODEL 1
REMARK VINA RESULT:      -7.3      0.000      0.000
REMARK  Name = 
REMARK  6 active torsions:
REMARK  status: ('A' for Active; 'I' for Inactive)
REMARK    1  A    between atoms: C_2  and  C_3
REMARK    2  A    between atoms: C_3  and  S_4
REMARK    3  A    between atoms: S_4  and  C_5
REMARK    4  A    between atoms: N_7  and  C_8
REMARK    5  A    between atoms: N_18  and  C_19
REMARK    6  A    between atoms: C_19  and  C_20
REMARK                            x       y       z     vdW  Elec       q    Type
REMARK                         _______ _______ _______ _____ _____    ______ ____
ROOT
ATOM      1  C   UNL     1       5.449   5.062  18.146  0.00  0.00    +0.000 A 
ATOM      2  N   UNL     1       4.829   6.183  18.317  0.00  0.00    +0.000 NA
ATOM      3  N   UNL     1       3.456   5.944  18.394  0.00  0.00    +0.000 N 
ATOM      4  C   UNL     1       3.053   4.634  18.148  0.00  0.00    +0.000 A 
ATOM      5  S   UNL     1       1.533   4.008  17.845  0.00  0.00    +0.000 S 
ATOM      6  S   UNL     1       4.483   3.623  18.041  0.00  0.00    +0.000 S 
ENDROOT
BRANCH   3   7
ATOM      7  C   UNL     1       2.643   7.062  18.739  0.00  0.00    +0.000 A 
ATOM      8  C   UNL     1       2.376   8.053  17.784  0.00  0.00    +0.000 A 
ATOM      9  C   UNL     1       1.619   9.185  18.108  0.00  0.00    +0.000 A 
ATOM     10  C   UNL     1       1.148   9.356  19.406  0.00  0.00    +0.000 A 
ATOM     11 CL   UNL     1       0.282  10.782  19.825  0.00  0.00    +0.000 Cl
ATOM     12  C   UNL     1       1.395   8.385  20.371  0.00  0.00    +0.000 A 
ATOM     13  C   UNL     1       2.132   7.241  20.036  0.00  0.00    +0.000 A 
ENDBRANCH   3   7
BRANCH   1  14
ATOM     14  S   UNL     1       7.154   4.839  17.936  0.00  0.00    +0.000 S 
BRANCH  14  15
ATOM     15  C   UNL     1       7.865   6.254  18.796  0.00  0.00    +0.000 C 
BRANCH  15  17
ATOM     16  O   UNL     1       7.555   7.490  16.760  0.00  0.00    +0.000 OA
ATOM     17  C   UNL     1       7.892   7.507  17.945  0.00  0.00    +0.000 C 
ATOM     18  N   UNL     1       8.424   8.627  18.553  0.00  0.00    +0.000 N 
ATOM     19  H   UNL     1       8.434   8.669  19.567  0.00  0.00    +0.000 HD
BRANCH  18  20
ATOM     20  C   UNL     1       8.526   9.898  17.847  0.00  0.00    +0.000 C 
BRANCH  20  21
ATOM     21  C   UNL     1       9.481  10.886  18.525  0.00  0.00    +0.000 C 
ATOM     22  C   UNL     1       9.804  10.572  19.979  0.00  0.00    +0.000 C 
ATOM     23  C   UNL     1      10.135  11.937  20.531  0.00  0.00    +0.000 C 
ATOM     24  C   UNL     1       9.176  12.833  19.777  0.00  0.00    +0.000 C 
ATOM     25  O   UNL     1       8.920  12.215  18.508  0.00  0.00    +0.000 OA
ENDBRANCH  20  21
ENDBRANCH  18  20
ENDBRANCH  15  17
ENDBRANCH  14  15
ENDBRANCH   1  14
TORSDOF 6
ENDMDL
MODEL 2
REMARK VINA RESULT:      -7.2      1.095      1.529
REMARK  Name = 
REMARK  6 active torsions:
REMARK  status: ('A' for Active; 'I' for Inactive)
REMARK    1  A    between atoms: C_2  and  C_3
REMARK    2  A    between atoms: C_3  and  S_4
REMARK    3  A    between atoms: S_4  and  C_5
REMARK    4  A    between atoms: N_7  and  C_8
REMARK    5  A    between atoms: N_18  and  C_19
REMARK    6  A    between atoms: C_19  and  C_20
REMARK                            x       y       z     vdW  Elec       q    Type
REMARK                         _______ _______ _______ _____ _____    ______ ____
ROOT
ATOM      1  C   UNL     1       5.114   5.141  18.205  0.00  0.00    +0.000 A 
ATOM      2  N   UNL     1       4.472   6.262  18.154  0.00  0.00    +0.000 NA
ATOM      3  N   UNL     1       3.233   6.115  18.779  0.00  0.00    +0.000 N 
ATOM      4  C   UNL     1       2.909   4.824  19.188  0.00  0.00    +0.000 A 
ATOM      5  S   UNL     1       1.448   4.179  19.678  0.00  0.00    +0.000 S 
ATOM      6  S   UNL     1       4.320   3.803  18.976  0.00  0.00    +0.000 S 
ENDROOT
BRANCH   3   7
ATOM      7  C   UNL     1       2.469   7.305  18.945  0.00  0.00    +0.000 A 
ATOM      8  C   UNL     1       1.965   7.641  20.210  0.00  0.00    +0.000 A 
ATOM      9  C   UNL     1       1.172   8.781  20.393  0.00  0.00    +0.000 A 
ATOM     10  C   UNL     1       0.844   9.581  19.303  0.00  0.00    +0.000 A 
ATOM     11 CL   UNL     1      -0.192  10.937  19.514  0.00  0.00    +0.000 Cl
ATOM     12  C   UNL     1       1.335   9.271  18.039  0.00  0.00    +0.000 A 
ATOM     13  C   UNL     1       2.149   8.144  17.863  0.00  0.00    +0.000 A 
ENDBRANCH   3   7
BRANCH   1  14
ATOM     14  S   UNL     1       6.668   4.800  17.521  0.00  0.00    +0.000 S 
BRANCH  14  15
ATOM     15  C   UNL     1       7.211   6.405  16.907  0.00  0.00    +0.000 C 
BRANCH  15  17
ATOM     16  O   UNL     1       8.230   6.759  19.053  0.00  0.00    +0.000 OA
ATOM     17  C   UNL     1       7.896   7.240  17.969  0.00  0.00    +0.000 C 
ATOM     18  N   UNL     1       8.013   8.586  17.683  0.00  0.00    +0.000 N 
ATOM     19  H   UNL     1       7.979   8.879  16.711  0.00  0.00    +0.000 HD
BRANCH  18  20
ATOM     20  C   UNL     1       8.638   9.511  18.621  0.00  0.00    +0.000 C 
BRANCH  20  21
ATOM     21  C   UNL     1       9.356  10.674  17.928  0.00  0.00    +0.000 C 
ATOM     22  C   UNL     1      10.546  11.240  18.691  0.00  0.00    +0.000 C 
ATOM     23  C   UNL     1      10.596  12.662  18.187  0.00  0.00    +0.000 C 
ATOM     24  C   UNL     1       9.131  12.996  18.012  0.00  0.00    +0.000 C 
ATOM     25  O   UNL     1       8.444  11.771  17.721  0.00  0.00    +0.000 OA
ENDBRANCH  20  21
ENDBRANCH  18  20
ENDBRANCH  15  17
ENDBRANCH  14  15
ENDBRANCH   1  14
TORSDOF 6
ENDMDL
MODEL 3
REMARK VINA RESULT:      -6.9      1.207      1.762
REMARK  Name = 
REMARK  6 active torsions:
REMARK  status: ('A' for Active; 'I' for Inactive)
REMARK    1  A    between atoms: C_2  and  C_3
REMARK    2  A    between atoms: C_3  and  S_4
REMARK    3  A    between atoms: S_4  and  C_5
REMARK    4  A    between atoms: N_7  and  C_8
REMARK    5  A    between atoms: N_18  and  C_19
REMARK    6  A    between atoms: C_19  and  C_20
REMARK                            x       y       z     vdW  Elec       q    Type
REMARK                         _______ _______ _______ _____ _____    ______ ____
ROOT
ATOM      1  C   UNL     1       5.286   5.705  17.490  0.00  0.00    +0.000 A 
ATOM      2  N   UNL     1       4.612   6.758  17.819  0.00  0.00    +0.000 NA
ATOM      3  N   UNL     1       3.313   6.385  18.167  0.00  0.00    +0.000 N 
ATOM      4  C   UNL     1       2.993   5.044  17.970  0.00  0.00    +0.000 A 
ATOM      5  S   UNL     1       1.508   4.276  17.964  0.00  0.00    +0.000 S 
ATOM      6  S   UNL     1       4.457   4.179  17.542  0.00  0.00    +0.000 S 
ENDROOT
BRANCH   3   7
ATOM      7  C   UNL     1       2.488   7.414  18.705  0.00  0.00    +0.000 A 
ATOM      8  C   UNL     1       2.122   7.381  20.058  0.00  0.00    +0.000 A 
ATOM      9  C   UNL     1       1.275   8.353  20.603  0.00  0.00    +0.000 A 
ATOM     10  C   UNL     1       0.754   9.354  19.788  0.00  0.00    +0.000 A 
ATOM     11 CL   UNL     1      -0.346  10.505  20.439  0.00  0.00    +0.000 Cl
ATOM     12  C   UNL     1       1.105   9.412  18.444  0.00  0.00    +0.000 A 
ATOM     13  C   UNL     1       1.974   8.452  17.908  0.00  0.00    +0.000 A 
ENDBRANCH   3   7
BRANCH   1  14
ATOM     14  S   UNL     1       6.924   5.651  16.931  0.00  0.00    +0.000 S 
BRANCH  14  15
ATOM     15  C   UNL     1       7.395   7.390  16.861  0.00  0.00    +0.000 C 
BRANCH  15  17
ATOM     16  O   UNL     1       8.365   7.082  19.037  0.00  0.00    +0.000 OA
ATOM     17  C   UNL     1       8.144   7.846  18.096  0.00  0.00    +0.000 C 
ATOM     18  N   UNL     1       8.455   9.191  18.138  0.00  0.00    +0.000 N 
ATOM     19  H   UNL     1       8.500   9.706  17.264  0.00  0.00    +0.000 HD
BRANCH  18  20
ATOM     20  C   UNL     1       9.162   9.772  19.273  0.00  0.00    +0.000 C 
BRANCH  20  21
ATOM     21  C   UNL     1       9.545  11.240  19.055  0.00  0.00    +0.000 C 
ATOM     22  C   UNL     1       9.128  11.818  17.710  0.00  0.00    +0.000 C 
ATOM     23  C   UNL     1      10.149  12.911  17.507  0.00  0.00    +0.000 C 
ATOM     24  C   UNL     1      11.396  12.308  18.116  0.00  0.00    +0.000 C 
ATOM     25  O   UNL     1      10.975  11.401  19.145  0.00  0.00    +0.000 OA
ENDBRANCH  20  21
ENDBRANCH  18  20
ENDBRANCH  15  17
ENDBRANCH  14  15
ENDBRANCH   1  14
TORSDOF 6
ENDMDL
MODEL 4
REMARK VINA RESULT:      -6.9      3.343      5.128
REMARK  Name = 
REMARK  6 active torsions:
REMARK  status: ('A' for Active; 'I' for Inactive)
REMARK    1  A    between atoms: C_2  and  C_3
REMARK    2  A    between atoms: C_3  and  S_4
REMARK    3  A    between atoms: S_4  and  C_5
REMARK    4  A    between atoms: N_7  and  C_8
REMARK    5  A    between atoms: N_18  and  C_19
REMARK    6  A    between atoms: C_19  and  C_20
REMARK                            x       y       z     vdW  Elec       q    Type
REMARK                         _______ _______ _______ _____ _____    ______ ____
ROOT
ATOM      1  C   UNL     1       2.254   6.709  19.734  0.00  0.00    +0.000 A 
ATOM      2  N   UNL     1       1.608   7.381  20.628  0.00  0.00    +0.000 NA
ATOM      3  N   UNL     1       1.280   8.637  20.115  0.00  0.00    +0.000 N 
ATOM      4  C   UNL     1       1.806   8.936  18.861  0.00  0.00    +0.000 A 
ATOM      5  S   UNL     1       1.910  10.395  18.051  0.00  0.00    +0.000 S 
ATOM      6  S   UNL     1       2.554   7.489  18.212  0.00  0.00    +0.000 S 
ENDROOT
BRANCH   3   7
ATOM      7  C   UNL     1       0.428   9.442  20.924  0.00  0.00    +0.000 A 
ATOM      8  C   UNL     1      -0.238  10.540  20.360  0.00  0.00    +0.000 A 
ATOM      9  C   UNL     1      -1.044  11.376  21.140  0.00  0.00    +0.000 A 
ATOM     10  C   UNL     1      -1.167  11.143  22.507  0.00  0.00    +0.000 A 
ATOM     11 CL   UNL     1      -2.097  12.214  23.481  0.00  0.00    +0.000 Cl
ATOM     12  C   UNL     1      -0.521  10.058  23.090  0.00  0.00    +0.000 A 
ATOM     13  C   UNL     1       0.266   9.209  22.300  0.00  0.00    +0.000 A 
ENDBRANCH   3   7
BRANCH   1  14
ATOM     14  S   UNL     1       2.924   5.121  19.909  0.00  0.00    +0.000 S 
BRANCH  14  15
ATOM     15  C   UNL     1       2.553   4.338  18.328  0.00  0.00    +0.000 C 
BRANCH  15  17
ATOM     16  O   UNL     1       3.965   2.577  17.510  0.00  0.00    +0.000 OA
ATOM     17  C   UNL     1       3.785   3.788  17.640  0.00  0.00    +0.000 C 
ATOM     18  N   UNL     1       4.732   4.726  17.278  0.00  0.00    +0.000 N 
ATOM     19  H   UNL     1       4.437   5.691  17.158  0.00  0.00    +0.000 HD
BRANCH  18  20
ATOM     20  C   UNL     1       5.974   4.337  16.621  0.00  0.00    +0.000 C 
BRANCH  20  21
ATOM     21  C   UNL     1       7.193   5.109  17.138  0.00  0.00    +0.000 C 
ATOM     22  C   UNL     1       7.163   5.436  18.624  0.00  0.00    +0.000 C 
ATOM     23  C   UNL     1       8.024   6.674  18.692  0.00  0.00    +0.000 C 
ATOM     24  C   UNL     1       7.684   7.377  17.395  0.00  0.00    +0.000 C 
ATOM     25  O   UNL     1       7.318   6.367  16.444  0.00  0.00    +0.000 OA
ENDBRANCH  20  21
ENDBRANCH  18  20
ENDBRANCH  15  17
ENDBRANCH  14  15
ENDBRANCH   1  14
TORSDOF 6
ENDMDL
MODEL 5
REMARK VINA RESULT:      -6.6      3.577      6.597
REMARK  Name = 
REMARK  6 active torsions:
REMARK  status: ('A' for Active; 'I' for Inactive)
REMARK    1  A    between atoms: C_2  and  C_3
REMARK    2  A    between atoms: C_3  and  S_4
REMARK    3  A    between atoms: S_4  and  C_5
REMARK    4  A    between atoms: N_7  and  C_8
REMARK    5  A    between atoms: N_18  and  C_19
REMARK    6  A    between atoms: C_19  and  C_20
REMARK                            x       y       z     vdW  Elec       q    Type
REMARK                         _______ _______ _______ _____ _____    ______ ____
ROOT
ATOM      1  C   UNL     1       4.625   3.325  19.041  0.00  0.00    +0.000 A 
ATOM      2  N   UNL     1       5.471   4.290  19.192  0.00  0.00    +0.000 NA
ATOM      3  N   UNL     1       5.768   4.844  17.946  0.00  0.00    +0.000 N 
ATOM      4  C   UNL     1       5.222   4.188  16.845  0.00  0.00    +0.000 A 
ATOM      5  S   UNL     1       5.572   4.333  15.217  0.00  0.00    +0.000 S 
ATOM      6  S   UNL     1       4.110   2.962  17.423  0.00  0.00    +0.000 S 
ENDROOT
BRANCH   3   7
ATOM      7  C   UNL     1       6.567   6.023  17.958  0.00  0.00    +0.000 A 
ATOM      8  C   UNL     1       7.673   6.109  18.815  0.00  0.00    +0.000 A 
ATOM      9  C   UNL     1       8.449   7.272  18.881  0.00  0.00    +0.000 A 
ATOM     10  C   UNL     1       8.104   8.380  18.112  0.00  0.00    +0.000 A 
ATOM     11 CL   UNL     1       9.011   9.836  18.249  0.00  0.00    +0.000 Cl
ATOM     12  C   UNL     1       7.014   8.319  17.250  0.00  0.00    +0.000 A 
ATOM     13  C   UNL     1       6.255   7.144  17.169  0.00  0.00    +0.000 A 
ENDBRANCH   3   7
BRANCH   1  14
ATOM     14  S   UNL     1       3.993   2.292  20.281  0.00  0.00    +0.000 S 
BRANCH  14  15
ATOM     15  C   UNL     1       2.234   2.215  19.897  0.00  0.00    +0.000 C 
BRANCH  15  17
ATOM     16  O   UNL     1       0.321   3.666  19.893  0.00  0.00    +0.000 OA
ATOM     17  C   UNL     1       1.524   3.534  20.121  0.00  0.00    +0.000 C 
ATOM     18  N   UNL     1       2.335   4.591  20.483  0.00  0.00    +0.000 N 
ATOM     19  H   UNL     1       3.234   4.388  20.910  0.00  0.00    +0.000 HD
BRANCH  18  20
ATOM     20  C   UNL     1       1.789   5.922  20.717  0.00  0.00    +0.000 C 
BRANCH  20  21
ATOM     21  C   UNL     1       2.470   7.007  19.875  0.00  0.00    +0.000 C 
ATOM     22  C   UNL     1       1.606   8.224  19.576  0.00  0.00    +0.000 C 
ATOM     23  C   UNL     1       2.205   8.726  18.285  0.00  0.00    +0.000 C 
ATOM     24  C   UNL     1       2.590   7.441  17.585  0.00  0.00    +0.000 C 
ATOM     25  O   UNL     1       2.874   6.468  18.600  0.00  0.00    +0.000 OA
ENDBRANCH  20  21
ENDBRANCH  18  20
ENDBRANCH  15  17
ENDBRANCH  14  15
ENDBRANCH   1  14
TORSDOF 6
ENDMDL
MODEL 6
REMARK VINA RESULT:      -6.6      3.849      6.562
REMARK  Name = 
REMARK  6 active torsions:
REMARK  status: ('A' for Active; 'I' for Inactive)
REMARK    1  A    between atoms: C_2  and  C_3
REMARK    2  A    between atoms: C_3  and  S_4
REMARK    3  A    between atoms: S_4  and  C_5
REMARK    4  A    between atoms: N_7  and  C_8
REMARK    5  A    between atoms: N_18  and  C_19
REMARK    6  A    between atoms: C_19  and  C_20
REMARK                            x       y       z     vdW  Elec       q    Type
REMARK                         _______ _______ _______ _____ _____    ______ ____
ROOT
ATOM      1  C   UNL     1       4.094   3.239  19.377  0.00  0.00    +0.000 A 
ATOM      2  N   UNL     1       4.924   4.222  19.502  0.00  0.00    +0.000 NA
ATOM      3  N   UNL     1       5.386   4.600  18.241  0.00  0.00    +0.000 N 
ATOM      4  C   UNL     1       4.982   3.794  17.179  0.00  0.00    +0.000 A 
ATOM      5  S   UNL     1       5.542   3.714  15.607  0.00  0.00    +0.000 S 
ATOM      6  S   UNL     1       3.790   2.652  17.771  0.00  0.00    +0.000 S 
ENDROOT
BRANCH   3   7
ATOM      7  C   UNL     1       6.190   5.775  18.193  0.00  0.00    +0.000 A 
ATOM      8  C   UNL     1       5.797   6.858  17.393  0.00  0.00    +0.000 A 
ATOM      9  C   UNL     1       6.590   8.007  17.291  0.00  0.00    +0.000 A 
ATOM     10  C   UNL     1       7.807   8.072  17.963  0.00  0.00    +0.000 A 
ATOM     11 CL   UNL     1       8.818   9.451  17.778  0.00  0.00    +0.000 Cl
ATOM     12  C   UNL     1       8.217   7.013  18.766  0.00  0.00    +0.000 A 
ATOM     13  C   UNL     1       7.409   5.875  18.886  0.00  0.00    +0.000 A 
ENDBRANCH   3   7
BRANCH   1  14
ATOM     14  S   UNL     1       3.294   2.384  20.654  0.00  0.00    +0.000 S 
BRANCH  14  15
ATOM     15  C   UNL     1       2.260   3.650  21.414  0.00  0.00    +0.000 C 
BRANCH  15  17
ATOM     16  O   UNL     1       1.075   4.467  19.492  0.00  0.00    +0.000 OA
ATOM     17  C   UNL     1       1.826   4.721  20.435  0.00  0.00    +0.000 C 
ATOM     18  N   UNL     1       2.415   5.957  20.608  0.00  0.00    +0.000 N 
ATOM     19  H   UNL     1       2.798   6.189  21.520  0.00  0.00    +0.000 HD
BRANCH  18  20
ATOM     20  C   UNL     1       2.102   7.078  19.729  0.00  0.00    +0.000 C 
BRANCH  20  21
ATOM     21  C   UNL     1       1.632   8.323  20.489  0.00  0.00    +0.000 C 
ATOM     22  C   UNL     1       0.456   8.096  21.429  0.00  0.00    +0.000 C 
ATOM     23  C   UNL     1      -0.177   9.465  21.477  0.00  0.00    +0.000 C 
ATOM     24  C   UNL     1       0.033   9.970  20.066  0.00  0.00    +0.000 C 
ATOM     25  O   UNL     1       1.223   9.349  19.562  0.00  0.00    +0.000 OA
ENDBRANCH  20  21
ENDBRANCH  18  20
ENDBRANCH  15  17
ENDBRANCH  14  15
ENDBRANCH   1  14
TORSDOF 6
ENDMDL
MODEL 7
REMARK VINA RESULT:      -6.6      2.949      5.196
REMARK  Name = 
REMARK  6 active torsions:
REMARK  status: ('A' for Active; 'I' for Inactive)
REMARK    1  A    between atoms: C_2  and  C_3
REMARK    2  A    between atoms: C_3  and  S_4
REMARK    3  A    between atoms: S_4  and  C_5
REMARK    4  A    between atoms: N_7  and  C_8
REMARK    5  A    between atoms: N_18  and  C_19
REMARK    6  A    between atoms: C_19  and  C_20
REMARK                            x       y       z     vdW  Elec       q    Type
REMARK                         _______ _______ _______ _____ _____    ______ ____
ROOT
ATOM      1  C   UNL     1       5.254   5.110  19.136  0.00  0.00    +0.000 A 
ATOM      2  N   UNL     1       4.681   6.269  19.136  0.00  0.00    +0.000 NA
ATOM      3  N   UNL     1       3.320   6.112  18.876  0.00  0.00    +0.000 N 
ATOM      4  C   UNL     1       2.907   4.820  18.555  0.00  0.00    +0.000 A 
ATOM      5  S   UNL     1       1.472   4.276  17.896  0.00  0.00    +0.000 S 
ATOM      6  S   UNL     1       4.254   3.727  18.815  0.00  0.00    +0.000 S 
ENDROOT
BRANCH   3   7
ATOM      7  C   UNL     1       2.519   7.283  18.997  0.00  0.00    +0.000 A 
ATOM      8  C   UNL     1       1.914   7.592  20.224  0.00  0.00    +0.000 A 
ATOM      9  C   UNL     1       1.084   8.711  20.361  0.00  0.00    +0.000 A 
ATOM     10  C   UNL     1       0.822   9.519  19.258  0.00  0.00    +0.000 A 
ATOM     11 CL   UNL     1      -0.257  10.851  19.406  0.00  0.00    +0.000 Cl
ATOM     12  C   UNL     1       1.413   9.237  18.031  0.00  0.00    +0.000 A 
ATOM     13  C   UNL     1       2.263   8.130  17.905  0.00  0.00    +0.000 A 
ENDBRANCH   3   7
BRANCH   1  14
ATOM     14  S   UNL     1       6.941   4.782  19.354  0.00  0.00    +0.000 S 
BRANCH  14  15
ATOM     15  C   UNL     1       7.741   6.190  18.563  0.00  0.00    +0.000 C 
BRANCH  15  17
ATOM     16  O   UNL     1       7.106   7.620  16.741  0.00  0.00    +0.000 OA
ATOM     17  C   UNL     1       7.200   6.472  17.177  0.00  0.00    +0.000 C 
ATOM     18  N   UNL     1       6.721   5.373  16.492  0.00  0.00    +0.000 N 
ATOM     19  H   UNL     1       7.054   4.452  16.759  0.00  0.00    +0.000 HD
BRANCH  18  20
ATOM     20  C   UNL     1       6.158   5.498  15.153  0.00  0.00    +0.000 C 
BRANCH  20  21
ATOM     21  C   UNL     1       6.681   4.436  14.180  0.00  0.00    +0.000 C 
ATOM     22  C   UNL     1       7.406   4.986  12.959  0.00  0.00    +0.000 C 
ATOM     23  C   UNL     1       7.190   3.889  11.945  0.00  0.00    +0.000 C 
ATOM     24  C   UNL     1       5.797   3.404  12.281  0.00  0.00    +0.000 C 
ATOM     25  O   UNL     1       5.590   3.635  13.682  0.00  0.00    +0.000 OA
ENDBRANCH  20  21
ENDBRANCH  18  20
ENDBRANCH  15  17
ENDBRANCH  14  15
ENDBRANCH   1  14
TORSDOF 6
ENDMDL
MODEL 8
REMARK VINA RESULT:      -6.6      4.756      6.397
REMARK  Name = 
REMARK  6 active torsions:
REMARK  status: ('A' for Active; 'I' for Inactive)
REMARK    1  A    between atoms: C_2  and  C_3
REMARK    2  A    between atoms: C_3  and  S_4
REMARK    3  A    between atoms: S_4  and  C_5
REMARK    4  A    between atoms: N_7  and  C_8
REMARK    5  A    between atoms: N_18  and  C_19
REMARK    6  A    between atoms: C_19  and  C_20
REMARK                            x       y       z     vdW  Elec       q    Type
REMARK                         _______ _______ _______ _____ _____    ______ ____
ROOT
ATOM      1  C   UNL     1       1.891   6.727  20.277  0.00  0.00    +0.000 A 
ATOM      2  N   UNL     1       1.265   7.556  21.047  0.00  0.00    +0.000 NA
ATOM      3  N   UNL     1       1.076   8.762  20.372  0.00  0.00    +0.000 N 
ATOM      4  C   UNL     1       1.687   8.861  19.123  0.00  0.00    +0.000 A 
ATOM      5  S   UNL     1       1.960  10.195  18.156  0.00  0.00    +0.000 S 
ATOM      6  S   UNL     1       2.332   7.287  18.694  0.00  0.00    +0.000 S 
ENDROOT
BRANCH   3   7
ATOM      7  C   UNL     1       0.263   9.728  21.029  0.00  0.00    +0.000 A 
ATOM      8  C   UNL     1       0.048   9.636  22.412  0.00  0.00    +0.000 A 
ATOM      9  C   UNL     1      -0.784  10.545  23.077  0.00  0.00    +0.000 A 
ATOM     10  C   UNL     1      -1.440  11.539  22.358  0.00  0.00    +0.000 A 
ATOM     11 CL   UNL     1      -2.522  12.609  23.161  0.00  0.00    +0.000 Cl
ATOM     12  C   UNL     1      -1.240  11.655  20.986  0.00  0.00    +0.000 A 
ATOM     13  C   UNL     1      -0.387  10.759  20.328  0.00  0.00    +0.000 A 
ENDBRANCH   3   7
BRANCH   1  14
ATOM     14  S   UNL     1       2.406   5.122  20.677  0.00  0.00    +0.000 S 
BRANCH  14  15
ATOM     15  C   UNL     1       1.332   4.080  19.671  0.00  0.00    +0.000 C 
BRANCH  15  17
ATOM     16  O   UNL     1       1.104   3.827  17.294  0.00  0.00    +0.000 OA
ATOM     17  C   UNL     1       1.859   3.876  18.266  0.00  0.00    +0.000 C 
ATOM     18  N   UNL     1       3.215   3.637  18.169  0.00  0.00    +0.000 N 
ATOM     19  H   UNL     1       3.817   3.946  18.926  0.00  0.00    +0.000 HD
BRANCH  18  20
ATOM     20  C   UNL     1       3.856   3.407  16.880  0.00  0.00    +0.000 C 
BRANCH  20  21
ATOM     21  C   UNL     1       4.911   4.465  16.537  0.00  0.00    +0.000 C 
ATOM     22  C   UNL     1       5.498   4.355  15.137  0.00  0.00    +0.000 C 
ATOM     23  C   UNL     1       6.858   4.985  15.316  0.00  0.00    +0.000 C 
ATOM     24  C   UNL     1       7.237   4.549  16.714  0.00  0.00    +0.000 C 
ATOM     25  O   UNL     1       6.020   4.380  17.455  0.00  0.00    +0.000 OA
ENDBRANCH  20  21
ENDBRANCH  18  20
ENDBRANCH  15  17
ENDBRANCH  14  15
ENDBRANCH   1  14
TORSDOF 6
ENDMDL
MODEL 9
REMARK VINA RESULT:      -6.6      5.181      8.274
REMARK  Name = 
REMARK  6 active torsions:
REMARK  status: ('A' for Active; 'I' for Inactive)
REMARK    1  A    between atoms: C_2  and  C_3
REMARK    2  A    between atoms: C_3  and  S_4
REMARK    3  A    between atoms: S_4  and  C_5
REMARK    4  A    between atoms: N_7  and  C_8
REMARK    5  A    between atoms: N_18  and  C_19
REMARK    6  A    between atoms: C_19  and  C_20
REMARK                            x       y       z     vdW  Elec       q    Type
REMARK                         _______ _______ _______ _____ _____    ______ ____
ROOT
ATOM      1  C   UNL     1       2.163   6.856  19.973  0.00  0.00    +0.000 A 
ATOM      2  N   UNL     1       3.025   6.874  19.010  0.00  0.00    +0.000 NA
ATOM      3  N   UNL     1       3.470   5.575  18.763  0.00  0.00    +0.000 N 
ATOM      4  C   UNL     1       3.016   4.599  19.647  0.00  0.00    +0.000 A 
ATOM      5  S   UNL     1       3.536   3.029  19.886  0.00  0.00    +0.000 S 
ATOM      6  S   UNL     1       1.803   5.317  20.692  0.00  0.00    +0.000 S 
ENDROOT
BRANCH   3   7
ATOM      7  C   UNL     1       4.308   5.405  17.624  0.00  0.00    +0.000 A 
ATOM      8  C   UNL     1       4.241   4.219  16.878  0.00  0.00    +0.000 A 
ATOM      9  C   UNL     1       5.085   4.005  15.782  0.00  0.00    +0.000 A 
ATOM     10  C   UNL     1       6.033   4.964  15.439  0.00  0.00    +0.000 A 
ATOM     11 CL   UNL     1       7.121   4.670  14.139  0.00  0.00    +0.000 Cl
ATOM     12  C   UNL     1       6.117   6.151  16.160  0.00  0.00    +0.000 A 
ATOM     13  C   UNL     1       5.253   6.372  17.241  0.00  0.00    +0.000 A 
ENDBRANCH   3   7
BRANCH   1  14
ATOM     14  S   UNL     1       1.368   8.221  20.683  0.00  0.00    +0.000 S 
BRANCH  14  15
ATOM     15  C   UNL     1       1.220   9.375  19.307  0.00  0.00    +0.000 C 
BRANCH  15  17
ATOM     16  O   UNL     1      -0.693  10.289  20.435  0.00  0.00    +0.000 OA
ATOM     17  C   UNL     1       0.009  10.278  19.423  0.00  0.00    +0.000 C 
ATOM     18  N   UNL     1      -0.313  10.990  18.284  0.00  0.00    +0.000 N 
ATOM     19  H   UNL     1       0.415  11.156  17.595  0.00  0.00    +0.000 HD
BRANCH  18  20
ATOM     20  C   UNL     1      -1.462  11.886  18.247  0.00  0.00    +0.000 C 
BRANCH  20  21
ATOM     21  C   UNL     1      -2.630  11.330  17.426  0.00  0.00    +0.000 C 
ATOM     22  C   UNL     1      -2.794   9.817  17.483  0.00  0.00    +0.000 C 
ATOM     23  C   UNL     1      -3.475   9.524  16.169  0.00  0.00    +0.000 C 
ATOM     24  C   UNL     1      -2.839  10.536  15.240  0.00  0.00    +0.000 C 
ATOM     25  O   UNL     1      -2.469  11.672  16.034  0.00  0.00    +0.000 OA
ENDBRANCH  20  21
ENDBRANCH  18  20
ENDBRANCH  15  17
ENDBRANCH  14  15
ENDBRANCH   1  14
TORSDOF 6
ENDMDL
