MODEL 1
REMARK VINA RESULT:      -8.7      0.000      0.000
REMARK  Name = 
REMARK  7 active torsions:
REMARK  status: ('A' for Active; 'I' for Inactive)
REMARK    1  A    between atoms: C_1  and  C_2
REMARK    2  A    between atoms: C_2  and  C_3
REMARK    3  A    between atoms: C_5  and  C_6
REMARK    4  A    between atoms: C_10  and  C_11
REMARK    5  A    between atoms: C_13  and  C_14
REMARK    6  A    between atoms: N_19  and  C_20
REMARK    7  A    between atoms: C_20  and  C_21
REMARK                            x       y       z     vdW  Elec       q    Type
REMARK                         _______ _______ _______ _____ _____    ______ ____
ROOT
ATOM      1  C   UNL     1       5.351   5.622  17.020  0.00  0.00    +0.000 A 
ATOM      2  C   UNL     1       6.147   4.952  17.949  0.00  0.00    +0.000 A 
ATOM      3  C   UNL     1       7.287   4.306  17.507  0.00  0.00    +0.000 A 
ATOM      4  N   UNL     1       7.723   4.341  16.232  0.00  0.00    +0.000 NA
ATOM      5  C   UNL     1       6.992   5.026  15.336  0.00  0.00    +0.000 A 
ATOM      6  N   UNL     1       7.580   5.175  14.102  0.00  0.00    +0.000 N 
ATOM      7  C   UNL     1       5.791   5.632  15.687  0.00  0.00    +0.000 A 
ATOM      8  H   UNL     1       8.436   4.632  14.064  0.00  0.00    +0.000 HD
ENDROOT
BRANCH   1  12
ATOM      9  C   UNL     1       2.519   8.119  17.944  0.00  0.00    +0.000 A 
ATOM     10  N   UNL     1       2.067   6.974  18.398  0.00  0.00    +0.000 NA
ATOM     11  C   UNL     1       2.955   5.944  18.091  0.00  0.00    +0.000 A 
ATOM     12  C   UNL     1       4.123   6.339  17.435  0.00  0.00    +0.000 A 
ATOM     13  S   UNL     1       4.029   8.048  17.154  0.00  0.00    +0.000 S 
BRANCH  11  14
ATOM     14  C   UNL     1       2.612   4.582  18.498  0.00  0.00    +0.000 A 
ATOM     15  C   UNL     1       2.553   3.564  17.537  0.00  0.00    +0.000 A 
ATOM     16  C   UNL     1       2.185   2.266  17.900  0.00  0.00    +0.000 A 
ATOM     17  C   UNL     1       1.855   1.975  19.224  0.00  0.00    +0.000 A 
ATOM     18  C   UNL     1       1.924   2.973  20.201  0.00  0.00    +0.000 A 
ATOM     19  C   UNL     1       1.519   2.707  21.620  0.00  0.00    +0.000 C 
ATOM     20  C   UNL     1       2.336   4.261  19.835  0.00  0.00    +0.000 A 
ENDBRANCH  11  14
BRANCH   9  22
ATOM     21  C   UNL     1       0.963   9.467  19.352  0.00  0.00    +0.000 C 
ATOM     22  C   UNL     1       1.807   9.428  18.088  0.00  0.00    +0.000 C 
ENDBRANCH   9  22
ENDBRANCH   1  12
BRANCH   6  23
ATOM     23  C   UNL     1       6.825   5.240  12.869  0.00  0.00    +0.000 C 
BRANCH  23  24
ATOM     24  C   UNL     1       6.643   3.862  12.263  0.00  0.00    +0.000 A 
ATOM     25  C   UNL     1       5.353   3.323  12.143  0.00  0.00    +0.000 A 
ATOM     26  C   UNL     1       5.152   2.071  11.554  0.00  0.00    +0.000 A 
ATOM     27  C   UNL     1       6.239   1.348  11.066  0.00  0.00    +0.000 A 
ATOM     28  C   UNL     1       7.522   1.873  11.163  0.00  0.00    +0.000 A 
ATOM     29  C   UNL     1       7.724   3.125  11.748  0.00  0.00    +0.000 A 
ENDBRANCH  23  24
ENDBRANCH   6  23
TORSDOF 5
ENDMDL
MODEL 2
REMARK VINA RESULT:      -8.7      2.181      7.866
REMARK  Name = 
REMARK  7 active torsions:
REMARK  status: ('A' for Active; 'I' for Inactive)
REMARK    1  A    between atoms: C_1  and  C_2
REMARK    2  A    between atoms: C_2  and  C_3
REMARK    3  A    between atoms: C_5  and  C_6
REMARK    4  A    between atoms: C_10  and  C_11
REMARK    5  A    between atoms: C_13  and  C_14
REMARK    6  A    between atoms: N_19  and  C_20
REMARK    7  A    between atoms: C_20  and  C_21
REMARK                            x       y       z     vdW  Elec       q    Type
REMARK                         _______ _______ _______ _____ _____    ______ ____
ROOT
ATOM      1  C   UNL     1       4.516   3.890  16.832  0.00  0.00    +0.000 A 
ATOM      2  C   UNL     1       4.079   2.571  16.957  0.00  0.00    +0.000 A 
ATOM      3  C   UNL     1       3.176   2.260  17.957  0.00  0.00    +0.000 A 
ATOM      4  N   UNL     1       2.629   3.173  18.785  0.00  0.00    +0.000 NA
ATOM      5  C   UNL     1       3.004   4.455  18.642  0.00  0.00    +0.000 A 
ATOM      6  N   UNL     1       2.280   5.356  19.388  0.00  0.00    +0.000 N 
ATOM      7  C   UNL     1       3.967   4.834  17.714  0.00  0.00    +0.000 A 
ATOM      8  H   UNL     1       1.650   4.857  20.008  0.00  0.00    +0.000 HD
ENDROOT
BRANCH   1  12
ATOM      9  C   UNL     1       6.664   4.431  13.637  0.00  0.00    +0.000 A 
ATOM     10  N   UNL     1       7.334   5.078  14.562  0.00  0.00    +0.000 NA
ATOM     11  C   UNL     1       6.657   5.030  15.778  0.00  0.00    +0.000 A 
ATOM     12  C   UNL     1       5.475   4.285  15.775  0.00  0.00    +0.000 A 
ATOM     13  S   UNL     1       5.211   3.708  14.160  0.00  0.00    +0.000 S 
BRANCH  11  14
ATOM     14  C   UNL     1       7.241   5.716  16.930  0.00  0.00    +0.000 A 
ATOM     15  C   UNL     1       7.529   4.993  18.096  0.00  0.00    +0.000 A 
ATOM     16  C   UNL     1       8.046   5.638  19.222  0.00  0.00    +0.000 A 
ATOM     17  C   UNL     1       8.265   7.016  19.201  0.00  0.00    +0.000 A 
ATOM     18  C   UNL     1       8.000   7.752  18.043  0.00  0.00    +0.000 A 
ATOM     19  C   UNL     1       8.169   9.242  18.007  0.00  0.00    +0.000 C 
ATOM     20  C   UNL     1       7.522   7.088  16.904  0.00  0.00    +0.000 A 
ENDBRANCH  11  14
BRANCH   9  22
ATOM     21  C   UNL     1       6.714   2.944  11.636  0.00  0.00    +0.000 C 
ATOM     22  C   UNL     1       7.099   4.298  12.212  0.00  0.00    +0.000 C 
ENDBRANCH   9  22
ENDBRANCH   1  12
BRANCH   6  23
ATOM     23  C   UNL     1       2.846   6.576  19.921  0.00  0.00    +0.000 C 
BRANCH  23  24
ATOM     24  C   UNL     1       2.060   7.790  19.468  0.00  0.00    +0.000 A 
ATOM     25  C   UNL     1       1.308   8.517  20.404  0.00  0.00    +0.000 A 
ATOM     26  C   UNL     1       0.603   9.663  20.021  0.00  0.00    +0.000 A 
ATOM     27  C   UNL     1       0.654  10.104  18.700  0.00  0.00    +0.000 A 
ATOM     28  C   UNL     1       1.407   9.406  17.764  0.00  0.00    +0.000 A 
ATOM     29  C   UNL     1       2.114   8.262  18.145  0.00  0.00    +0.000 A 
ENDBRANCH  23  24
ENDBRANCH   6  23
TORSDOF 5
ENDMDL
MODEL 3
REMARK VINA RESULT:      -8.6      5.339      8.812
REMARK  Name = 
REMARK  7 active torsions:
REMARK  status: ('A' for Active; 'I' for Inactive)
REMARK    1  A    between atoms: C_1  and  C_2
REMARK    2  A    between atoms: C_2  and  C_3
REMARK    3  A    between atoms: C_5  and  C_6
REMARK    4  A    between atoms: C_10  and  C_11
REMARK    5  A    between atoms: C_13  and  C_14
REMARK    6  A    between atoms: N_19  and  C_20
REMARK    7  A    between atoms: C_20  and  C_21
REMARK                            x       y       z     vdW  Elec       q    Type
REMARK                         _______ _______ _______ _____ _____    ______ ____
ROOT
ATOM      1  C   UNL     1       0.202  10.731  20.716  0.00  0.00    +0.000 A 
ATOM      2  C   UNL     1      -0.449  10.635  21.945  0.00  0.00    +0.000 A 
ATOM      3  C   UNL     1      -0.322   9.469  22.677  0.00  0.00    +0.000 A 
ATOM      4  N   UNL     1       0.458   8.432  22.310  0.00  0.00    +0.000 NA
ATOM      5  C   UNL     1       1.131   8.533  21.151  0.00  0.00    +0.000 A 
ATOM      6  N   UNL     1       2.042   7.529  20.922  0.00  0.00    +0.000 N 
ATOM      7  C   UNL     1       0.990   9.639  20.320  0.00  0.00    +0.000 A 
ATOM      8  H   UNL     1       1.957   6.820  21.643  0.00  0.00    +0.000 HD
ENDROOT
BRANCH   1  12
ATOM      9  C   UNL     1       0.421  14.242  19.063  0.00  0.00    +0.000 A 
ATOM     10  N   UNL     1      -0.549  13.659  18.398  0.00  0.00    +0.000 NA
ATOM     11  C   UNL     1      -0.720  12.348  18.837  0.00  0.00    +0.000 A 
ATOM     12  C   UNL     1       0.110  11.958  19.891  0.00  0.00    +0.000 A 
ATOM     13  S   UNL     1       1.167  13.283  20.259  0.00  0.00    +0.000 S 
BRANCH  11  14
ATOM     14  C   UNL     1      -1.748  11.526  18.198  0.00  0.00    +0.000 A 
ATOM     15  C   UNL     1      -1.369  10.432  17.409  0.00  0.00    +0.000 A 
ATOM     16  C   UNL     1      -2.334   9.661  16.755  0.00  0.00    +0.000 A 
ATOM     17  C   UNL     1      -3.686   9.985  16.869  0.00  0.00    +0.000 A 
ATOM     18  C   UNL     1      -4.085  11.063  17.665  0.00  0.00    +0.000 A 
ATOM     19  C   UNL     1      -5.524  11.474  17.761  0.00  0.00    +0.000 C 
ATOM     20  C   UNL     1      -3.113  11.804  18.352  0.00  0.00    +0.000 A 
ENDBRANCH  11  14
BRANCH   9  22
ATOM     21  C   UNL     1      -0.280  16.557  18.452  0.00  0.00    +0.000 C 
ATOM     22  C   UNL     1       0.879  15.648  18.833  0.00  0.00    +0.000 C 
ENDBRANCH   9  22
ENDBRANCH   1  12
BRANCH   6  23
ATOM     23  C   UNL     1       2.364   7.040  19.599  0.00  0.00    +0.000 C 
BRANCH  23  24
ATOM     24  C   UNL     1       1.963   5.587  19.438  0.00  0.00    +0.000 A 
ATOM     25  C   UNL     1       1.470   4.878  20.544  0.00  0.00    +0.000 A 
ATOM     26  C   UNL     1       1.058   3.547  20.416  0.00  0.00    +0.000 A 
ATOM     27  C   UNL     1       1.121   2.915  19.177  0.00  0.00    +0.000 A 
ATOM     28  C   UNL     1       1.591   3.606  18.067  0.00  0.00    +0.000 A 
ATOM     29  C   UNL     1       2.001   4.936  18.192  0.00  0.00    +0.000 A 
ENDBRANCH  23  24
ENDBRANCH   6  23
TORSDOF 5
ENDMDL
MODEL 4
REMARK VINA RESULT:      -8.5      5.284      8.880
REMARK  Name = 
REMARK  7 active torsions:
REMARK  status: ('A' for Active; 'I' for Inactive)
REMARK    1  A    between atoms: C_1  and  C_2
REMARK    2  A    between atoms: C_2  and  C_3
REMARK    3  A    between atoms: C_5  and  C_6
REMARK    4  A    between atoms: C_10  and  C_11
REMARK    5  A    between atoms: C_13  and  C_14
REMARK    6  A    between atoms: N_19  and  C_20
REMARK    7  A    between atoms: C_20  and  C_21
REMARK                            x       y       z     vdW  Elec       q    Type
REMARK                         _______ _______ _______ _____ _____    ______ ____
ROOT
ATOM      1  C   UNL     1       0.263  10.735  20.652  0.00  0.00    +0.000 A 
ATOM      2  C   UNL     1      -0.513  10.652  21.808  0.00  0.00    +0.000 A 
ATOM      3  C   UNL     1      -0.519   9.470  22.524  0.00  0.00    +0.000 A 
ATOM      4  N   UNL     1       0.240   8.400  22.213  0.00  0.00    +0.000 NA
ATOM      5  C   UNL     1       1.031   8.484  21.130  0.00  0.00    +0.000 A 
ATOM      6  N   UNL     1       1.910   7.438  20.972  0.00  0.00    +0.000 N 
ATOM      7  C   UNL     1       1.031   9.610  20.314  0.00  0.00    +0.000 A 
ATOM      8  H   UNL     1       1.716   6.723  21.666  0.00  0.00    +0.000 HD
ENDROOT
BRANCH   1  12
ATOM      9  C   UNL     1       0.975  14.177  18.992  0.00  0.00    +0.000 A 
ATOM     10  N   UNL     1      -0.169  13.818  18.458  0.00  0.00    +0.000 NA
ATOM     11  C   UNL     1      -0.544  12.556  18.912  0.00  0.00    +0.000 A 
ATOM     12  C   UNL     1       0.317  11.978  19.849  0.00  0.00    +0.000 A 
ATOM     13  S   UNL     1       1.657  13.054  20.080  0.00  0.00    +0.000 S 
BRANCH  11  14
ATOM     14  C   UNL     1      -1.788  11.974  18.410  0.00  0.00    +0.000 A 
ATOM     15  C   UNL     1      -2.974  12.136  19.139  0.00  0.00    +0.000 A 
ATOM     16  C   UNL     1      -4.163  11.550  18.698  0.00  0.00    +0.000 A 
ATOM     17  C   UNL     1      -4.178  10.783  17.533  0.00  0.00    +0.000 A 
ATOM     18  C   UNL     1      -3.009  10.623  16.783  0.00  0.00    +0.000 A 
ATOM     19  C   UNL     1      -2.977   9.756  15.559  0.00  0.00    +0.000 C 
ATOM     20  C   UNL     1      -1.830  11.250  17.211  0.00  0.00    +0.000 A 
ENDBRANCH  11  14
BRANCH   9  22
ATOM     21  C   UNL     1       2.988  15.242  17.975  0.00  0.00    +0.000 C 
ATOM     22  C   UNL     1       1.675  15.469  18.709  0.00  0.00    +0.000 C 
ENDBRANCH   9  22
ENDBRANCH   1  12
BRANCH   6  23
ATOM     23  C   UNL     1       2.338   6.954  19.677  0.00  0.00    +0.000 C 
BRANCH  23  24
ATOM     24  C   UNL     1       1.889   5.525  19.449  0.00  0.00    +0.000 A 
ATOM     25  C   UNL     1       2.030   4.949  18.177  0.00  0.00    +0.000 A 
ATOM     26  C   UNL     1       1.659   3.621  17.946  0.00  0.00    +0.000 A 
ATOM     27  C   UNL     1       1.155   2.847  18.990  0.00  0.00    +0.000 A 
ATOM     28  C   UNL     1       1.022   3.396  20.259  0.00  0.00    +0.000 A 
ATOM     29  C   UNL     1       1.395   4.722  20.492  0.00  0.00    +0.000 A 
ENDBRANCH  23  24
ENDBRANCH   6  23
TORSDOF 5
ENDMDL
MODEL 5
REMARK VINA RESULT:      -8.3      5.295      8.789
REMARK  Name = 
REMARK  7 active torsions:
REMARK  status: ('A' for Active; 'I' for Inactive)
REMARK    1  A    between atoms: C_1  and  C_2
REMARK    2  A    between atoms: C_2  and  C_3
REMARK    3  A    between atoms: C_5  and  C_6
REMARK    4  A    between atoms: C_10  and  C_11
REMARK    5  A    between atoms: C_13  and  C_14
REMARK    6  A    between atoms: N_19  and  C_20
REMARK    7  A    between atoms: C_20  and  C_21
REMARK                            x       y       z     vdW  Elec       q    Type
REMARK                         _______ _______ _______ _____ _____    ______ ____
ROOT
ATOM      1  C   UNL     1       0.278  10.613  20.683  0.00  0.00    +0.000 A 
ATOM      2  C   UNL     1      -0.409  10.538  21.894  0.00  0.00    +0.000 A 
ATOM      3  C   UNL     1      -0.339   9.369  22.629  0.00  0.00    +0.000 A 
ATOM      4  N   UNL     1       0.416   8.308  22.281  0.00  0.00    +0.000 NA
ATOM      5  C   UNL     1       1.123   8.386  21.141  0.00  0.00    +0.000 A 
ATOM      6  N   UNL     1       2.008   7.353  20.937  0.00  0.00    +0.000 N 
ATOM      7  C   UNL     1       1.041   9.496  20.308  0.00  0.00    +0.000 A 
ATOM      8  H   UNL     1       1.879   6.647  21.655  0.00  0.00    +0.000 HD
ENDROOT
BRANCH   1  12
ATOM      9  C   UNL     1       0.723  14.085  18.991  0.00  0.00    +0.000 A 
ATOM     10  N   UNL     1      -0.344  13.599  18.401  0.00  0.00    +0.000 NA
ATOM     11  C   UNL     1      -0.611  12.311  18.861  0.00  0.00    +0.000 A 
ATOM     12  C   UNL     1       0.249  11.842  19.857  0.00  0.00    +0.000 A 
ATOM     13  S   UNL     1       1.454  13.058  20.140  0.00  0.00    +0.000 S 
BRANCH  11  14
ATOM     14  C   UNL     1      -1.756  11.593  18.302  0.00  0.00    +0.000 A 
ATOM     15  C   UNL     1      -1.542  10.510  17.438  0.00  0.00    +0.000 A 
ATOM     16  C   UNL     1      -2.622   9.840  16.860  0.00  0.00    +0.000 A 
ATOM     17  C   UNL     1      -3.928  10.254  17.124  0.00  0.00    +0.000 A 
ATOM     18  C   UNL     1      -4.163  11.322  17.996  0.00  0.00    +0.000 A 
ATOM     19  C   UNL     1      -5.550  11.830  18.255  0.00  0.00    +0.000 C 
ATOM     20  C   UNL     1      -3.074  11.961  18.605  0.00  0.00    +0.000 A 
ENDBRANCH  11  14
BRANCH   9  22
ATOM     21  C   UNL     1       2.329  15.827  19.770  0.00  0.00    +0.000 C 
ATOM     22  C   UNL     1       1.299  15.439  18.720  0.00  0.00    +0.000 C 
ENDBRANCH   9  22
ENDBRANCH   1  12
BRANCH   6  23
ATOM     23  C   UNL     1       2.349   6.854  19.622  0.00  0.00    +0.000 C 
BRANCH  23  24
ATOM     24  C   UNL     1       1.886   5.422  19.441  0.00  0.00    +0.000 A 
ATOM     25  C   UNL     1       2.000   4.810  18.183  0.00  0.00    +0.000 A 
ATOM     26  C   UNL     1       1.616   3.479  17.996  0.00  0.00    +0.000 A 
ATOM     27  C   UNL     1       1.125   2.738  19.069  0.00  0.00    +0.000 A 
ATOM     28  C   UNL     1       1.020   3.322  20.325  0.00  0.00    +0.000 A 
ATOM     29  C   UNL     1       1.406   4.652  20.515  0.00  0.00    +0.000 A 
ENDBRANCH  23  24
ENDBRANCH   6  23
TORSDOF 5
ENDMDL
MODEL 6
REMARK VINA RESULT:      -8.3      3.891      6.892
REMARK  Name = 
REMARK  7 active torsions:
REMARK  status: ('A' for Active; 'I' for Inactive)
REMARK    1  A    between atoms: C_1  and  C_2
REMARK    2  A    between atoms: C_2  and  C_3
REMARK    3  A    between atoms: C_5  and  C_6
REMARK    4  A    between atoms: C_10  and  C_11
REMARK    5  A    between atoms: C_13  and  C_14
REMARK    6  A    between atoms: N_19  and  C_20
REMARK    7  A    between atoms: C_20  and  C_21
REMARK                            x       y       z     vdW  Elec       q    Type
REMARK                         _______ _______ _______ _____ _____    ______ ____
ROOT
ATOM      1  C   UNL     1       5.473   5.505  17.915  0.00  0.00    +0.000 A 
ATOM      2  C   UNL     1       5.777   4.752  16.781  0.00  0.00    +0.000 A 
ATOM      3  C   UNL     1       6.722   5.234  15.894  0.00  0.00    +0.000 A 
ATOM      4  N   UNL     1       7.429   6.365  16.091  0.00  0.00    +0.000 NA
ATOM      5  C   UNL     1       7.181   7.074  17.205  0.00  0.00    +0.000 A 
ATOM      6  N   UNL     1       8.055   8.111  17.437  0.00  0.00    +0.000 N 
ATOM      7  C   UNL     1       6.189   6.697  18.104  0.00  0.00    +0.000 A 
ATOM      8  H   UNL     1       8.677   8.216  16.643  0.00  0.00    +0.000 HD
ENDROOT
BRANCH   1  12
ATOM      9  C   UNL     1       3.225   3.623  20.468  0.00  0.00    +0.000 A 
ATOM     10  N   UNL     1       2.569   4.740  20.258  0.00  0.00    +0.000 NA
ATOM     11  C   UNL     1       3.281   5.569  19.393  0.00  0.00    +0.000 A 
ATOM     12  C   UNL     1       4.477   5.036  18.905  0.00  0.00    +0.000 A 
ATOM     13  S   UNL     1       4.707   3.479  19.636  0.00  0.00    +0.000 S 
BRANCH  11  14
ATOM     14  C   UNL     1       2.717   6.874  19.053  0.00  0.00    +0.000 A 
ATOM     15  C   UNL     1       2.935   7.415  17.779  0.00  0.00    +0.000 A 
ATOM     16  C   UNL     1       2.442   8.680  17.451  0.00  0.00    +0.000 A 
ATOM     17  C   UNL     1       1.739   9.426  18.397  0.00  0.00    +0.000 A 
ATOM     18  C   UNL     1       1.496   8.897  19.668  0.00  0.00    +0.000 A 
ATOM     19  C   UNL     1       0.796   9.697  20.727  0.00  0.00    +0.000 C 
ATOM     20  C   UNL     1       1.958   7.610  19.974  0.00  0.00    +0.000 A 
ENDBRANCH  11  14
BRANCH   9  22
ATOM     21  C   UNL     1       1.266   2.639  21.656  0.00  0.00    +0.000 C 
ATOM     22  C   UNL     1       2.753   2.518  21.358  0.00  0.00    +0.000 C 
ENDBRANCH   9  22
ENDBRANCH   1  12
BRANCH   6  23
ATOM     23  C   UNL     1       7.666   9.340  18.095  0.00  0.00    +0.000 C 
BRANCH  23  24
ATOM     24  C   UNL     1       8.879  10.133  18.537  0.00  0.00    +0.000 A 
ATOM     25  C   UNL     1       9.684  10.763  17.575  0.00  0.00    +0.000 A 
ATOM     26  C   UNL     1      10.787  11.532  17.957  0.00  0.00    +0.000 A 
ATOM     27  C   UNL     1      11.091  11.693  19.307  0.00  0.00    +0.000 A 
ATOM     28  C   UNL     1      10.297  11.090  20.274  0.00  0.00    +0.000 A 
ATOM     29  C   UNL     1       9.192  10.323  19.895  0.00  0.00    +0.000 A 
ENDBRANCH  23  24
ENDBRANCH   6  23
TORSDOF 5
ENDMDL
MODEL 7
REMARK VINA RESULT:      -8.2      2.141      8.086
REMARK  Name = 
REMARK  7 active torsions:
REMARK  status: ('A' for Active; 'I' for Inactive)
REMARK    1  A    between atoms: C_1  and  C_2
REMARK    2  A    between atoms: C_2  and  C_3
REMARK    3  A    between atoms: C_5  and  C_6
REMARK    4  A    between atoms: C_10  and  C_11
REMARK    5  A    between atoms: C_13  and  C_14
REMARK    6  A    between atoms: N_19  and  C_20
REMARK    7  A    between atoms: C_20  and  C_21
REMARK                            x       y       z     vdW  Elec       q    Type
REMARK                         _______ _______ _______ _____ _____    ______ ____
ROOT
ATOM      1  C   UNL     1       4.327   4.163  16.777  0.00  0.00    +0.000 A 
ATOM      2  C   UNL     1       3.808   2.879  16.948  0.00  0.00    +0.000 A 
ATOM      3  C   UNL     1       2.844   2.673  17.917  0.00  0.00    +0.000 A 
ATOM      4  N   UNL     1       2.315   3.657  18.671  0.00  0.00    +0.000 NA
ATOM      5  C   UNL     1       2.770   4.907  18.482  0.00  0.00    +0.000 A 
ATOM      6  N   UNL     1       2.067   5.885  19.147  0.00  0.00    +0.000 N 
ATOM      7  C   UNL     1       3.795   5.181  17.584  0.00  0.00    +0.000 A 
ATOM      8  H   UNL     1       1.382   5.455  19.760  0.00  0.00    +0.000 HD
ENDROOT
BRANCH   1  12
ATOM      9  C   UNL     1       6.622   4.444  13.652  0.00  0.00    +0.000 A 
ATOM     10  N   UNL     1       7.320   5.039  14.591  0.00  0.00    +0.000 NA
ATOM     11  C   UNL     1       6.601   5.075  15.784  0.00  0.00    +0.000 A 
ATOM     12  C   UNL     1       5.354   4.447  15.749  0.00  0.00    +0.000 A 
ATOM     13  S   UNL     1       5.089   3.873  14.134  0.00  0.00    +0.000 S 
BRANCH  11  14
ATOM     14  C   UNL     1       7.210   5.720  16.947  0.00  0.00    +0.000 A 
ATOM     15  C   UNL     1       7.486   4.965  18.095  0.00  0.00    +0.000 A 
ATOM     16  C   UNL     1       8.026   5.572  19.231  0.00  0.00    +0.000 A 
ATOM     17  C   UNL     1       8.282   6.944  19.239  0.00  0.00    +0.000 A 
ATOM     18  C   UNL     1       8.030   7.711  18.098  0.00  0.00    +0.000 A 
ATOM     19  C   UNL     1       8.237   9.197  18.093  0.00  0.00    +0.000 C 
ATOM     20  C   UNL     1       7.527   7.086  16.949  0.00  0.00    +0.000 A 
ENDBRANCH  11  14
BRANCH   9  22
ATOM     21  C   UNL     1       7.772   5.494  11.705  0.00  0.00    +0.000 C 
ATOM     22  C   UNL     1       7.089   4.247  12.245  0.00  0.00    +0.000 C 
ENDBRANCH   9  22
ENDBRANCH   1  12
BRANCH   6  23
ATOM     23  C   UNL     1       2.680   7.098  19.645  0.00  0.00    +0.000 C 
BRANCH  23  24
ATOM     24  C   UNL     1       1.707   8.260  19.607  0.00  0.00    +0.000 A 
ATOM     25  C   UNL     1       1.499   8.950  18.403  0.00  0.00    +0.000 A 
ATOM     26  C   UNL     1       0.580  10.001  18.330  0.00  0.00    +0.000 A 
ATOM     27  C   UNL     1      -0.152  10.367  19.458  0.00  0.00    +0.000 A 
ATOM     28  C   UNL     1       0.030   9.685  20.654  0.00  0.00    +0.000 A 
ATOM     29  C   UNL     1       0.945   8.631  20.729  0.00  0.00    +0.000 A 
ENDBRANCH  23  24
ENDBRANCH   6  23
TORSDOF 5
ENDMDL
MODEL 8
REMARK VINA RESULT:      -8.2      3.374      9.670
REMARK  Name = 
REMARK  7 active torsions:
REMARK  status: ('A' for Active; 'I' for Inactive)
REMARK    1  A    between atoms: C_1  and  C_2
REMARK    2  A    between atoms: C_2  and  C_3
REMARK    3  A    between atoms: C_5  and  C_6
REMARK    4  A    between atoms: C_10  and  C_11
REMARK    5  A    between atoms: C_13  and  C_14
REMARK    6  A    between atoms: N_19  and  C_20
REMARK    7  A    between atoms: C_20  and  C_21
REMARK                            x       y       z     vdW  Elec       q    Type
REMARK                         _______ _______ _______ _____ _____    ______ ____
ROOT
ATOM      1  C   UNL     1       2.195   7.370  19.138  0.00  0.00    +0.000 A 
ATOM      2  C   UNL     1       2.357   7.891  17.854  0.00  0.00    +0.000 A 
ATOM      3  C   UNL     1       1.948   9.188  17.604  0.00  0.00    +0.000 A 
ATOM      4  N   UNL     1       1.460  10.017  18.549  0.00  0.00    +0.000 NA
ATOM      5  C   UNL     1       1.346   9.543  19.801  0.00  0.00    +0.000 A 
ATOM      6  N   UNL     1       1.017  10.485  20.748  0.00  0.00    +0.000 N 
ATOM      7  C   UNL     1       1.660   8.226  20.114  0.00  0.00    +0.000 A 
ATOM      8  H   UNL     1       0.810  11.368  20.293  0.00  0.00    +0.000 HD
ENDROOT
BRANCH   1  12
ATOM      9  C   UNL     1       2.834   3.814  20.570  0.00  0.00    +0.000 A 
ATOM     10  N   UNL     1       3.792   3.955  19.684  0.00  0.00    +0.000 NA
ATOM     11  C   UNL     1       3.669   5.178  19.026  0.00  0.00    +0.000 A 
ATOM     12  C   UNL     1       2.623   5.992  19.468  0.00  0.00    +0.000 A 
ATOM     13  S   UNL     1       1.753   5.126  20.694  0.00  0.00    +0.000 S 
BRANCH  11  14
ATOM     14  C   UNL     1       4.639   5.509  17.983  0.00  0.00    +0.000 A 
ATOM     15  C   UNL     1       4.562   4.873  16.736  0.00  0.00    +0.000 A 
ATOM     16  C   UNL     1       5.505   5.144  15.742  0.00  0.00    +0.000 A 
ATOM     17  C   UNL     1       6.544   6.041  15.987  0.00  0.00    +0.000 A 
ATOM     18  C   UNL     1       6.629   6.699  17.218  0.00  0.00    +0.000 A 
ATOM     19  C   UNL     1       7.767   7.623  17.535  0.00  0.00    +0.000 C 
ATOM     20  C   UNL     1       5.654   6.452  18.194  0.00  0.00    +0.000 A 
ENDBRANCH  11  14
BRANCH   9  22
ATOM     21  C   UNL     1       1.223   2.480  21.928  0.00  0.00    +0.000 C 
ATOM     22  C   UNL     1       2.658   2.611  21.443  0.00  0.00    +0.000 C 
ENDBRANCH   9  22
ENDBRANCH   1  12
BRANCH   6  23
ATOM     23  C   UNL     1       0.223  10.185  21.920  0.00  0.00    +0.000 C 
BRANCH  23  24
ATOM     24  C   UNL     1      -0.956  11.130  22.042  0.00  0.00    +0.000 A 
ATOM     25  C   UNL     1      -1.397  11.837  20.912  0.00  0.00    +0.000 A 
ATOM     26  C   UNL     1      -2.505  12.687  20.987  0.00  0.00    +0.000 A 
ATOM     27  C   UNL     1      -3.194  12.829  22.189  0.00  0.00    +0.000 A 
ATOM     28  C   UNL     1      -2.781  12.126  23.313  0.00  0.00    +0.000 A 
ATOM     29  C   UNL     1      -1.676  11.273  23.240  0.00  0.00    +0.000 A 
ENDBRANCH  23  24
ENDBRANCH   6  23
TORSDOF 5
ENDMDL
MODEL 9
REMARK VINA RESULT:      -8.2      4.380      7.213
REMARK  Name = 
REMARK  7 active torsions:
REMARK  status: ('A' for Active; 'I' for Inactive)
REMARK    1  A    between atoms: C_1  and  C_2
REMARK    2  A    between atoms: C_2  and  C_3
REMARK    3  A    between atoms: C_5  and  C_6
REMARK    4  A    between atoms: C_10  and  C_11
REMARK    5  A    between atoms: C_13  and  C_14
REMARK    6  A    between atoms: N_19  and  C_20
REMARK    7  A    between atoms: C_20  and  C_21
REMARK                            x       y       z     vdW  Elec       q    Type
REMARK                         _______ _______ _______ _____ _____    ______ ____
ROOT
ATOM      1  C   UNL     1       7.195   5.569  17.196  0.00  0.00    +0.000 A 
ATOM      2  C   UNL     1       7.569   4.778  18.283  0.00  0.00    +0.000 A 
ATOM      3  C   UNL     1       8.221   5.373  19.347  0.00  0.00    +0.000 A 
ATOM      4  N   UNL     1       8.461   6.696  19.436  0.00  0.00    +0.000 NA
ATOM      5  C   UNL     1       8.061   7.477  18.419  0.00  0.00    +0.000 A 
ATOM      6  N   UNL     1       8.169   8.829  18.650  0.00  0.00    +0.000 N 
ATOM      7  C   UNL     1       7.471   6.943  17.278  0.00  0.00    +0.000 A 
ATOM      8  H   UNL     1       8.646   8.987  19.531  0.00  0.00    +0.000 HD
ENDROOT
BRANCH   1  12
ATOM      9  C   UNL     1       5.962   4.207  13.770  0.00  0.00    +0.000 A 
ATOM     10  N   UNL     1       4.871   4.216  14.499  0.00  0.00    +0.000 NA
ATOM     11  C   UNL     1       5.155   4.632  15.798  0.00  0.00    +0.000 A 
ATOM     12  C   UNL     1       6.485   4.991  16.032  0.00  0.00    +0.000 A 
ATOM     13  S   UNL     1       7.380   4.714  14.572  0.00  0.00    +0.000 S 
BRANCH  11  14
ATOM     14  C   UNL     1       4.063   4.688  16.768  0.00  0.00    +0.000 A 
ATOM     15  C   UNL     1       3.757   5.900  17.401  0.00  0.00    +0.000 A 
ATOM     16  C   UNL     1       2.747   5.964  18.363  0.00  0.00    +0.000 A 
ATOM     17  C   UNL     1       2.041   4.813  18.716  0.00  0.00    +0.000 A 
ATOM     18  C   UNL     1       2.319   3.597  18.084  0.00  0.00    +0.000 A 
ATOM     19  C   UNL     1       1.621   2.331  18.483  0.00  0.00    +0.000 C 
ATOM     20  C   UNL     1       3.306   3.553  17.090  0.00  0.00    +0.000 A 
ENDBRANCH  11  14
BRANCH   9  22
ATOM     21  C   UNL     1       4.678   3.259  11.854  0.00  0.00    +0.000 C 
ATOM     22  C   UNL     1       6.018   3.797  12.332  0.00  0.00    +0.000 C 
ENDBRANCH   9  22
ENDBRANCH   1  12
BRANCH   6  23
ATOM     23  C   UNL     1       8.451   9.789  17.604  0.00  0.00    +0.000 C 
BRANCH  23  24
ATOM     24  C   UNL     1       9.128  11.025  18.162  0.00  0.00    +0.000 A 
ATOM     25  C   UNL     1      10.060  10.894  19.203  0.00  0.00    +0.000 A 
ATOM     26  C   UNL     1      10.728  12.013  19.712  0.00  0.00    +0.000 A 
ATOM     27  C   UNL     1      10.481  13.275  19.176  0.00  0.00    +0.000 A 
ATOM     28  C   UNL     1       9.573  13.421  18.134  0.00  0.00    +0.000 A 
ATOM     29  C   UNL     1       8.907  12.304  17.622  0.00  0.00    +0.000 A 
ENDBRANCH  23  24
ENDBRANCH   6  23
TORSDOF 5
ENDMDL
