MODEL 1
REMARK VINA RESULT:      -5.3      0.000      0.000
REMARK  Name = 
REMARK  25 active torsions:
REMARK  status: ('A' for Active; 'I' for Inactive)
REMARK    1  A    between atoms: N_1  and  C_2
REMARK    2  A    between atoms: C_2  and  C_3
REMARK    3  A    between atoms: C_3  and  C_4
REMARK    4  A    between atoms: C_4  and  C_5
REMARK    5  A    between atoms: C_5  and  C_6
REMARK    6  A    between atoms: C_6  and  C_7
REMARK    7  A    between atoms: C_7  and  C_8
REMARK    8  A    between atoms: C_8  and  C_9
REMARK    9  A    between atoms: C_9  and  N_10
REMARK   10  A    between atoms: N_10  and  C_11
REMARK   11  A    between atoms: C_11  and  C_12
REMARK   12  A    between atoms: C_12  and  S_13
REMARK   13  A    between atoms: S_13  and  S_14
REMARK   14  A    between atoms: S_14  and  C_15
REMARK   15  A    between atoms: C_15  and  C_16
REMARK   16  A    between atoms: C_16  and  N_17
REMARK   17  A    between atoms: N_17  and  C_18
REMARK   18  A    between atoms: C_18  and  C_19
REMARK   19  A    between atoms: C_19  and  C_20
REMARK   20  A    between atoms: C_20  and  C_21
REMARK   21  A    between atoms: C_21  and  C_22
REMARK   22  A    between atoms: C_22  and  C_23
REMARK   23  A    between atoms: C_23  and  C_24
REMARK   24  A    between atoms: C_24  and  C_25
REMARK   25  A    between atoms: C_25  and  N_26
REMARK                            x       y       z     vdW  Elec       q    Type
REMARK                         _______ _______ _______ _____ _____    ______ ____
ROOT
ATOM      1  S   UNL     1       7.115   5.727  18.919  0.00  0.00    +0.000 S 
ENDROOT
BRANCH   1   2
ATOM      2  S   UNL     1       7.535   4.474  17.345  0.00  0.00    +0.000 S 
BRANCH   2   3
ATOM      3  C   UNL     1       6.251   4.959  16.149  0.00  0.00    +0.000 C 
BRANCH   3   4
ATOM      4  C   UNL     1       5.077   3.987  16.227  0.00  0.00    +0.000 C 
BRANCH   4   5
ATOM      5  N   UNL     1       4.018   4.536  17.081  0.00  0.00    +0.000 NA
ATOM      6  H   UNL     1       3.733   5.455  16.746  0.00  0.00    +0.000 HD
BRANCH   5   7
ATOM      7  C   UNL     1       2.862   3.645  17.087  0.00  0.00    +0.000 C 
BRANCH   7   8
ATOM      8  C   UNL     1       1.702   4.342  17.785  0.00  0.00    +0.000 C 
BRANCH   8   9
ATOM      9  C   UNL     1       2.242   5.399  18.739  0.00  0.00    +0.000 C 
BRANCH   9  10
ATOM     10  C   UNL     1       1.906   5.049  20.179  0.00  0.00    +0.000 C 
BRANCH  10  11
ATOM     11  C   UNL     1       0.918   3.894  20.220  0.00  0.00    +0.000 C 
BRANCH  11  12
ATOM     12  C   UNL     1       1.552   2.683  20.882  0.00  0.00    +0.000 C 
BRANCH  12  13
ATOM     13  C   UNL     1       3.034   2.923  21.122  0.00  0.00    +0.000 C 
BRANCH  13  14
ATOM     14  C   UNL     1       3.851   2.026  20.214  0.00  0.00    +0.000 C 
BRANCH  14  15
ATOM     15  N   UNL     1       4.944   2.805  19.616  0.00  0.00    +0.000 NA
ATOM     16  H   UNL     1       4.629   3.760  19.448  0.00  0.00    +0.000 HD
ATOM     17  H   UNL     1       5.222   2.377  18.732  0.00  0.00    +0.000 HD
ENDBRANCH  14  15
ENDBRANCH  13  14
ENDBRANCH  12  13
ENDBRANCH  11  12
ENDBRANCH  10  11
ENDBRANCH   9  10
ENDBRANCH   8   9
ENDBRANCH   7   8
ENDBRANCH   5   7
ENDBRANCH   4   5
ENDBRANCH   3   4
ENDBRANCH   2   3
ENDBRANCH   1   2
BRANCH   1  18
ATOM     18  C   UNL     1       8.241   7.126  18.595  0.00  0.00    +0.000 C 
BRANCH  18  19
ATOM     19  C   UNL     1       7.651   8.031  17.511  0.00  0.00    +0.000 C 
BRANCH  19  20
ATOM     20  N   UNL     1       7.975   9.439  17.785  0.00  0.00    +0.000 NA
ATOM     21  H   UNL     1       8.447   9.850  16.980  0.00  0.00    +0.000 HD
BRANCH  20  22
ATOM     22  C   UNL     1       8.851   9.542  18.947  0.00  0.00    +0.000 C 
BRANCH  22  23
ATOM     23  C   UNL     1       9.423  10.953  19.021  0.00  0.00    +0.000 C 
BRANCH  23  24
ATOM     24  C   UNL     1      10.390  11.187  17.864  0.00  0.00    +0.000 C 
BRANCH  24  25
ATOM     25  C   UNL     1      11.702  11.777  18.360  0.00  0.00    +0.000 C 
BRANCH  25  26
ATOM     26  C   UNL     1      12.175  12.885  17.426  0.00  0.00    +0.000 C 
BRANCH  26  27
ATOM     27  C   UNL     1      11.034  13.843  17.108  0.00  0.00    +0.000 C 
BRANCH  27  28
ATOM     28  C   UNL     1      10.985  14.978  18.125  0.00  0.00    +0.000 C 
BRANCH  28  29
ATOM     29  C   UNL     1      10.037  16.073  17.657  0.00  0.00    +0.000 C 
BRANCH  29  30
ATOM     30  N   UNL     1      10.361  16.437  16.287  0.00  0.00    +0.000 NA
ATOM     31  H   UNL     1       9.749  17.205  16.008  0.00  0.00    +0.000 HD
ATOM     32  H   UNL     1      10.190  15.634  15.676  0.00  0.00    +0.000 HD
ENDBRANCH  29  30
ENDBRANCH  28  29
ENDBRANCH  27  28
ENDBRANCH  26  27
ENDBRANCH  25  26
ENDBRANCH  24  25
ENDBRANCH  23  24
ENDBRANCH  22  23
ENDBRANCH  20  22
ENDBRANCH  19  20
ENDBRANCH  18  19
ENDBRANCH   1  18
TORSDOF 25
ENDMDL
MODEL 2
REMARK VINA RESULT:      -4.8      5.929      8.423
REMARK  Name = 
REMARK  25 active torsions:
REMARK  status: ('A' for Active; 'I' for Inactive)
REMARK    1  A    between atoms: N_1  and  C_2
REMARK    2  A    between atoms: C_2  and  C_3
REMARK    3  A    between atoms: C_3  and  C_4
REMARK    4  A    between atoms: C_4  and  C_5
REMARK    5  A    between atoms: C_5  and  C_6
REMARK    6  A    between atoms: C_6  and  C_7
REMARK    7  A    between atoms: C_7  and  C_8
REMARK    8  A    between atoms: C_8  and  C_9
REMARK    9  A    between atoms: C_9  and  N_10
REMARK   10  A    between atoms: N_10  and  C_11
REMARK   11  A    between atoms: C_11  and  C_12
REMARK   12  A    between atoms: C_12  and  S_13
REMARK   13  A    between atoms: S_13  and  S_14
REMARK   14  A    between atoms: S_14  and  C_15
REMARK   15  A    between atoms: C_15  and  C_16
REMARK   16  A    between atoms: C_16  and  N_17
REMARK   17  A    between atoms: N_17  and  C_18
REMARK   18  A    between atoms: C_18  and  C_19
REMARK   19  A    between atoms: C_19  and  C_20
REMARK   20  A    between atoms: C_20  and  C_21
REMARK   21  A    between atoms: C_21  and  C_22
REMARK   22  A    between atoms: C_22  and  C_23
REMARK   23  A    between atoms: C_23  and  C_24
REMARK   24  A    between atoms: C_24  and  C_25
REMARK   25  A    between atoms: C_25  and  N_26
REMARK                            x       y       z     vdW  Elec       q    Type
REMARK                         _______ _______ _______ _____ _____    ______ ____
ROOT
ATOM      1  S   UNL     1       2.275   4.250  21.118  0.00  0.00    +0.000 S 
ENDROOT
BRANCH   1   2
ATOM      2  S   UNL     1       0.986   3.447  19.734  0.00  0.00    +0.000 S 
BRANCH   2   3
ATOM      3  C   UNL     1       1.927   1.995  19.168  0.00  0.00    +0.000 C 
BRANCH   3   4
ATOM      4  C   UNL     1       2.658   2.326  17.870  0.00  0.00    +0.000 C 
BRANCH   4   5
ATOM      5  N   UNL     1       4.090   2.513  18.126  0.00  0.00    +0.000 NA
ATOM      6  H   UNL     1       4.586   1.628  18.033  0.00  0.00    +0.000 HD
BRANCH   5   7
ATOM      7  C   UNL     1       4.649   3.480  17.187  0.00  0.00    +0.000 C 
BRANCH   7   8
ATOM      8  C   UNL     1       5.689   4.327  17.906  0.00  0.00    +0.000 C 
BRANCH   8   9
ATOM      9  C   UNL     1       6.890   4.543  16.995  0.00  0.00    +0.000 C 
BRANCH   9  10
ATOM     10  C   UNL     1       6.528   5.447  15.829  0.00  0.00    +0.000 C 
BRANCH  10  11
ATOM     11  C   UNL     1       7.041   4.853  14.527  0.00  0.00    +0.000 C 
BRANCH  11  12
ATOM     12  C   UNL     1       5.953   4.028  13.861  0.00  0.00    +0.000 C 
BRANCH  12  13
ATOM     13  C   UNL     1       6.406   3.560  12.487  0.00  0.00    +0.000 C 
BRANCH  13  14
ATOM     14  C   UNL     1       5.360   2.639  11.890  0.00  0.00    +0.000 C 
BRANCH  14  15
ATOM     15  N   UNL     1       6.010   1.411  11.412  0.00  0.00    +0.000 NA
ATOM     16  H   UNL     1       6.366   0.882  12.208  0.00  0.00    +0.000 HD
ATOM     17  H   UNL     1       6.783   1.654  10.792  0.00  0.00    +0.000 HD
ENDBRANCH  14  15
ENDBRANCH  13  14
ENDBRANCH  12  13
ENDBRANCH  11  12
ENDBRANCH  10  11
ENDBRANCH   9  10
ENDBRANCH   8   9
ENDBRANCH   7   8
ENDBRANCH   5   7
ENDBRANCH   4   5
ENDBRANCH   3   4
ENDBRANCH   2   3
ENDBRANCH   1   2
BRANCH   1  18
ATOM     18  C   UNL     1       3.100   5.557  20.147  0.00  0.00    +0.000 C 
BRANCH  18  19
ATOM     19  C   UNL     1       2.270   5.886  18.905  0.00  0.00    +0.000 C 
BRANCH  19  20
ATOM     20  N   UNL     1       3.015   6.786  18.013  0.00  0.00    +0.000 NA
ATOM     21  H   UNL     1       3.794   7.210  18.517  0.00  0.00    +0.000 HD
BRANCH  20  22
ATOM     22  C   UNL     1       2.143   7.845  17.515  0.00  0.00    +0.000 C 
BRANCH  22  23
ATOM     23  C   UNL     1       2.235   9.049  18.447  0.00  0.00    +0.000 C 
BRANCH  23  24
ATOM     24  C   UNL     1       0.948   9.867  18.371  0.00  0.00    +0.000 C 
BRANCH  24  25
ATOM     25  C   UNL     1       1.201  11.320  18.749  0.00  0.00    +0.000 C 
BRANCH  25  26
ATOM     26  C   UNL     1       0.090  11.835  19.654  0.00  0.00    +0.000 C 
BRANCH  26  27
ATOM     27  C   UNL     1      -0.651  10.677  20.310  0.00  0.00    +0.000 C 
BRANCH  27  28
ATOM     28  C   UNL     1      -0.564  10.773  21.828  0.00  0.00    +0.000 C 
BRANCH  28  29
ATOM     29  C   UNL     1      -0.029   9.475  22.416  0.00  0.00    +0.000 C 
BRANCH  29  30
ATOM     30  N   UNL     1       0.089   9.611  23.858  0.00  0.00    +0.000 NA
ATOM     31  H   UNL     1      -0.651   9.059  24.293  0.00  0.00    +0.000 HD
ATOM     32  H   UNL     1      -0.032  10.595  24.114  0.00  0.00    +0.000 HD
ENDBRANCH  29  30
ENDBRANCH  28  29
ENDBRANCH  27  28
ENDBRANCH  26  27
ENDBRANCH  25  26
ENDBRANCH  24  25
ENDBRANCH  23  24
ENDBRANCH  22  23
ENDBRANCH  20  22
ENDBRANCH  19  20
ENDBRANCH  18  19
ENDBRANCH   1  18
TORSDOF 25
ENDMDL
MODEL 3
REMARK VINA RESULT:      -4.8      2.790      9.594
REMARK  Name = 
REMARK  25 active torsions:
REMARK  status: ('A' for Active; 'I' for Inactive)
REMARK    1  A    between atoms: N_1  and  C_2
REMARK    2  A    between atoms: C_2  and  C_3
REMARK    3  A    between atoms: C_3  and  C_4
REMARK    4  A    between atoms: C_4  and  C_5
REMARK    5  A    between atoms: C_5  and  C_6
REMARK    6  A    between atoms: C_6  and  C_7
REMARK    7  A    between atoms: C_7  and  C_8
REMARK    8  A    between atoms: C_8  and  C_9
REMARK    9  A    between atoms: C_9  and  N_10
REMARK   10  A    between atoms: N_10  and  C_11
REMARK   11  A    between atoms: C_11  and  C_12
REMARK   12  A    between atoms: C_12  and  S_13
REMARK   13  A    between atoms: S_13  and  S_14
REMARK   14  A    between atoms: S_14  and  C_15
REMARK   15  A    between atoms: C_15  and  C_16
REMARK   16  A    between atoms: C_16  and  N_17
REMARK   17  A    between atoms: N_17  and  C_18
REMARK   18  A    between atoms: C_18  and  C_19
REMARK   19  A    between atoms: C_19  and  C_20
REMARK   20  A    between atoms: C_20  and  C_21
REMARK   21  A    between atoms: C_21  and  C_22
REMARK   22  A    between atoms: C_22  and  C_23
REMARK   23  A    between atoms: C_23  and  C_24
REMARK   24  A    between atoms: C_24  and  C_25
REMARK   25  A    between atoms: C_25  and  N_26
REMARK                            x       y       z     vdW  Elec       q    Type
REMARK                         _______ _______ _______ _____ _____    ______ ____
ROOT
ATOM      1  S   UNL     1       2.993   3.401  17.204  0.00  0.00    +0.000 S 
ENDROOT
BRANCH   1   2
ATOM      2  S   UNL     1       4.717   4.033  18.127  0.00  0.00    +0.000 S 
BRANCH   2   3
ATOM      3  C   UNL     1       5.200   5.429  17.063  0.00  0.00    +0.000 C 
BRANCH   3   4
ATOM      4  C   UNL     1       6.615   5.210  16.533  0.00  0.00    +0.000 C 
BRANCH   4   5
ATOM      5  N   UNL     1       7.329   6.489  16.448  0.00  0.00    +0.000 NA
ATOM      6  H   UNL     1       6.943   7.062  15.699  0.00  0.00    +0.000 HD
BRANCH   5   7
ATOM      7  C   UNL     1       7.223   7.211  17.711  0.00  0.00    +0.000 C 
BRANCH   7   8
ATOM      8  C   UNL     1       7.965   8.536  17.590  0.00  0.00    +0.000 C 
BRANCH   8   9
ATOM      9  C   UNL     1       8.845   8.740  18.815  0.00  0.00    +0.000 C 
BRANCH   9  10
ATOM     10  C   UNL     1       9.035  10.220  19.103  0.00  0.00    +0.000 C 
BRANCH  10  11
ATOM     11  C   UNL     1       9.650  10.913  17.897  0.00  0.00    +0.000 C 
BRANCH  11  12
ATOM     12  C   UNL     1      10.875  11.708  18.315  0.00  0.00    +0.000 C 
BRANCH  12  13
ATOM     13  C   UNL     1      10.727  13.166  17.908  0.00  0.00    +0.000 C 
BRANCH  13  14
ATOM     14  C   UNL     1      11.483  13.415  16.617  0.00  0.00    +0.000 C 
BRANCH  14  15
ATOM     15  N   UNL     1      11.130  14.743  16.096  0.00  0.00    +0.000 NA
ATOM     16  H   UNL     1      11.981  15.262  15.881  0.00  0.00    +0.000 HD
ATOM     17  H   UNL     1      10.589  15.251  16.797  0.00  0.00    +0.000 HD
ENDBRANCH  14  15
ENDBRANCH  13  14
ENDBRANCH  12  13
ENDBRANCH  11  12
ENDBRANCH  10  11
ENDBRANCH   9  10
ENDBRANCH   8   9
ENDBRANCH   7   8
ENDBRANCH   5   7
ENDBRANCH   4   5
ENDBRANCH   3   4
ENDBRANCH   2   3
ENDBRANCH   1   2
BRANCH   1  18
ATOM     18  C   UNL     1       2.734   1.766  17.974  0.00  0.00    +0.000 C 
BRANCH  18  19
ATOM     19  C   UNL     1       2.531   1.926  19.482  0.00  0.00    +0.000 C 
BRANCH  19  20
ATOM     20  N   UNL     1       1.429   2.859  19.756  0.00  0.00    +0.000 NA
ATOM     21  H   UNL     1       1.470   3.647  19.109  0.00  0.00    +0.000 HD
BRANCH  20  22
ATOM     22  C   UNL     1       1.520   3.366  21.121  0.00  0.00    +0.000 C 
BRANCH  22  23
ATOM     23  C   UNL     1       2.234   4.713  21.110  0.00  0.00    +0.000 C 
BRANCH  23  24
ATOM     24  C   UNL     1       1.601   5.632  20.068  0.00  0.00    +0.000 C 
BRANCH  24  25
ATOM     25  C   UNL     1       2.409   6.911  19.905  0.00  0.00    +0.000 C 
BRANCH  25  26
ATOM     26  C   UNL     1       1.593   7.967  19.170  0.00  0.00    +0.000 C 
BRANCH  26  27
ATOM     27  C   UNL     1       2.406   8.586  18.041  0.00  0.00    +0.000 C 
BRANCH  27  28
ATOM     28  C   UNL     1       2.141  10.084  17.947  0.00  0.00    +0.000 C 
BRANCH  28  29
ATOM     29  C   UNL     1       0.887  10.455  18.725  0.00  0.00    +0.000 C 
BRANCH  29  30
ATOM     30  N   UNL     1      -0.194  10.737  17.793  0.00  0.00    +0.000 NA
ATOM     31  H   UNL     1       0.215  10.905  16.873  0.00  0.00    +0.000 HD
ATOM     32  H   UNL     1      -0.689  11.579  18.099  0.00  0.00    +0.000 HD
ENDBRANCH  29  30
ENDBRANCH  28  29
ENDBRANCH  27  28
ENDBRANCH  26  27
ENDBRANCH  25  26
ENDBRANCH  24  25
ENDBRANCH  23  24
ENDBRANCH  22  23
ENDBRANCH  20  22
ENDBRANCH  19  20
ENDBRANCH  18  19
ENDBRANCH   1  18
TORSDOF 25
ENDMDL
MODEL 4
REMARK VINA RESULT:      -4.8      5.891      9.111
REMARK  Name = 
REMARK  25 active torsions:
REMARK  status: ('A' for Active; 'I' for Inactive)
REMARK    1  A    between atoms: N_1  and  C_2
REMARK    2  A    between atoms: C_2  and  C_3
REMARK    3  A    between atoms: C_3  and  C_4
REMARK    4  A    between atoms: C_4  and  C_5
REMARK    5  A    between atoms: C_5  and  C_6
REMARK    6  A    between atoms: C_6  and  C_7
REMARK    7  A    between atoms: C_7  and  C_8
REMARK    8  A    between atoms: C_8  and  C_9
REMARK    9  A    between atoms: C_9  and  N_10
REMARK   10  A    between atoms: N_10  and  C_11
REMARK   11  A    between atoms: C_11  and  C_12
REMARK   12  A    between atoms: C_12  and  S_13
REMARK   13  A    between atoms: S_13  and  S_14
REMARK   14  A    between atoms: S_14  and  C_15
REMARK   15  A    between atoms: C_15  and  C_16
REMARK   16  A    between atoms: C_16  and  N_17
REMARK   17  A    between atoms: N_17  and  C_18
REMARK   18  A    between atoms: C_18  and  C_19
REMARK   19  A    between atoms: C_19  and  C_20
REMARK   20  A    between atoms: C_20  and  C_21
REMARK   21  A    between atoms: C_21  and  C_22
REMARK   22  A    between atoms: C_22  and  C_23
REMARK   23  A    between atoms: C_23  and  C_24
REMARK   24  A    between atoms: C_24  and  C_25
REMARK   25  A    between atoms: C_25  and  N_26
REMARK                            x       y       z     vdW  Elec       q    Type
REMARK                         _______ _______ _______ _____ _____    ______ ____
ROOT
ATOM      1  S   UNL     1       2.919   3.512  19.850  0.00  0.00    +0.000 S 
ENDROOT
BRANCH   1   2
ATOM      2  S   UNL     1       2.223   3.261  17.933  0.00  0.00    +0.000 S 
BRANCH   2   3
ATOM      3  C   UNL     1       3.621   3.904  16.959  0.00  0.00    +0.000 C 
BRANCH   3   4
ATOM      4  C   UNL     1       4.857   4.024  17.846  0.00  0.00    +0.000 C 
BRANCH   4   5
ATOM      5  N   UNL     1       5.299   5.422  17.914  0.00  0.00    +0.000 NA
ATOM      6  H   UNL     1       6.002   5.537  18.642  0.00  0.00    +0.000 HD
BRANCH   5   7
ATOM      7  C   UNL     1       5.859   5.837  16.632  0.00  0.00    +0.000 C 
BRANCH   7   8
ATOM      8  C   UNL     1       6.834   4.772  16.148  0.00  0.00    +0.000 C 
BRANCH   8   9
ATOM      9  C   UNL     1       6.950   4.839  14.631  0.00  0.00    +0.000 C 
BRANCH   9  10
ATOM     10  C   UNL     1       6.270   3.644  13.984  0.00  0.00    +0.000 C 
BRANCH  10  11
ATOM     11  C   UNL     1       5.203   4.115  13.008  0.00  0.00    +0.000 C 
BRANCH  11  12
ATOM     12  C   UNL     1       5.066   3.126  11.863  0.00  0.00    +0.000 C 
BRANCH  12  13
ATOM     13  C   UNL     1       6.259   2.184  11.827  0.00  0.00    +0.000 C 
BRANCH  13  14
ATOM     14  C   UNL     1       5.983   1.045  10.866  0.00  0.00    +0.000 C 
BRANCH  14  15
ATOM     15  N   UNL     1       6.397  -0.223  11.482  0.00  0.00    +0.000 NA
ATOM     16  H   UNL     1       7.185  -0.056  12.108  0.00  0.00    +0.000 HD
ATOM     17  H   UNL     1       6.675  -0.881  10.753  0.00  0.00    +0.000 HD
ENDBRANCH  14  15
ENDBRANCH  13  14
ENDBRANCH  12  13
ENDBRANCH  11  12
ENDBRANCH  10  11
ENDBRANCH   9  10
ENDBRANCH   8   9
ENDBRANCH   7   8
ENDBRANCH   5   7
ENDBRANCH   4   5
ENDBRANCH   3   4
ENDBRANCH   2   3
ENDBRANCH   1   2
BRANCH   1  18
ATOM     18  C   UNL     1       1.503   4.334  20.658  0.00  0.00    +0.000 C 
BRANCH  18  19
ATOM     19  C   UNL     1       1.748   5.843  20.731  0.00  0.00    +0.000 C 
BRANCH  19  20
ATOM     20  N   UNL     1       2.781   6.242  19.763  0.00  0.00    +0.000 NA
ATOM     21  H   UNL     1       3.680   6.342  20.234  0.00  0.00    +0.000 HD
BRANCH  20  22
ATOM     22  C   UNL     1       2.431   7.517  19.144  0.00  0.00    +0.000 C 
BRANCH  22  23
ATOM     23  C   UNL     1       1.527   8.302  20.089  0.00  0.00    +0.000 C 
BRANCH  23  24
ATOM     24  C   UNL     1       1.059   9.588  19.414  0.00  0.00    +0.000 C 
BRANCH  24  25
ATOM     25  C   UNL     1      -0.261  10.065  20.004  0.00  0.00    +0.000 C 
BRANCH  25  26
ATOM     26  C   UNL     1      -1.050  10.858  18.970  0.00  0.00    +0.000 C 
BRANCH  26  27
ATOM     27  C   UNL     1      -1.223  10.051  17.690  0.00  0.00    +0.000 C 
BRANCH  27  28
ATOM     28  C   UNL     1      -2.694   9.968  17.299  0.00  0.00    +0.000 C 
BRANCH  28  29
ATOM     29  C   UNL     1      -2.852  10.071  15.789  0.00  0.00    +0.000 C 
BRANCH  29  30
ATOM     30  N   UNL     1      -4.175  10.589  15.477  0.00  0.00    +0.000 NA
ATOM     31  H   UNL     1      -4.090  11.220  14.679  0.00  0.00    +0.000 HD
ATOM     32  H   UNL     1      -4.529  11.112  16.282  0.00  0.00    +0.000 HD
ENDBRANCH  29  30
ENDBRANCH  28  29
ENDBRANCH  27  28
ENDBRANCH  26  27
ENDBRANCH  25  26
ENDBRANCH  24  25
ENDBRANCH  23  24
ENDBRANCH  22  23
ENDBRANCH  20  22
ENDBRANCH  19  20
ENDBRANCH  18  19
ENDBRANCH   1  18
TORSDOF 25
ENDMDL
MODEL 5
REMARK VINA RESULT:      -4.8      5.337      8.897
REMARK  Name = 
REMARK  25 active torsions:
REMARK  status: ('A' for Active; 'I' for Inactive)
REMARK    1  A    between atoms: N_1  and  C_2
REMARK    2  A    between atoms: C_2  and  C_3
REMARK    3  A    between atoms: C_3  and  C_4
REMARK    4  A    between atoms: C_4  and  C_5
REMARK    5  A    between atoms: C_5  and  C_6
REMARK    6  A    between atoms: C_6  and  C_7
REMARK    7  A    between atoms: C_7  and  C_8
REMARK    8  A    between atoms: C_8  and  C_9
REMARK    9  A    between atoms: C_9  and  N_10
REMARK   10  A    between atoms: N_10  and  C_11
REMARK   11  A    between atoms: C_11  and  C_12
REMARK   12  A    between atoms: C_12  and  S_13
REMARK   13  A    between atoms: S_13  and  S_14
REMARK   14  A    between atoms: S_14  and  C_15
REMARK   15  A    between atoms: C_15  and  C_16
REMARK   16  A    between atoms: C_16  and  N_17
REMARK   17  A    between atoms: N_17  and  C_18
REMARK   18  A    between atoms: C_18  and  C_19
REMARK   19  A    between atoms: C_19  and  C_20
REMARK   20  A    between atoms: C_20  and  C_21
REMARK   21  A    between atoms: C_21  and  C_22
REMARK   22  A    between atoms: C_22  and  C_23
REMARK   23  A    between atoms: C_23  and  C_24
REMARK   24  A    between atoms: C_24  and  C_25
REMARK   25  A    between atoms: C_25  and  N_26
REMARK                            x       y       z     vdW  Elec       q    Type
REMARK                         _______ _______ _______ _____ _____    ______ ____
ROOT
ATOM      1  S   UNL     1       3.419   4.011  18.098  0.00  0.00    +0.000 S 
ENDROOT
BRANCH   1   2
ATOM      2  S   UNL     1       1.961   4.546  19.445  0.00  0.00    +0.000 S 
BRANCH   2   3
ATOM      3  C   UNL     1       2.299   6.323  19.651  0.00  0.00    +0.000 C 
BRANCH   3   4
ATOM      4  C   UNL     1       1.552   6.854  20.871  0.00  0.00    +0.000 C 
BRANCH   4   5
ATOM      5  N   UNL     1       1.605   8.320  20.901  0.00  0.00    +0.000 NA
ATOM      6  H   UNL     1       1.010   8.712  20.172  0.00  0.00    +0.000 HD
BRANCH   5   7
ATOM      7  C   UNL     1       1.165   8.814  22.201  0.00  0.00    +0.000 C 
BRANCH   7   8
ATOM      8  C   UNL     1      -0.333   9.087  22.148  0.00  0.00    +0.000 C 
BRANCH   8   9
ATOM      9  C   UNL     1      -0.677  10.228  23.095  0.00  0.00    +0.000 C 
BRANCH   9  10
ATOM     10  C   UNL     1      -1.189  11.433  22.324  0.00  0.00    +0.000 C 
BRANCH  10  11
ATOM     11  C   UNL     1      -0.135  11.910  21.338  0.00  0.00    +0.000 C 
BRANCH  11  12
ATOM     12  C   UNL     1      -0.795  12.398  20.059  0.00  0.00    +0.000 C 
BRANCH  12  13
ATOM     13  C   UNL     1      -1.298  11.222  19.238  0.00  0.00    +0.000 C 
BRANCH  13  14
ATOM     14  C   UNL     1      -2.337  11.699  18.243  0.00  0.00    +0.000 C 
BRANCH  14  15
ATOM     15  N   UNL     1      -3.473  12.286  18.968  0.00  0.00    +0.000 NA
ATOM     16  H   UNL     1      -3.150  12.660  19.860  0.00  0.00    +0.000 HD
ATOM     17  H   UNL     1      -4.177  11.567  19.136  0.00  0.00    +0.000 HD
ENDBRANCH  14  15
ENDBRANCH  13  14
ENDBRANCH  12  13
ENDBRANCH  11  12
ENDBRANCH  10  11
ENDBRANCH   9  10
ENDBRANCH   8   9
ENDBRANCH   7   8
ENDBRANCH   5   7
ENDBRANCH   4   5
ENDBRANCH   3   4
ENDBRANCH   2   3
ENDBRANCH   1   2
BRANCH   1  18
ATOM     18  C   UNL     1       4.898   3.923  19.163  0.00  0.00    +0.000 C 
BRANCH  18  19
ATOM     19  C   UNL     1       5.495   5.320  19.344  0.00  0.00    +0.000 C 
BRANCH  19  20
ATOM     20  N   UNL     1       6.922   5.228  19.690  0.00  0.00    +0.000 NA
ATOM     21  H   UNL     1       7.185   6.010  20.289  0.00  0.00    +0.000 HD
BRANCH  20  22
ATOM     22  C   UNL     1       7.740   5.264  18.482  0.00  0.00    +0.000 C 
BRANCH  22  23
ATOM     23  C   UNL     1       7.297   6.434  17.610  0.00  0.00    +0.000 C 
BRANCH  23  24
ATOM     24  C   UNL     1       6.908   5.934  16.222  0.00  0.00    +0.000 C 
BRANCH  24  25
ATOM     25  C   UNL     1       7.199   4.447  16.075  0.00  0.00    +0.000 C 
BRANCH  25  26
ATOM     26  C   UNL     1       5.984   3.719  15.515  0.00  0.00    +0.000 C 
BRANCH  26  27
ATOM     27  C   UNL     1       5.569   4.317  14.176  0.00  0.00    +0.000 C 
BRANCH  27  28
ATOM     28  C   UNL     1       6.345   3.670  13.035  0.00  0.00    +0.000 C 
BRANCH  28  29
ATOM     29  C   UNL     1       5.391   3.141  11.974  0.00  0.00    +0.000 C 
BRANCH  29  30
ATOM     30  N   UNL     1       5.822   1.816  11.556  0.00  0.00    +0.000 NA
ATOM     31  H   UNL     1       4.996   1.220  11.483  0.00  0.00    +0.000 HD
ATOM     32  H   UNL     1       6.453   1.429  12.264  0.00  0.00    +0.000 HD
ENDBRANCH  29  30
ENDBRANCH  28  29
ENDBRANCH  27  28
ENDBRANCH  26  27
ENDBRANCH  25  26
ENDBRANCH  24  25
ENDBRANCH  23  24
ENDBRANCH  22  23
ENDBRANCH  20  22
ENDBRANCH  19  20
ENDBRANCH  18  19
ENDBRANCH   1  18
TORSDOF 25
ENDMDL
MODEL 6
REMARK VINA RESULT:      -4.6      5.804      9.577
REMARK  Name = 
REMARK  25 active torsions:
REMARK  status: ('A' for Active; 'I' for Inactive)
REMARK    1  A    between atoms: N_1  and  C_2
REMARK    2  A    between atoms: C_2  and  C_3
REMARK    3  A    between atoms: C_3  and  C_4
REMARK    4  A    between atoms: C_4  and  C_5
REMARK    5  A    between atoms: C_5  and  C_6
REMARK    6  A    between atoms: C_6  and  C_7
REMARK    7  A    between atoms: C_7  and  C_8
REMARK    8  A    between atoms: C_8  and  C_9
REMARK    9  A    between atoms: C_9  and  N_10
REMARK   10  A    between atoms: N_10  and  C_11
REMARK   11  A    between atoms: C_11  and  C_12
REMARK   12  A    between atoms: C_12  and  S_13
REMARK   13  A    between atoms: S_13  and  S_14
REMARK   14  A    between atoms: S_14  and  C_15
REMARK   15  A    between atoms: C_15  and  C_16
REMARK   16  A    between atoms: C_16  and  N_17
REMARK   17  A    between atoms: N_17  and  C_18
REMARK   18  A    between atoms: C_18  and  C_19
REMARK   19  A    between atoms: C_19  and  C_20
REMARK   20  A    between atoms: C_20  and  C_21
REMARK   21  A    between atoms: C_21  and  C_22
REMARK   22  A    between atoms: C_22  and  C_23
REMARK   23  A    between atoms: C_23  and  C_24
REMARK   24  A    between atoms: C_24  and  C_25
REMARK   25  A    between atoms: C_25  and  N_26
REMARK                            x       y       z     vdW  Elec       q    Type
REMARK                         _______ _______ _______ _____ _____    ______ ____
ROOT
ATOM      1  S   UNL     1       1.669   7.777  20.106  0.00  0.00    +0.000 S 
ENDROOT
BRANCH   1   2
ATOM      2  S   UNL     1       2.298   5.931  20.756  0.00  0.00    +0.000 S 
BRANCH   2   3
ATOM      3  C   UNL     1       0.870   4.891  20.314  0.00  0.00    +0.000 C 
BRANCH   3   4
ATOM      4  C   UNL     1       1.235   3.418  20.471  0.00  0.00    +0.000 C 
BRANCH   4   5
ATOM      5  N   UNL     1       2.511   3.284  21.183  0.00  0.00    +0.000 NA
ATOM      6  H   UNL     1       2.374   2.801  22.069  0.00  0.00    +0.000 HD
BRANCH   5   7
ATOM      7  C   UNL     1       3.466   2.539  20.370  0.00  0.00    +0.000 C 
BRANCH   7   8
ATOM      8  C   UNL     1       2.732   1.903  19.198  0.00  0.00    +0.000 C 
BRANCH   8   9
ATOM      9  C   UNL     1       3.421   2.287  17.895  0.00  0.00    +0.000 C 
BRANCH   9  10
ATOM     10  C   UNL     1       2.658   3.396  17.188  0.00  0.00    +0.000 C 
BRANCH  10  11
ATOM     11  C   UNL     1       3.371   4.725  17.380  0.00  0.00    +0.000 C 
BRANCH  11  12
ATOM     12  C   UNL     1       4.875   4.535  17.279  0.00  0.00    +0.000 C 
BRANCH  12  13
ATOM     13  C   UNL     1       5.461   5.476  16.239  0.00  0.00    +0.000 C 
BRANCH  13  14
ATOM     14  C   UNL     1       6.975   5.427  16.300  0.00  0.00    +0.000 C 
BRANCH  14  15
ATOM     15  N   UNL     1       7.514   5.306  14.939  0.00  0.00    +0.000 NA
ATOM     16  H   UNL     1       8.526   5.187  14.982  0.00  0.00    +0.000 HD
ATOM     17  H   UNL     1       7.293   6.150  14.409  0.00  0.00    +0.000 HD
ENDBRANCH  14  15
ENDBRANCH  13  14
ENDBRANCH  12  13
ENDBRANCH  11  12
ENDBRANCH  10  11
ENDBRANCH   9  10
ENDBRANCH   8   9
ENDBRANCH   7   8
ENDBRANCH   5   7
ENDBRANCH   4   5
ENDBRANCH   3   4
ENDBRANCH   2   3
ENDBRANCH   1   2
BRANCH   1  18
ATOM     18  C   UNL     1       1.235   8.599  21.676  0.00  0.00    +0.000 C 
BRANCH  18  19
ATOM     19  C   UNL     1       0.895  10.069  21.419  0.00  0.00    +0.000 C 
BRANCH  19  20
ATOM     20  N   UNL     1      -0.306  10.178  20.579  0.00  0.00    +0.000 NA
ATOM     21  H   UNL     1      -0.408   9.341  20.006  0.00  0.00    +0.000 HD
BRANCH  20  22
ATOM     22  C   UNL     1      -0.208  11.339  19.700  0.00  0.00    +0.000 C 
BRANCH  22  23
ATOM     23  C   UNL     1      -1.599  11.708  19.198  0.00  0.00    +0.000 C 
BRANCH  23  24
ATOM     24  C   UNL     1      -2.137  10.604  18.292  0.00  0.00    +0.000 C 
BRANCH  24  25
ATOM     25  C   UNL     1      -2.341  11.113  16.872  0.00  0.00    +0.000 C 
BRANCH  25  26
ATOM     26  C   UNL     1      -2.468   9.946  15.901  0.00  0.00    +0.000 C 
BRANCH  26  27
ATOM     27  C   UNL     1      -3.560  10.217  14.874  0.00  0.00    +0.000 C 
BRANCH  27  28
ATOM     28  C   UNL     1      -3.157   9.678  13.506  0.00  0.00    +0.000 C 
BRANCH  28  29
ATOM     29  C   UNL     1      -4.293   9.852  12.508  0.00  0.00    +0.000 C 
BRANCH  29  30
ATOM     30  N   UNL     1      -3.749   9.884  11.160  0.00  0.00    +0.000 NA
ATOM     31  H   UNL     1      -2.881  10.421  11.179  0.00  0.00    +0.000 HD
ATOM     32  H   UNL     1      -4.417  10.349  10.539  0.00  0.00    +0.000 HD
ENDBRANCH  29  30
ENDBRANCH  28  29
ENDBRANCH  27  28
ENDBRANCH  26  27
ENDBRANCH  25  26
ENDBRANCH  24  25
ENDBRANCH  23  24
ENDBRANCH  22  23
ENDBRANCH  20  22
ENDBRANCH  19  20
ENDBRANCH  18  19
ENDBRANCH   1  18
TORSDOF 25
ENDMDL
MODEL 7
REMARK VINA RESULT:      -4.6      5.751      8.402
REMARK  Name = 
REMARK  25 active torsions:
REMARK  status: ('A' for Active; 'I' for Inactive)
REMARK    1  A    between atoms: N_1  and  C_2
REMARK    2  A    between atoms: C_2  and  C_3
REMARK    3  A    between atoms: C_3  and  C_4
REMARK    4  A    between atoms: C_4  and  C_5
REMARK    5  A    between atoms: C_5  and  C_6
REMARK    6  A    between atoms: C_6  and  C_7
REMARK    7  A    between atoms: C_7  and  C_8
REMARK    8  A    between atoms: C_8  and  C_9
REMARK    9  A    between atoms: C_9  and  N_10
REMARK   10  A    between atoms: N_10  and  C_11
REMARK   11  A    between atoms: C_11  and  C_12
REMARK   12  A    between atoms: C_12  and  S_13
REMARK   13  A    between atoms: S_13  and  S_14
REMARK   14  A    between atoms: S_14  and  C_15
REMARK   15  A    between atoms: C_15  and  C_16
REMARK   16  A    between atoms: C_16  and  N_17
REMARK   17  A    between atoms: N_17  and  C_18
REMARK   18  A    between atoms: C_18  and  C_19
REMARK   19  A    between atoms: C_19  and  C_20
REMARK   20  A    between atoms: C_20  and  C_21
REMARK   21  A    between atoms: C_21  and  C_22
REMARK   22  A    between atoms: C_22  and  C_23
REMARK   23  A    between atoms: C_23  and  C_24
REMARK   24  A    between atoms: C_24  and  C_25
REMARK   25  A    between atoms: C_25  and  N_26
REMARK                            x       y       z     vdW  Elec       q    Type
REMARK                         _______ _______ _______ _____ _____    ______ ____
ROOT
ATOM      1  S   UNL     1       2.565   1.802  18.784  0.00  0.00    +0.000 S 
ENDROOT
BRANCH   1   2
ATOM      2  S   UNL     1       3.272   2.915  20.361  0.00  0.00    +0.000 S 
BRANCH   2   3
ATOM      3  C   UNL     1       5.051   2.985  19.979  0.00  0.00    +0.000 C 
BRANCH   3   4
ATOM      4  C   UNL     1       5.364   4.261  19.204  0.00  0.00    +0.000 C 
BRANCH   4   5
ATOM      5  N   UNL     1       6.669   4.147  18.543  0.00  0.00    +0.000 NA
ATOM      6  H   UNL     1       6.640   3.429  17.821  0.00  0.00    +0.000 HD
BRANCH   5   7
ATOM      7  C   UNL     1       7.043   5.422  17.941  0.00  0.00    +0.000 C 
BRANCH   7   8
ATOM      8  C   UNL     1       5.791   6.268  17.752  0.00  0.00    +0.000 C 
BRANCH   8   9
ATOM      9  C   UNL     1       5.348   6.205  16.296  0.00  0.00    +0.000 C 
BRANCH   9  10
ATOM     10  C   UNL     1       6.347   5.420  15.461  0.00  0.00    +0.000 C 
BRANCH  10  11
ATOM     11  C   UNL     1       5.767   5.133  14.085  0.00  0.00    +0.000 C 
BRANCH  11  12
ATOM     12  C   UNL     1       5.872   3.651  13.770  0.00  0.00    +0.000 C 
BRANCH  12  13
ATOM     13  C   UNL     1       6.355   3.444  12.343  0.00  0.00    +0.000 C 
BRANCH  13  14
ATOM     14  C   UNL     1       5.564   2.326  11.692  0.00  0.00    +0.000 C 
BRANCH  14  15
ATOM     15  N   UNL     1       6.489   1.286  11.221  0.00  0.00    +0.000 NA
ATOM     16  H   UNL     1       6.010   0.385  11.208  0.00  0.00    +0.000 HD
ATOM     17  H   UNL     1       7.292   1.236  11.847  0.00  0.00    +0.000 HD
ENDBRANCH  14  15
ENDBRANCH  13  14
ENDBRANCH  12  13
ENDBRANCH  11  12
ENDBRANCH  10  11
ENDBRANCH   9  10
ENDBRANCH   8   9
ENDBRANCH   7   8
ENDBRANCH   5   7
ENDBRANCH   4   5
ENDBRANCH   3   4
ENDBRANCH   2   3
ENDBRANCH   1   2
BRANCH   1  18
ATOM     18  C   UNL     1       2.476   3.049  17.455  0.00  0.00    +0.000 C 
BRANCH  18  19
ATOM     19  C   UNL     1       1.489   4.153  17.840  0.00  0.00    +0.000 C 
BRANCH  19  20
ATOM     20  N   UNL     1       2.159   5.462  17.844  0.00  0.00    +0.000 NA
ATOM     21  H   UNL     1       3.138   5.353  17.583  0.00  0.00    +0.000 HD
BRANCH  20  22
ATOM     22  C   UNL     1       2.090   6.064  19.172  0.00  0.00    +0.000 C 
BRANCH  22  23
ATOM     23  C   UNL     1       2.558   7.512  19.092  0.00  0.00    +0.000 C 
BRANCH  23  24
ATOM     24  C   UNL     1       2.136   8.125  17.759  0.00  0.00    +0.000 C 
BRANCH  24  25
ATOM     25  C   UNL     1       1.351   9.411  17.973  0.00  0.00    +0.000 C 
BRANCH  25  26
ATOM     26  C   UNL     1       1.007   9.587  19.446  0.00  0.00    +0.000 C 
BRANCH  26  27
ATOM     27  C   UNL     1      -0.299  10.354  19.606  0.00  0.00    +0.000 C 
BRANCH  27  28
ATOM     28  C   UNL     1      -0.278  11.193  20.878  0.00  0.00    +0.000 C 
BRANCH  28  29
ATOM     29  C   UNL     1      -0.459  10.309  22.104  0.00  0.00    +0.000 C 
BRANCH  29  30
ATOM     30  N   UNL     1      -0.719  11.142  23.266  0.00  0.00    +0.000 NA
ATOM     31  H   UNL     1       0.073  11.057  23.905  0.00  0.00    +0.000 HD
ATOM     32  H   UNL     1      -1.566  10.810  23.735  0.00  0.00    +0.000 HD
ENDBRANCH  29  30
ENDBRANCH  28  29
ENDBRANCH  27  28
ENDBRANCH  26  27
ENDBRANCH  25  26
ENDBRANCH  24  25
ENDBRANCH  23  24
ENDBRANCH  22  23
ENDBRANCH  20  22
ENDBRANCH  19  20
ENDBRANCH  18  19
ENDBRANCH   1  18
TORSDOF 25
ENDMDL
MODEL 8
REMARK VINA RESULT:      -4.6      5.139      8.509
REMARK  Name = 
REMARK  25 active torsions:
REMARK  status: ('A' for Active; 'I' for Inactive)
REMARK    1  A    between atoms: N_1  and  C_2
REMARK    2  A    between atoms: C_2  and  C_3
REMARK    3  A    between atoms: C_3  and  C_4
REMARK    4  A    between atoms: C_4  and  C_5
REMARK    5  A    between atoms: C_5  and  C_6
REMARK    6  A    between atoms: C_6  and  C_7
REMARK    7  A    between atoms: C_7  and  C_8
REMARK    8  A    between atoms: C_8  and  C_9
REMARK    9  A    between atoms: C_9  and  N_10
REMARK   10  A    between atoms: N_10  and  C_11
REMARK   11  A    between atoms: C_11  and  C_12
REMARK   12  A    between atoms: C_12  and  S_13
REMARK   13  A    between atoms: S_13  and  S_14
REMARK   14  A    between atoms: S_14  and  C_15
REMARK   15  A    between atoms: C_15  and  C_16
REMARK   16  A    between atoms: C_16  and  N_17
REMARK   17  A    between atoms: N_17  and  C_18
REMARK   18  A    between atoms: C_18  and  C_19
REMARK   19  A    between atoms: C_19  and  C_20
REMARK   20  A    between atoms: C_20  and  C_21
REMARK   21  A    between atoms: C_21  and  C_22
REMARK   22  A    between atoms: C_22  and  C_23
REMARK   23  A    between atoms: C_23  and  C_24
REMARK   24  A    between atoms: C_24  and  C_25
REMARK   25  A    between atoms: C_25  and  N_26
REMARK                            x       y       z     vdW  Elec       q    Type
REMARK                         _______ _______ _______ _____ _____    ______ ____
ROOT
ATOM      1  S   UNL     1       2.241   6.772  19.644  0.00  0.00    +0.000 S 
ENDROOT
BRANCH   1   2
ATOM      2  S   UNL     1       2.577   4.988  20.608  0.00  0.00    +0.000 S 
BRANCH   2   3
ATOM      3  C   UNL     1       0.958   4.176  20.432  0.00  0.00    +0.000 C 
BRANCH   3   4
ATOM      4  C   UNL     1       1.154   2.686  20.165  0.00  0.00    +0.000 C 
BRANCH   4   5
ATOM      5  N   UNL     1       0.934   2.391  18.744  0.00  0.00    +0.000 NA
ATOM      6  H   UNL     1       0.515   3.193  18.276  0.00  0.00    +0.000 HD
BRANCH   5   7
ATOM      7  C   UNL     1       2.199   2.061  18.096  0.00  0.00    +0.000 C 
BRANCH   7   8
ATOM      8  C   UNL     1       2.633   3.235  17.228  0.00  0.00    +0.000 C 
BRANCH   8   9
ATOM      9  C   UNL     1       4.135   3.443  17.367  0.00  0.00    +0.000 C 
BRANCH   9  10
ATOM     10  C   UNL     1       4.654   4.374  16.283  0.00  0.00    +0.000 C 
BRANCH  10  11
ATOM     11  C   UNL     1       5.965   3.845  15.723  0.00  0.00    +0.000 C 
BRANCH  11  12
ATOM     12  C   UNL     1       7.090   4.826  16.004  0.00  0.00    +0.000 C 
BRANCH  12  13
ATOM     13  C   UNL     1       6.533   6.136  16.539  0.00  0.00    +0.000 C 
BRANCH  13  14
ATOM     14  C   UNL     1       7.448   6.679  17.618  0.00  0.00    +0.000 C 
BRANCH  14  15
ATOM     15  N   UNL     1       7.738   8.093  17.343  0.00  0.00    +0.000 NA
ATOM     16  H   UNL     1       8.747   8.241  17.350  0.00  0.00    +0.000 HD
ATOM     17  H   UNL     1       7.304   8.676  18.059  0.00  0.00    +0.000 HD
ENDBRANCH  14  15
ENDBRANCH  13  14
ENDBRANCH  12  13
ENDBRANCH  11  12
ENDBRANCH  10  11
ENDBRANCH   9  10
ENDBRANCH   8   9
ENDBRANCH   7   8
ENDBRANCH   5   7
ENDBRANCH   4   5
ENDBRANCH   3   4
ENDBRANCH   2   3
ENDBRANCH   1   2
BRANCH   1  18
ATOM     18  C   UNL     1       1.597   7.814  20.997  0.00  0.00    +0.000 C 
BRANCH  18  19
ATOM     19  C   UNL     1       1.104   9.149  20.437  0.00  0.00    +0.000 C 
BRANCH  19  20
ATOM     20  N   UNL     1      -0.313   9.356  20.774  0.00  0.00    +0.000 NA
ATOM     21  H   UNL     1      -0.576  10.324  20.594  0.00  0.00    +0.000 HD
BRANCH  20  22
ATOM     22  C   UNL     1      -0.548   9.058  22.183  0.00  0.00    +0.000 C 
BRANCH  22  23
ATOM     23  C   UNL     1      -0.539  10.358  22.979  0.00  0.00    +0.000 C 
BRANCH  23  24
ATOM     24  C   UNL     1      -1.289  11.445  22.214  0.00  0.00    +0.000 C 
BRANCH  24  25
ATOM     25  C   UNL     1      -0.426  12.687  22.041  0.00  0.00    +0.000 C 
BRANCH  25  26
ATOM     26  C   UNL     1      -0.802  13.422  20.761  0.00  0.00    +0.000 C 
BRANCH  26  27
ATOM     27  C   UNL     1       0.267  13.224  19.694  0.00  0.00    +0.000 C 
BRANCH  27  28
ATOM     28  C   UNL     1      -0.363  13.159  18.307  0.00  0.00    +0.000 C 
BRANCH  28  29
ATOM     29  C   UNL     1      -1.459  12.103  18.268  0.00  0.00    +0.000 C 
BRANCH  29  30
ATOM     30  N   UNL     1      -0.884  10.826  17.876  0.00  0.00    +0.000 NA
ATOM     31  H   UNL     1       0.048  10.756  18.288  0.00  0.00    +0.000 HD
ATOM     32  H   UNL     1      -0.804  10.792  16.857  0.00  0.00    +0.000 HD
ENDBRANCH  29  30
ENDBRANCH  28  29
ENDBRANCH  27  28
ENDBRANCH  26  27
ENDBRANCH  25  26
ENDBRANCH  24  25
ENDBRANCH  23  24
ENDBRANCH  22  23
ENDBRANCH  20  22
ENDBRANCH  19  20
ENDBRANCH  18  19
ENDBRANCH   1  18
TORSDOF 25
ENDMDL
MODEL 9
REMARK VINA RESULT:      -4.5      1.645      2.293
REMARK  Name = 
REMARK  25 active torsions:
REMARK  status: ('A' for Active; 'I' for Inactive)
REMARK    1  A    between atoms: N_1  and  C_2
REMARK    2  A    between atoms: C_2  and  C_3
REMARK    3  A    between atoms: C_3  and  C_4
REMARK    4  A    between atoms: C_4  and  C_5
REMARK    5  A    between atoms: C_5  and  C_6
REMARK    6  A    between atoms: C_6  and  C_7
REMARK    7  A    between atoms: C_7  and  C_8
REMARK    8  A    between atoms: C_8  and  C_9
REMARK    9  A    between atoms: C_9  and  N_10
REMARK   10  A    between atoms: N_10  and  C_11
REMARK   11  A    between atoms: C_11  and  C_12
REMARK   12  A    between atoms: C_12  and  S_13
REMARK   13  A    between atoms: S_13  and  S_14
REMARK   14  A    between atoms: S_14  and  C_15
REMARK   15  A    between atoms: C_15  and  C_16
REMARK   16  A    between atoms: C_16  and  N_17
REMARK   17  A    between atoms: N_17  and  C_18
REMARK   18  A    between atoms: C_18  and  C_19
REMARK   19  A    between atoms: C_19  and  C_20
REMARK   20  A    between atoms: C_20  and  C_21
REMARK   21  A    between atoms: C_21  and  C_22
REMARK   22  A    between atoms: C_22  and  C_23
REMARK   23  A    between atoms: C_23  and  C_24
REMARK   24  A    between atoms: C_24  and  C_25
REMARK   25  A    between atoms: C_25  and  N_26
REMARK                            x       y       z     vdW  Elec       q    Type
REMARK                         _______ _______ _______ _____ _____    ______ ____
ROOT
ATOM      1  S   UNL     1       7.218   6.030  15.990  0.00  0.00    +0.000 S 
ENDROOT
BRANCH   1   2
ATOM      2  S   UNL     1       6.357   4.225  16.461  0.00  0.00    +0.000 S 
BRANCH   2   3
ATOM      3  C   UNL     1       4.917   4.760  17.439  0.00  0.00    +0.000 C 
BRANCH   3   4
ATOM      4  C   UNL     1       4.837   3.947  18.728  0.00  0.00    +0.000 C 
BRANCH   4   5
ATOM      5  N   UNL     1       4.225   2.640  18.467  0.00  0.00    +0.000 NA
ATOM      6  H   UNL     1       3.746   2.299  19.299  0.00  0.00    +0.000 HD
BRANCH   5   7
ATOM      7  C   UNL     1       3.270   2.740  17.368  0.00  0.00    +0.000 C 
BRANCH   7   8
ATOM      8  C   UNL     1       1.871   2.917  17.941  0.00  0.00    +0.000 C 
BRANCH   8   9
ATOM      9  C   UNL     1       1.705   2.029  19.167  0.00  0.00    +0.000 C 
BRANCH   9  10
ATOM     10  C   UNL     1       0.815   2.698  20.201  0.00  0.00    +0.000 C 
BRANCH  10  11
ATOM     11  C   UNL     1       1.607   2.979  21.469  0.00  0.00    +0.000 C 
BRANCH  11  12
ATOM     12  C   UNL     1       2.353   4.296  21.342  0.00  0.00    +0.000 C 
BRANCH  12  13
ATOM     13  C   UNL     1       1.458   5.357  20.723  0.00  0.00    +0.000 C 
BRANCH  13  14
ATOM     14  C   UNL     1       2.308   6.403  20.030  0.00  0.00    +0.000 C 
BRANCH  14  15
ATOM     15  N   UNL     1       1.983   7.731  20.570  0.00  0.00    +0.000 NA
ATOM     16  H   UNL     1       2.597   8.429  20.150  0.00  0.00    +0.000 HD
ATOM     17  H   UNL     1       2.113   7.727  21.582  0.00  0.00    +0.000 HD
ENDBRANCH  14  15
ENDBRANCH  13  14
ENDBRANCH  12  13
ENDBRANCH  11  12
ENDBRANCH  10  11
ENDBRANCH   9  10
ENDBRANCH   8   9
ENDBRANCH   7   8
ENDBRANCH   5   7
ENDBRANCH   4   5
ENDBRANCH   3   4
ENDBRANCH   2   3
ENDBRANCH   1   2
BRANCH   1  18
ATOM     18  C   UNL     1       6.742   7.057  17.421  0.00  0.00    +0.000 C 
BRANCH  18  19
ATOM     19  C   UNL     1       7.949   7.860  17.912  0.00  0.00    +0.000 C 
BRANCH  19  20
ATOM     20  N   UNL     1       7.654   9.300  17.885  0.00  0.00    +0.000 NA
ATOM     21  H   UNL     1       7.120   9.530  17.047  0.00  0.00    +0.000 HD
BRANCH  20  22
ATOM     22  C   UNL     1       8.892  10.072  17.881  0.00  0.00    +0.000 C 
BRANCH  22  23
ATOM     23  C   UNL     1       9.298  10.377  19.318  0.00  0.00    +0.000 C 
BRANCH  23  24
ATOM     24  C   UNL     1      10.538  11.267  19.333  0.00  0.00    +0.000 C 
BRANCH  24  25
ATOM     25  C   UNL     1      10.996  11.590  17.918  0.00  0.00    +0.000 C 
BRANCH  25  26
ATOM     26  C   UNL     1      11.799  12.884  17.902  0.00  0.00    +0.000 C 
BRANCH  26  27
ATOM     27  C   UNL     1      11.105  13.960  18.727  0.00  0.00    +0.000 C 
BRANCH  27  28
ATOM     28  C   UNL     1      10.090  14.718  17.879  0.00  0.00    +0.000 C 
BRANCH  28  29
ATOM     29  C   UNL     1      10.767  15.852  17.124  0.00  0.00    +0.000 C 
BRANCH  29  30
ATOM     30  N   UNL     1      11.640  16.581  18.029  0.00  0.00    +0.000 NA
ATOM     31  H   UNL     1      11.202  16.597  18.951  0.00  0.00    +0.000 HD
ATOM     32  H   UNL     1      11.748  17.542  17.692  0.00  0.00    +0.000 HD
ENDBRANCH  29  30
ENDBRANCH  28  29
ENDBRANCH  27  28
ENDBRANCH  26  27
ENDBRANCH  25  26
ENDBRANCH  24  25
ENDBRANCH  23  24
ENDBRANCH  22  23
ENDBRANCH  20  22
ENDBRANCH  19  20
ENDBRANCH  18  19
ENDBRANCH   1  18
TORSDOF 25
ENDMDL
