MODEL 1
REMARK VINA RESULT:      -8.7      0.000      0.000
REMARK  Name = 
REMARK  6 active torsions:
REMARK  status: ('A' for Active; 'I' for Inactive)
REMARK    1  A    between atoms: C_1  and  N_2
REMARK    2  A    between atoms: N_2  and  C_3
REMARK    3  A    between atoms: N_2  and  S_9
REMARK    4  A    between atoms: C_3  and  C_4
REMARK    5  A    between atoms: S_9  and  C_12
REMARK    6  A    between atoms: C_17  and  C_19
REMARK                            x       y       z     vdW  Elec       q    Type
REMARK                         _______ _______ _______ _____ _____    ______ ____
ROOT
ATOM      1  C   UNL     1       6.637   5.536  17.596  0.00  0.00    +0.000 A 
ATOM      2  N   UNL     1       7.278   5.097  18.663  0.00  0.00    +0.000 NA
ATOM      3  N   UNL     1       8.120   6.064  19.182  0.00  0.00    +0.000 NA
ATOM      4  C   UNL     1       8.034   7.199  18.523  0.00  0.00    +0.000 A 
ATOM      5  N   UNL     1       8.790   8.302  18.857  0.00  0.00    +0.000 N 
ATOM      6  C   UNL     1       8.570   9.581  18.401  0.00  0.00    +0.000 C 
ATOM      7  O   UNL     1       7.659   9.940  17.662  0.00  0.00    +0.000 OA
ATOM      8  S   UNL     1       6.965   7.158  17.190  0.00  0.00    +0.000 S 
ATOM      9  H   UNL     1       9.439   8.133  19.612  0.00  0.00    +0.000 HD
ENDROOT
BRANCH   6  10
ATOM     10  C   UNL     1       9.499  10.634  18.907  0.00  0.00    +0.000 A 
ATOM     11  C   UNL     1       9.719  10.863  20.271  0.00  0.00    +0.000 A 
ATOM     12  C   UNL     1      10.650  11.825  20.676  0.00  0.00    +0.000 A 
ATOM     13  C   UNL     1      11.363  12.557  19.725  0.00  0.00    +0.000 A 
ATOM     14  C   UNL     1      11.142  12.330  18.368  0.00  0.00    +0.000 A 
ATOM     15 CL   UNL     1      12.025  13.228  17.195  0.00  0.00    +0.000 Cl
ATOM     16  C   UNL     1      10.217  11.375  17.956  0.00  0.00    +0.000 A 
ENDBRANCH   6  10
BRANCH   1  17
ATOM     17  S   UNL     1       5.572   4.565  16.563  0.00  0.00    +0.000 S 
ATOM     18  O   UNL     1       6.433   3.530  16.029  0.00  0.00    +0.000 OA
ATOM     19  O   UNL     1       4.897   5.484  15.667  0.00  0.00    +0.000 OA
BRANCH  17  21
ATOM     20  C   UNL     1       4.857   3.388  18.874  0.00  0.00    +0.000 C 
ATOM     21  N   UNL     1       4.362   3.793  17.532  0.00  0.00    +0.000 NA
BRANCH  21  22
ATOM     22  C   UNL     1       3.121   4.624  17.598  0.00  0.00    +0.000 C 
BRANCH  22  23
ATOM     23  C   UNL     1       2.096   4.042  18.515  0.00  0.00    +0.000 A 
ATOM     24  C   UNL     1       1.621   4.385  19.765  0.00  0.00    +0.000 A 
ATOM     25  C   UNL     1       0.700   3.376  20.135  0.00  0.00    +0.000 A 
ATOM     26  C   UNL     1       0.671   2.481  19.092  0.00  0.00    +0.000 A 
ATOM     27  O   UNL     1       1.508   2.881  18.100  0.00  0.00    +0.000 OA
ENDBRANCH  22  23
ENDBRANCH  21  22
ENDBRANCH  17  21
ENDBRANCH   1  17
TORSDOF 5
ENDMDL
MODEL 2
REMARK VINA RESULT:      -8.7      0.904      1.149
REMARK  Name = 
REMARK  6 active torsions:
REMARK  status: ('A' for Active; 'I' for Inactive)
REMARK    1  A    between atoms: C_1  and  N_2
REMARK    2  A    between atoms: N_2  and  C_3
REMARK    3  A    between atoms: N_2  and  S_9
REMARK    4  A    between atoms: C_3  and  C_4
REMARK    5  A    between atoms: S_9  and  C_12
REMARK    6  A    between atoms: C_17  and  C_19
REMARK                            x       y       z     vdW  Elec       q    Type
REMARK                         _______ _______ _______ _____ _____    ______ ____
ROOT
ATOM      1  C   UNL     1       6.532   5.602  17.620  0.00  0.00    +0.000 A 
ATOM      2  N   UNL     1       7.239   5.128  18.629  0.00  0.00    +0.000 NA
ATOM      3  N   UNL     1       8.126   6.073  19.115  0.00  0.00    +0.000 NA
ATOM      4  C   UNL     1       8.009   7.226  18.494  0.00  0.00    +0.000 A 
ATOM      5  N   UNL     1       8.798   8.312  18.805  0.00  0.00    +0.000 N 
ATOM      6  C   UNL     1       8.563   9.605  18.398  0.00  0.00    +0.000 C 
ATOM      7  O   UNL     1       7.608   9.993  17.733  0.00  0.00    +0.000 OA
ATOM      8  S   UNL     1       6.850   7.232  17.236  0.00  0.00    +0.000 S 
ATOM      9  H   UNL     1       9.495   8.116  19.508  0.00  0.00    +0.000 HD
ENDROOT
BRANCH   6  10
ATOM     10  C   UNL     1       9.536  10.635  18.867  0.00  0.00    +0.000 A 
ATOM     11  C   UNL     1       9.761  10.907  20.222  0.00  0.00    +0.000 A 
ATOM     12  C   UNL     1      10.734  11.842  20.594  0.00  0.00    +0.000 A 
ATOM     13  C   UNL     1      11.481  12.504  19.618  0.00  0.00    +0.000 A 
ATOM     14  C   UNL     1      11.255  12.234  18.270  0.00  0.00    +0.000 A 
ATOM     15 CL   UNL     1      12.181  13.044  17.068  0.00  0.00    +0.000 Cl
ATOM     16  C   UNL     1      10.290  11.305  17.891  0.00  0.00    +0.000 A 
ENDBRANCH   6  10
BRANCH   1  17
ATOM     17  S   UNL     1       5.388   4.670  16.638  0.00  0.00    +0.000 S 
ATOM     18  O   UNL     1       6.065   3.413  16.391  0.00  0.00    +0.000 OA
ATOM     19  O   UNL     1       4.997   5.515  15.526  0.00  0.00    +0.000 OA
BRANCH  17  21
ATOM     20  C   UNL     1       3.056   3.355  16.901  0.00  0.00    +0.000 C 
ATOM     21  N   UNL     1       3.965   4.328  17.563  0.00  0.00    +0.000 NA
BRANCH  21  22
ATOM     22  C   UNL     1       4.319   3.933  18.960  0.00  0.00    +0.000 C 
BRANCH  22  23
ATOM     23  C   UNL     1       3.113   3.762  19.824  0.00  0.00    +0.000 A 
ATOM     24  C   UNL     1       2.630   2.731  20.606  0.00  0.00    +0.000 A 
ATOM     25  C   UNL     1       1.382   3.164  21.115  0.00  0.00    +0.000 A 
ATOM     26  C   UNL     1       1.181   4.428  20.614  0.00  0.00    +0.000 A 
ATOM     27  O   UNL     1       2.229   4.803  19.837  0.00  0.00    +0.000 OA
ENDBRANCH  22  23
ENDBRANCH  21  22
ENDBRANCH  17  21
ENDBRANCH   1  17
TORSDOF 5
ENDMDL
MODEL 3
REMARK VINA RESULT:      -8.7      1.721      2.226
REMARK  Name = 
REMARK  6 active torsions:
REMARK  status: ('A' for Active; 'I' for Inactive)
REMARK    1  A    between atoms: C_1  and  N_2
REMARK    2  A    between atoms: N_2  and  C_3
REMARK    3  A    between atoms: N_2  and  S_9
REMARK    4  A    between atoms: C_3  and  C_4
REMARK    5  A    between atoms: S_9  and  C_12
REMARK    6  A    between atoms: C_17  and  C_19
REMARK                            x       y       z     vdW  Elec       q    Type
REMARK                         _______ _______ _______ _____ _____    ______ ____
ROOT
ATOM      1  C   UNL     1       6.469   5.599  17.543  0.00  0.00    +0.000 A 
ATOM      2  N   UNL     1       7.158   5.111  18.556  0.00  0.00    +0.000 NA
ATOM      3  N   UNL     1       8.047   6.044  19.061  0.00  0.00    +0.000 NA
ATOM      4  C   UNL     1       7.947   7.203  18.448  0.00  0.00    +0.000 A 
ATOM      5  N   UNL     1       8.742   8.280  18.778  0.00  0.00    +0.000 N 
ATOM      6  C   UNL     1       8.523   9.578  18.379  0.00  0.00    +0.000 C 
ATOM      7  O   UNL     1       7.580   9.979  17.705  0.00  0.00    +0.000 OA
ATOM      8  S   UNL     1       6.806   7.229  17.176  0.00  0.00    +0.000 S 
ATOM      9  H   UNL     1       9.428   8.072  19.489  0.00  0.00    +0.000 HD
ENDROOT
BRANCH   6  10
ATOM     10  C   UNL     1       9.499  10.595  18.869  0.00  0.00    +0.000 A 
ATOM     11  C   UNL     1       9.713  10.850  20.230  0.00  0.00    +0.000 A 
ATOM     12  C   UNL     1      10.688  11.774  20.621  0.00  0.00    +0.000 A 
ATOM     13  C   UNL     1      11.449  12.442  19.660  0.00  0.00    +0.000 A 
ATOM     14  C   UNL     1      11.234  12.190  18.307  0.00  0.00    +0.000 A 
ATOM     15 CL   UNL     1      12.176  13.008  17.123  0.00  0.00    +0.000 Cl
ATOM     16  C   UNL     1      10.266  11.272  17.908  0.00  0.00    +0.000 A 
ENDBRANCH   6  10
BRANCH   1  17
ATOM     17  S   UNL     1       5.330   4.685  16.538  0.00  0.00    +0.000 S 
ATOM     18  O   UNL     1       5.800   3.317  16.614  0.00  0.00    +0.000 OA
ATOM     19  O   UNL     1       5.259   5.359  15.256  0.00  0.00    +0.000 OA
BRANCH  17  21
ATOM     20  C   UNL     1       3.109   3.401  17.346  0.00  0.00    +0.000 C 
ATOM     21  N   UNL     1       3.750   4.738  17.246  0.00  0.00    +0.000 NA
BRANCH  21  22
ATOM     22  C   UNL     1       3.775   5.468  18.550  0.00  0.00    +0.000 C 
BRANCH  22  23
ATOM     23  C   UNL     1       3.043   6.768  18.487  0.00  0.00    +0.000 A 
ATOM     24  C   UNL     1       2.961   7.779  17.551  0.00  0.00    +0.000 A 
ATOM     25  C   UNL     1       2.157   8.793  18.124  0.00  0.00    +0.000 A 
ATOM     26  C   UNL     1       1.800   8.341  19.371  0.00  0.00    +0.000 A 
ATOM     27  O   UNL     1       2.325   7.109  19.598  0.00  0.00    +0.000 OA
ENDBRANCH  22  23
ENDBRANCH  21  22
ENDBRANCH  17  21
ENDBRANCH   1  17
TORSDOF 5
ENDMDL
MODEL 4
REMARK VINA RESULT:      -8.5      1.327      1.605
REMARK  Name = 
REMARK  6 active torsions:
REMARK  status: ('A' for Active; 'I' for Inactive)
REMARK    1  A    between atoms: C_1  and  N_2
REMARK    2  A    between atoms: N_2  and  C_3
REMARK    3  A    between atoms: N_2  and  S_9
REMARK    4  A    between atoms: C_3  and  C_4
REMARK    5  A    between atoms: S_9  and  C_12
REMARK    6  A    between atoms: C_17  and  C_19
REMARK                            x       y       z     vdW  Elec       q    Type
REMARK                         _______ _______ _______ _____ _____    ______ ____
ROOT
ATOM      1  C   UNL     1       6.564   5.558  17.349  0.00  0.00    +0.000 A 
ATOM      2  N   UNL     1       7.111   5.039  18.432  0.00  0.00    +0.000 NA
ATOM      3  N   UNL     1       7.953   5.942  19.057  0.00  0.00    +0.000 NA
ATOM      4  C   UNL     1       7.958   7.112  18.455  0.00  0.00    +0.000 A 
ATOM      5  N   UNL     1       8.731   8.163  18.897  0.00  0.00    +0.000 N 
ATOM      6  C   UNL     1       8.595   9.471  18.494  0.00  0.00    +0.000 C 
ATOM      7  O   UNL     1       7.753   9.905  17.716  0.00  0.00    +0.000 OA
ATOM      8  S   UNL     1       6.983   7.183  17.053  0.00  0.00    +0.000 S 
ATOM      9  H   UNL     1       9.320   7.928  19.683  0.00  0.00    +0.000 HD
ENDROOT
BRANCH   6  10
ATOM     10  C   UNL     1       9.527  10.456  19.116  0.00  0.00    +0.000 A 
ATOM     11  C   UNL     1      10.703  10.891  18.489  0.00  0.00    +0.000 A 
ATOM     12  C   UNL     1      11.500  11.865  19.101  0.00  0.00    +0.000 A 
ATOM     13  C   UNL     1      11.128  12.405  20.334  0.00  0.00    +0.000 A 
ATOM     14  C   UNL     1       9.960  11.971  20.956  0.00  0.00    +0.000 A 
ATOM     15 CL   UNL     1       9.497  12.642  22.471  0.00  0.00    +0.000 Cl
ATOM     16  C   UNL     1       9.160  11.003  20.355  0.00  0.00    +0.000 A 
ENDBRANCH   6  10
BRANCH   1  17
ATOM     17  S   UNL     1       5.535   4.686  16.198  0.00  0.00    +0.000 S 
ATOM     18  O   UNL     1       6.315   3.523  15.826  0.00  0.00    +0.000 OA
ATOM     19  O   UNL     1       5.127   5.641  15.186  0.00  0.00    +0.000 OA
BRANCH  17  21
ATOM     20  C   UNL     1       4.333   2.909  17.820  0.00  0.00    +0.000 C 
ATOM     21  N   UNL     1       4.105   4.126  16.998  0.00  0.00    +0.000 NA
BRANCH  21  22
ATOM     22  C   UNL     1       3.456   5.232  17.766  0.00  0.00    +0.000 C 
BRANCH  22  23
ATOM     23  C   UNL     1       2.546   4.722  18.835  0.00  0.00    +0.000 A 
ATOM     24  C   UNL     1       2.552   4.787  20.213  0.00  0.00    +0.000 A 
ATOM     25  C   UNL     1       1.443   4.028  20.657  0.00  0.00    +0.000 A 
ATOM     26  C   UNL     1       0.831   3.546  19.525  0.00  0.00    +0.000 A 
ATOM     27  O   UNL     1       1.487   3.969  18.414  0.00  0.00    +0.000 OA
ENDBRANCH  22  23
ENDBRANCH  21  22
ENDBRANCH  17  21
ENDBRANCH   1  17
TORSDOF 5
ENDMDL
MODEL 5
REMARK VINA RESULT:      -8.3      5.648      7.768
REMARK  Name = 
REMARK  6 active torsions:
REMARK  status: ('A' for Active; 'I' for Inactive)
REMARK    1  A    between atoms: C_1  and  N_2
REMARK    2  A    between atoms: N_2  and  C_3
REMARK    3  A    between atoms: N_2  and  S_9
REMARK    4  A    between atoms: C_3  and  C_4
REMARK    5  A    between atoms: S_9  and  C_12
REMARK    6  A    between atoms: C_17  and  C_19
REMARK                            x       y       z     vdW  Elec       q    Type
REMARK                         _______ _______ _______ _____ _____    ______ ____
ROOT
ATOM      1  C   UNL     1       3.811   5.488  18.849  0.00  0.00    +0.000 A 
ATOM      2  N   UNL     1       3.052   5.260  19.904  0.00  0.00    +0.000 NA
ATOM      3  N   UNL     1       2.218   6.332  20.170  0.00  0.00    +0.000 NA
ATOM      4  C   UNL     1       2.343   7.289  19.276  0.00  0.00    +0.000 A 
ATOM      5  N   UNL     1       1.618   8.458  19.345  0.00  0.00    +0.000 N 
ATOM      6  C   UNL     1       1.493   9.375  18.327  0.00  0.00    +0.000 C 
ATOM      7  O   UNL     1       1.975   9.278  17.203  0.00  0.00    +0.000 OA
ATOM      8  S   UNL     1       3.523   6.980  18.079  0.00  0.00    +0.000 S 
ATOM      9  H   UNL     1       1.031   8.521  20.165  0.00  0.00    +0.000 HD
ENDROOT
BRANCH   6  10
ATOM     10  C   UNL     1       0.640  10.566  18.608  0.00  0.00    +0.000 A 
ATOM     11  C   UNL     1       1.163  11.788  19.050  0.00  0.00    +0.000 A 
ATOM     12  C   UNL     1       0.313  12.884  19.235  0.00  0.00    +0.000 A 
ATOM     13  C   UNL     1      -1.054  12.765  18.978  0.00  0.00    +0.000 A 
ATOM     14  C   UNL     1      -1.573  11.549  18.540  0.00  0.00    +0.000 A 
ATOM     15 CL   UNL     1      -3.256  11.403  18.216  0.00  0.00    +0.000 Cl
ATOM     16  C   UNL     1      -0.735  10.453  18.353  0.00  0.00    +0.000 A 
ENDBRANCH   6  10
BRANCH   1  17
ATOM     17  S   UNL     1       5.103   4.425  18.262  0.00  0.00    +0.000 S 
ATOM     18  O   UNL     1       4.438   3.524  17.343  0.00  0.00    +0.000 OA
ATOM     19  O   UNL     1       5.784   3.900  19.430  0.00  0.00    +0.000 OA
BRANCH  17  21
ATOM     20  C   UNL     1       6.947   6.381  18.167  0.00  0.00    +0.000 C 
ATOM     21  N   UNL     1       6.253   5.347  17.354  0.00  0.00    +0.000 NA
BRANCH  21  22
ATOM     22  C   UNL     1       7.202   4.450  16.627  0.00  0.00    +0.000 C 
BRANCH  22  23
ATOM     23  C   UNL     1       6.984   4.472  15.149  0.00  0.00    +0.000 A 
ATOM     24  C   UNL     1       6.155   3.779  14.290  0.00  0.00    +0.000 A 
ATOM     25  C   UNL     1       6.486   4.204  12.981  0.00  0.00    +0.000 A 
ATOM     26  C   UNL     1       7.494   5.128  13.122  0.00  0.00    +0.000 A 
ATOM     27  O   UNL     1       7.797   5.305  14.434  0.00  0.00    +0.000 OA
ENDBRANCH  22  23
ENDBRANCH  21  22
ENDBRANCH  17  21
ENDBRANCH   1  17
TORSDOF 5
ENDMDL
MODEL 6
REMARK VINA RESULT:      -8.1      7.459      9.790
REMARK  Name = 
REMARK  6 active torsions:
REMARK  status: ('A' for Active; 'I' for Inactive)
REMARK    1  A    between atoms: C_1  and  N_2
REMARK    2  A    between atoms: N_2  and  C_3
REMARK    3  A    between atoms: N_2  and  S_9
REMARK    4  A    between atoms: C_3  and  C_4
REMARK    5  A    between atoms: S_9  and  C_12
REMARK    6  A    between atoms: C_17  and  C_19
REMARK                            x       y       z     vdW  Elec       q    Type
REMARK                         _______ _______ _______ _____ _____    ______ ____
ROOT
ATOM      1  C   UNL     1       0.646  10.737  21.249  0.00  0.00    +0.000 A 
ATOM      2  N   UNL     1       0.753  10.137  22.419  0.00  0.00    +0.000 NA
ATOM      3  N   UNL     1       1.185   8.830  22.282  0.00  0.00    +0.000 NA
ATOM      4  C   UNL     1       1.438   8.522  21.028  0.00  0.00    +0.000 A 
ATOM      5  N   UNL     1       1.872   7.270  20.652  0.00  0.00    +0.000 N 
ATOM      6  C   UNL     1       2.405   6.951  19.425  0.00  0.00    +0.000 C 
ATOM      7  O   UNL     1       2.606   7.730  18.499  0.00  0.00    +0.000 OA
ATOM      8  S   UNL     1       1.117   9.782  19.918  0.00  0.00    +0.000 S 
ATOM      9  H   UNL     1       1.923   6.614  21.418  0.00  0.00    +0.000 HD
ENDROOT
BRANCH   6  10
ATOM     10  C   UNL     1       2.830   5.534  19.234  0.00  0.00    +0.000 A 
ATOM     11  C   UNL     1       4.171   5.129  19.284  0.00  0.00    +0.000 A 
ATOM     12  C   UNL     1       4.495   3.774  19.159  0.00  0.00    +0.000 A 
ATOM     13  C   UNL     1       3.487   2.823  18.986  0.00  0.00    +0.000 A 
ATOM     14  C   UNL     1       2.155   3.227  18.935  0.00  0.00    +0.000 A 
ATOM     15 CL   UNL     1       0.913   2.055  18.728  0.00  0.00    +0.000 Cl
ATOM     16  C   UNL     1       1.823   4.573  19.058  0.00  0.00    +0.000 A 
ENDBRANCH   6  10
BRANCH   1  17
ATOM     17  S   UNL     1      -0.002  12.365  20.982  0.00  0.00    +0.000 S 
ATOM     18  O   UNL     1       0.940  12.983  20.071  0.00  0.00    +0.000 OA
ATOM     19  O   UNL     1      -0.237  12.948  22.289  0.00  0.00    +0.000 OA
BRANCH  17  21
ATOM     20  C   UNL     1      -2.563  13.155  20.758  0.00  0.00    +0.000 C 
ATOM     21  N   UNL     1      -1.528  12.264  20.171  0.00  0.00    +0.000 NA
BRANCH  21  22
ATOM     22  C   UNL     1      -1.363  12.457  18.698  0.00  0.00    +0.000 C 
BRANCH  22  23
ATOM     23  C   UNL     1      -2.099  11.429  17.905  0.00  0.00    +0.000 A 
ATOM     24  C   UNL     1      -1.756  10.207  17.362  0.00  0.00    +0.000 A 
ATOM     25  C   UNL     1      -2.888   9.752  16.646  0.00  0.00    +0.000 A 
ATOM     26  C   UNL     1      -3.850  10.721  16.793  0.00  0.00    +0.000 A 
ATOM     27  O   UNL     1      -3.385  11.739  17.563  0.00  0.00    +0.000 OA
ENDBRANCH  22  23
ENDBRANCH  21  22
ENDBRANCH  17  21
ENDBRANCH   1  17
TORSDOF 5
ENDMDL
MODEL 7
REMARK VINA RESULT:      -8.0      5.513      8.080
REMARK  Name = 
REMARK  6 active torsions:
REMARK  status: ('A' for Active; 'I' for Inactive)
REMARK    1  A    between atoms: C_1  and  N_2
REMARK    2  A    between atoms: N_2  and  C_3
REMARK    3  A    between atoms: N_2  and  S_9
REMARK    4  A    between atoms: C_3  and  C_4
REMARK    5  A    between atoms: S_9  and  C_12
REMARK    6  A    between atoms: C_17  and  C_19
REMARK                            x       y       z     vdW  Elec       q    Type
REMARK                         _______ _______ _______ _____ _____    ______ ____
ROOT
ATOM      1  C   UNL     1       3.696   6.170  17.989  0.00  0.00    +0.000 A 
ATOM      2  N   UNL     1       3.758   7.244  17.225  0.00  0.00    +0.000 NA
ATOM      3  N   UNL     1       2.939   8.253  17.700  0.00  0.00    +0.000 NA
ATOM      4  C   UNL     1       2.345   7.918  18.824  0.00  0.00    +0.000 A 
ATOM      5  N   UNL     1       1.474   8.764  19.475  0.00  0.00    +0.000 N 
ATOM      6  C   UNL     1       1.028   8.602  20.766  0.00  0.00    +0.000 C 
ATOM      7  O   UNL     1       1.358   7.710  21.540  0.00  0.00    +0.000 OA
ATOM      8  S   UNL     1       2.695   6.332  19.358  0.00  0.00    +0.000 S 
ATOM      9  H   UNL     1       1.305   9.628  18.980  0.00  0.00    +0.000 HD
ENDROOT
BRANCH   6  10
ATOM     10  C   UNL     1       0.101   9.651  21.284  0.00  0.00    +0.000 A 
ATOM     11  C   UNL     1      -0.254   9.752  22.636  0.00  0.00    +0.000 A 
ATOM     12  C   UNL     1      -1.079  10.798  23.063  0.00  0.00    +0.000 A 
ATOM     13  C   UNL     1      -1.549  11.742  22.149  0.00  0.00    +0.000 A 
ATOM     14  C   UNL     1      -1.197  11.640  20.805  0.00  0.00    +0.000 A 
ATOM     15 CL   UNL     1      -1.770  12.807  19.679  0.00  0.00    +0.000 Cl
ATOM     16  C   UNL     1      -0.376  10.603  20.370  0.00  0.00    +0.000 A 
ENDBRANCH   6  10
BRANCH   1  17
ATOM     17  S   UNL     1       4.488   4.620  17.652  0.00  0.00    +0.000 S 
ATOM     18  O   UNL     1       3.514   3.879  16.876  0.00  0.00    +0.000 OA
ATOM     19  O   UNL     1       4.954   4.096  18.922  0.00  0.00    +0.000 OA
BRANCH  17  21
ATOM     20  C   UNL     1       7.088   5.265  17.416  0.00  0.00    +0.000 C 
ATOM     21  N   UNL     1       5.876   4.876  16.649  0.00  0.00    +0.000 NA
BRANCH  21  22
ATOM     22  C   UNL     1       6.109   3.704  15.752  0.00  0.00    +0.000 C 
BRANCH  22  23
ATOM     23  C   UNL     1       6.526   4.115  14.378  0.00  0.00    +0.000 A 
ATOM     24  C   UNL     1       6.189   3.696  13.107  0.00  0.00    +0.000 A 
ATOM     25  C   UNL     1       7.000   4.434  12.212  0.00  0.00    +0.000 A 
ATOM     26  C   UNL     1       7.781   5.254  12.990  0.00  0.00    +0.000 A 
ATOM     27  O   UNL     1       7.495   5.075  14.305  0.00  0.00    +0.000 OA
ENDBRANCH  22  23
ENDBRANCH  21  22
ENDBRANCH  17  21
ENDBRANCH   1  17
TORSDOF 5
ENDMDL
MODEL 8
REMARK VINA RESULT:      -8.0      5.615      7.466
REMARK  Name = 
REMARK  6 active torsions:
REMARK  status: ('A' for Active; 'I' for Inactive)
REMARK    1  A    between atoms: C_1  and  N_2
REMARK    2  A    between atoms: N_2  and  C_3
REMARK    3  A    between atoms: N_2  and  S_9
REMARK    4  A    between atoms: C_3  and  C_4
REMARK    5  A    between atoms: S_9  and  C_12
REMARK    6  A    between atoms: C_17  and  C_19
REMARK                            x       y       z     vdW  Elec       q    Type
REMARK                         _______ _______ _______ _____ _____    ______ ____
ROOT
ATOM      1  C   UNL     1       5.635   5.475  17.616  0.00  0.00    +0.000 A 
ATOM      2  N   UNL     1       5.196   4.806  18.666  0.00  0.00    +0.000 NA
ATOM      3  N   UNL     1       4.152   5.467  19.288  0.00  0.00    +0.000 NA
ATOM      4  C   UNL     1       3.814   6.567  18.651  0.00  0.00    +0.000 A 
ATOM      5  N   UNL     1       2.804   7.392  19.094  0.00  0.00    +0.000 N 
ATOM      6  C   UNL     1       2.220   8.397  18.358  0.00  0.00    +0.000 C 
ATOM      7  O   UNL     1       2.482   8.688  17.196  0.00  0.00    +0.000 OA
ATOM      8  S   UNL     1       4.777   6.908  17.280  0.00  0.00    +0.000 S 
ATOM      9  H   UNL     1       2.395   7.095  19.969  0.00  0.00    +0.000 HD
ENDROOT
BRANCH   6  10
ATOM     10  C   UNL     1       1.126   9.159  19.027  0.00  0.00    +0.000 A 
ATOM     11  C   UNL     1       0.210   9.951  18.322  0.00  0.00    +0.000 A 
ATOM     12  C   UNL     1      -0.831  10.589  19.005  0.00  0.00    +0.000 A 
ATOM     13  C   UNL     1      -0.961  10.439  20.387  0.00  0.00    +0.000 A 
ATOM     14  C   UNL     1      -0.049   9.653  21.087  0.00  0.00    +0.000 A 
ATOM     15 CL   UNL     1      -0.213   9.461  22.789  0.00  0.00    +0.000 Cl
ATOM     16  C   UNL     1       0.990   9.013  20.416  0.00  0.00    +0.000 A 
ENDBRANCH   6  10
BRANCH   1  17
ATOM     17  S   UNL     1       7.043   5.037  16.632  0.00  0.00    +0.000 S 
ATOM     18  O   UNL     1       7.918   4.332  17.547  0.00  0.00    +0.000 OA
ATOM     19  O   UNL     1       7.499   6.249  15.980  0.00  0.00    +0.000 OA
BRANCH  17  21
ATOM     20  C   UNL     1       5.273   3.250  15.677  0.00  0.00    +0.000 C 
ATOM     21  N   UNL     1       6.570   3.922  15.394  0.00  0.00    +0.000 NA
BRANCH  21  22
ATOM     22  C   UNL     1       6.604   4.573  14.049  0.00  0.00    +0.000 C 
BRANCH  22  23
ATOM     23  C   UNL     1       6.040   3.696  12.980  0.00  0.00    +0.000 A 
ATOM     24  C   UNL     1       6.554   2.679  12.201  0.00  0.00    +0.000 A 
ATOM     25  C   UNL     1       5.525   2.299  11.306  0.00  0.00    +0.000 A 
ATOM     26  C   UNL     1       4.450   3.106  11.593  0.00  0.00    +0.000 A 
ATOM     27  O   UNL     1       4.749   3.950  12.613  0.00  0.00    +0.000 OA
ENDBRANCH  22  23
ENDBRANCH  21  22
ENDBRANCH  17  21
ENDBRANCH   1  17
TORSDOF 5
ENDMDL
MODEL 9
REMARK VINA RESULT:      -8.0      7.002      9.286
REMARK  Name = 
REMARK  6 active torsions:
REMARK  status: ('A' for Active; 'I' for Inactive)
REMARK    1  A    between atoms: C_1  and  N_2
REMARK    2  A    between atoms: N_2  and  C_3
REMARK    3  A    between atoms: N_2  and  S_9
REMARK    4  A    between atoms: C_3  and  C_4
REMARK    5  A    between atoms: S_9  and  C_12
REMARK    6  A    between atoms: C_17  and  C_19
REMARK                            x       y       z     vdW  Elec       q    Type
REMARK                         _______ _______ _______ _____ _____    ______ ____
ROOT
ATOM      1  C   UNL     1       0.582  10.549  21.127  0.00  0.00    +0.000 A 
ATOM      2  N   UNL     1       0.904   9.791  22.158  0.00  0.00    +0.000 NA
ATOM      3  N   UNL     1       1.437   8.580  21.751  0.00  0.00    +0.000 NA
ATOM      4  C   UNL     1       1.545   8.503  20.443  0.00  0.00    +0.000 A 
ATOM      5  N   UNL     1       2.042   7.384  19.811  0.00  0.00    +0.000 N 
ATOM      6  C   UNL     1       2.432   7.325  18.493  0.00  0.00    +0.000 C 
ATOM      7  O   UNL     1       2.430   8.256  17.695  0.00  0.00    +0.000 OA
ATOM      8  S   UNL     1       0.957   9.874  19.608  0.00  0.00    +0.000 S 
ATOM      9  H   UNL     1       2.260   6.627  20.444  0.00  0.00    +0.000 HD
ENDROOT
BRANCH   6  10
ATOM     10  C   UNL     1       2.962   6.014  18.017  0.00  0.00    +0.000 A 
ATOM     11  C   UNL     1       2.192   4.843  18.000  0.00  0.00    +0.000 A 
ATOM     12  C   UNL     1       2.732   3.662  17.481  0.00  0.00    +0.000 A 
ATOM     13  C   UNL     1       4.035   3.644  16.980  0.00  0.00    +0.000 A 
ATOM     14  C   UNL     1       4.800   4.808  16.999  0.00  0.00    +0.000 A 
ATOM     15 CL   UNL     1       6.403   4.789  16.375  0.00  0.00    +0.000 Cl
ATOM     16  C   UNL     1       4.271   5.989  17.513  0.00  0.00    +0.000 A 
ENDBRANCH   6  10
BRANCH   1  17
ATOM     17  S   UNL     1      -0.249  12.112  21.218  0.00  0.00    +0.000 S 
ATOM     18  O   UNL     1       0.610  13.020  20.485  0.00  0.00    +0.000 OA
ATOM     19  O   UNL     1      -0.539  12.358  22.618  0.00  0.00    +0.000 OA
BRANCH  17  21
ATOM     20  C   UNL     1      -2.863  12.730  21.079  0.00  0.00    +0.000 C 
ATOM     21  N   UNL     1      -1.760  12.023  20.377  0.00  0.00    +0.000 NA
BRANCH  21  22
ATOM     22  C   UNL     1      -1.605  12.457  18.955  0.00  0.00    +0.000 C 
BRANCH  22  23
ATOM     23  C   UNL     1      -2.145  11.451  17.993  0.00  0.00    +0.000 A 
ATOM     24  C   UNL     1      -2.554  10.138  18.105  0.00  0.00    +0.000 A 
ATOM     25  C   UNL     1      -2.887   9.707  16.799  0.00  0.00    +0.000 A 
ATOM     26  C   UNL     1      -2.661  10.781  15.972  0.00  0.00    +0.000 A 
ATOM     27  O   UNL     1      -2.219  11.847  16.687  0.00  0.00    +0.000 OA
ENDBRANCH  22  23
ENDBRANCH  21  22
ENDBRANCH  17  21
ENDBRANCH   1  17
TORSDOF 5
ENDMDL
