MODEL 1
REMARK VINA RESULT:      -6.4      0.000      0.000
REMARK  Name = 
REMARK  21 active torsions:
REMARK  status: ('A' for Active; 'I' for Inactive)
REMARK    1  A    between atoms: C_1  and  C_2
REMARK    2  A    between atoms: C_2  and  C_3
REMARK    3  A    between atoms: C_3  and  N_4
REMARK    4  A    between atoms: N_4  and  C_5
REMARK    5  A    between atoms: N_4  and  C_23
REMARK    6  A    between atoms: C_5  and  C_6
REMARK    7  A    between atoms: C_6  and  C_7
REMARK    8  A    between atoms: C_7  and  C_8
REMARK    9  A    between atoms: C_8  and  C_9
REMARK   10  A    between atoms: C_9  and  C_10
REMARK   11  A    between atoms: C_10  and  N_11
REMARK   12  A    between atoms: N_11  and  C_12
REMARK   13  A    between atoms: N_11  and  C_15
REMARK   14  A    between atoms: C_12  and  C_13
REMARK   15  A    between atoms: C_13  and  C_14
REMARK   16  A    between atoms: C_15  and  C_16
REMARK   17  A    between atoms: C_16  and  C_17
REMARK   18  A    between atoms: C_23  and  C_24
REMARK   19  A    between atoms: C_24  and  C_25
REMARK   20  A    between atoms: C_28  and  S_29
REMARK   21  A    between atoms: S_29  and  C_30
REMARK                            x       y       z     vdW  Elec       q    Type
REMARK                         _______ _______ _______ _____ _____    ______ ____
ROOT
ATOM      1  C   UNL     1       1.614  10.598  18.580  0.00  0.00    +0.000 C 
ENDROOT
BRANCH   1   2
ATOM      2  C   UNL     1       1.443   9.219  17.920  0.00  0.00    +0.000 C 
BRANCH   2   3
ATOM      3  C   UNL     1       2.272   8.124  18.554  0.00  0.00    +0.000 C 
BRANCH   3   4
ATOM      4  C   UNL     1       2.781   7.089  17.562  0.00  0.00    +0.000 C 
BRANCH   4   5
ATOM      5  C   UNL     1       4.298   7.168  17.566  0.00  0.00    +0.000 C 
BRANCH   5   6
ATOM      6  C   UNL     1       4.912   6.338  16.450  0.00  0.00    +0.000 C 
BRANCH   6   7
ATOM      7  N   UNL     1       5.452   5.047  16.928  0.00  0.00    +0.000 NA
BRANCH   7   8
ATOM      8  C   UNL     1       5.479   5.030  18.407  0.00  0.00    +0.000 C 
BRANCH   8   9
ATOM      9  C   UNL     1       4.948   3.719  19.022  0.00  0.00    +0.000 C 
BRANCH   9  10
ATOM     10  C   UNL     1       3.497   3.801  19.407  0.00  0.00    +0.000 A 
ATOM     11  C   UNL     1       3.034   4.804  20.265  0.00  0.00    +0.000 A 
ATOM     12  C   UNL     1       1.682   4.869  20.581  0.00  0.00    +0.000 A 
ATOM     13  C   UNL     1       0.835   3.921  20.030  0.00  0.00    +0.000 A 
ATOM     14  N   UNL     1       1.246   2.936  19.202  0.00  0.00    +0.000 NA
ATOM     15  C   UNL     1       2.562   2.901  18.905  0.00  0.00    +0.000 A 
ENDBRANCH   9  10
ENDBRANCH   8   9
ENDBRANCH   7   8
BRANCH   7  16
ATOM     16  C   UNL     1       6.799   4.798  16.360  0.00  0.00    +0.000 C 
BRANCH  16  17
ATOM     17  C   UNL     1       6.934   4.896  14.834  0.00  0.00    +0.000 C 
ATOM     18  C   UNL     1       6.026   3.930  14.086  0.00  0.00    +0.000 C 
ENDBRANCH  16  17
ENDBRANCH   7  16
ENDBRANCH   6   7
ENDBRANCH   5   6
ENDBRANCH   4   5
ENDBRANCH   3   4
ENDBRANCH   2   3
ENDBRANCH   1   2
BRANCH   1  19
ATOM     19  N   UNL     1       0.736  10.827  19.746  0.00  0.00    +0.000 NA
BRANCH  19  20
ATOM     20  C   UNL     1       0.005  12.103  19.560  0.00  0.00    +0.000 C 
BRANCH  20  21
ATOM     21  C   UNL     1      -0.014  13.029  20.775  0.00  0.00    +0.000 C 
BRANCH  21  22
ATOM     22  C   UNL     1      -1.370  13.015  21.439  0.00  0.00    +0.000 A 
ATOM     23  C   UNL     1      -2.444  13.712  20.861  0.00  0.00    +0.000 A 
ATOM     24  C   UNL     1      -3.708  13.660  21.442  0.00  0.00    +0.000 A 
ATOM     25  C   UNL     1      -3.894  12.911  22.605  0.00  0.00    +0.000 A 
ATOM     26  C   UNL     1      -2.820  12.272  23.229  0.00  0.00    +0.000 A 
ATOM     27  C   UNL     1      -1.558  12.327  22.644  0.00  0.00    +0.000 A 
BRANCH  25  28
ATOM     28  S   UNL     1      -5.524  12.747  23.282  0.00  0.00    +0.000 S 
ATOM     29  C   UNL     1      -6.002  14.439  23.534  0.00  0.00    +0.000 C 
ATOM     30  O   UNL     1      -6.373  12.192  22.245  0.00  0.00    +0.000 OA
ATOM     31  O   UNL     1      -5.404  12.112  24.576  0.00  0.00    +0.000 OA
ENDBRANCH  25  28
ENDBRANCH  21  22
ENDBRANCH  20  21
ENDBRANCH  19  20
BRANCH  19  32
ATOM     32  C   UNL     1      -0.190   9.704  19.999  0.00  0.00    +0.000 C 
BRANCH  32  34
ATOM     33  C   UNL     1       1.201   8.760  21.926  0.00  0.00    +0.000 C 
ATOM     34  C   UNL     1      -0.189   9.092  21.409  0.00  0.00    +0.000 C 
ENDBRANCH  32  34
ENDBRANCH  19  32
ENDBRANCH   1  19
TORSDOF 18
ENDMDL
MODEL 2
REMARK VINA RESULT:      -6.4      1.452      1.924
REMARK  Name = 
REMARK  21 active torsions:
REMARK  status: ('A' for Active; 'I' for Inactive)
REMARK    1  A    between atoms: C_1  and  C_2
REMARK    2  A    between atoms: C_2  and  C_3
REMARK    3  A    between atoms: C_3  and  N_4
REMARK    4  A    between atoms: N_4  and  C_5
REMARK    5  A    between atoms: N_4  and  C_23
REMARK    6  A    between atoms: C_5  and  C_6
REMARK    7  A    between atoms: C_6  and  C_7
REMARK    8  A    between atoms: C_7  and  C_8
REMARK    9  A    between atoms: C_8  and  C_9
REMARK   10  A    between atoms: C_9  and  C_10
REMARK   11  A    between atoms: C_10  and  N_11
REMARK   12  A    between atoms: N_11  and  C_12
REMARK   13  A    between atoms: N_11  and  C_15
REMARK   14  A    between atoms: C_12  and  C_13
REMARK   15  A    between atoms: C_13  and  C_14
REMARK   16  A    between atoms: C_15  and  C_16
REMARK   17  A    between atoms: C_16  and  C_17
REMARK   18  A    between atoms: C_23  and  C_24
REMARK   19  A    between atoms: C_24  and  C_25
REMARK   20  A    between atoms: C_28  and  S_29
REMARK   21  A    between atoms: S_29  and  C_30
REMARK                            x       y       z     vdW  Elec       q    Type
REMARK                         _______ _______ _______ _____ _____    ______ ____
ROOT
ATOM      1  C   UNL     1       1.288   9.833  18.797  0.00  0.00    +0.000 C 
ENDROOT
BRANCH   1   2
ATOM      2  C   UNL     1       2.001   8.497  19.061  0.00  0.00    +0.000 C 
BRANCH   2   3
ATOM      3  C   UNL     1       2.220   7.659  17.820  0.00  0.00    +0.000 C 
BRANCH   3   4
ATOM      4  C   UNL     1       3.298   6.597  17.982  0.00  0.00    +0.000 C 
BRANCH   4   5
ATOM      5  C   UNL     1       4.497   7.041  17.161  0.00  0.00    +0.000 C 
BRANCH   5   6
ATOM      6  C   UNL     1       5.659   6.069  17.283  0.00  0.00    +0.000 C 
BRANCH   6   7
ATOM      7  N   UNL     1       5.310   4.702  16.839  0.00  0.00    +0.000 NA
BRANCH   7   8
ATOM      8  C   UNL     1       5.090   3.832  18.015  0.00  0.00    +0.000 C 
BRANCH   8   9
ATOM      9  C   UNL     1       3.907   2.855  17.851  0.00  0.00    +0.000 C 
BRANCH   9  10
ATOM     10  C   UNL     1       2.964   2.878  19.022  0.00  0.00    +0.000 A 
ATOM     11  C   UNL     1       3.419   2.621  20.319  0.00  0.00    +0.000 A 
ATOM     12  C   UNL     1       2.528   2.676  21.384  0.00  0.00    +0.000 A 
ATOM     13  C   UNL     1       1.204   2.982  21.114  0.00  0.00    +0.000 A 
ATOM     14  N   UNL     1       0.727   3.231  19.875  0.00  0.00    +0.000 NA
ATOM     15  C   UNL     1       1.616   3.180  18.860  0.00  0.00    +0.000 A 
ENDBRANCH   9  10
ENDBRANCH   8   9
ENDBRANCH   7   8
BRANCH   7  16
ATOM     16  C   UNL     1       6.364   4.153  15.951  0.00  0.00    +0.000 C 
BRANCH  16  17
ATOM     17  C   UNL     1       6.464   4.757  14.544  0.00  0.00    +0.000 C 
ATOM     18  C   UNL     1       6.053   3.788  13.443  0.00  0.00    +0.000 C 
ENDBRANCH  16  17
ENDBRANCH   7  16
ENDBRANCH   6   7
ENDBRANCH   5   6
ENDBRANCH   4   5
ENDBRANCH   3   4
ENDBRANCH   2   3
ENDBRANCH   1   2
BRANCH   1  19
ATOM     19  N   UNL     1      -0.143   9.843  19.165  0.00  0.00    +0.000 NA
BRANCH  19  20
ATOM     20  C   UNL     1      -0.285  10.365  20.545  0.00  0.00    +0.000 C 
BRANCH  20  21
ATOM     21  C   UNL     1      -0.430  11.883  20.658  0.00  0.00    +0.000 C 
BRANCH  21  22
ATOM     22  C   UNL     1      -1.703  12.246  21.384  0.00  0.00    +0.000 A 
ATOM     23  C   UNL     1      -2.742  12.898  20.700  0.00  0.00    +0.000 A 
ATOM     24  C   UNL     1      -3.937  13.189  21.352  0.00  0.00    +0.000 A 
ATOM     25  C   UNL     1      -4.089  12.830  22.691  0.00  0.00    +0.000 A 
ATOM     26  C   UNL     1      -3.038  12.245  23.403  0.00  0.00    +0.000 A 
ATOM     27  C   UNL     1      -1.845  11.956  22.746  0.00  0.00    +0.000 A 
BRANCH  25  28
ATOM     28  S   UNL     1      -5.648  13.093  23.492  0.00  0.00    +0.000 S 
ATOM     29  C   UNL     1      -6.806  12.747  22.189  0.00  0.00    +0.000 C 
ATOM     30  O   UNL     1      -5.797  12.065  24.505  0.00  0.00    +0.000 OA
ATOM     31  O   UNL     1      -5.745  14.496  23.825  0.00  0.00    +0.000 OA
ENDBRANCH  25  28
ENDBRANCH  21  22
ENDBRANCH  20  21
ENDBRANCH  19  20
BRANCH  19  32
ATOM     32  C   UNL     1      -0.978  10.600  18.211  0.00  0.00    +0.000 C 
BRANCH  32  34
ATOM     33  C   UNL     1      -3.284  11.104  17.225  0.00  0.00    +0.000 C 
ATOM     34  C   UNL     1      -2.423  10.120  18.002  0.00  0.00    +0.000 C 
ENDBRANCH  32  34
ENDBRANCH  19  32
ENDBRANCH   1  19
TORSDOF 18
ENDMDL
MODEL 3
REMARK VINA RESULT:      -6.2      5.437     10.505
REMARK  Name = 
REMARK  21 active torsions:
REMARK  status: ('A' for Active; 'I' for Inactive)
REMARK    1  A    between atoms: C_1  and  C_2
REMARK    2  A    between atoms: C_2  and  C_3
REMARK    3  A    between atoms: C_3  and  N_4
REMARK    4  A    between atoms: N_4  and  C_5
REMARK    5  A    between atoms: N_4  and  C_23
REMARK    6  A    between atoms: C_5  and  C_6
REMARK    7  A    between atoms: C_6  and  C_7
REMARK    8  A    between atoms: C_7  and  C_8
REMARK    9  A    between atoms: C_8  and  C_9
REMARK   10  A    between atoms: C_9  and  C_10
REMARK   11  A    between atoms: C_10  and  N_11
REMARK   12  A    between atoms: N_11  and  C_12
REMARK   13  A    between atoms: N_11  and  C_15
REMARK   14  A    between atoms: C_12  and  C_13
REMARK   15  A    between atoms: C_13  and  C_14
REMARK   16  A    between atoms: C_15  and  C_16
REMARK   17  A    between atoms: C_16  and  C_17
REMARK   18  A    between atoms: C_23  and  C_24
REMARK   19  A    between atoms: C_24  and  C_25
REMARK   20  A    between atoms: C_28  and  S_29
REMARK   21  A    between atoms: S_29  and  C_30
REMARK                            x       y       z     vdW  Elec       q    Type
REMARK                         _______ _______ _______ _____ _____    ______ ____
ROOT
ATOM      1  C   UNL     1       0.699   5.492  20.183  0.00  0.00    +0.000 C 
ENDROOT
BRANCH   1   2
ATOM      2  C   UNL     1       1.822   6.426  20.666  0.00  0.00    +0.000 C 
BRANCH   2   3
ATOM      3  C   UNL     1       1.377   7.851  20.909  0.00  0.00    +0.000 C 
BRANCH   3   4
ATOM      4  C   UNL     1      -0.070   7.972  21.364  0.00  0.00    +0.000 C 
BRANCH   4   5
ATOM      5  C   UNL     1      -0.319   9.433  21.696  0.00  0.00    +0.000 C 
BRANCH   5   6
ATOM      6  C   UNL     1       0.595  10.357  20.907  0.00  0.00    +0.000 C 
BRANCH   6   7
ATOM      7  N   UNL     1      -0.150  11.382  20.144  0.00  0.00    +0.000 NA
BRANCH   7   8
ATOM      8  C   UNL     1       0.120  11.226  18.697  0.00  0.00    +0.000 C 
BRANCH   8   9
ATOM      9  C   UNL     1      -0.687  10.089  18.036  0.00  0.00    +0.000 C 
BRANCH   9  10
ATOM     10  C   UNL     1      -2.033  10.539  17.542  0.00  0.00    +0.000 A 
ATOM     11  C   UNL     1      -2.437  10.296  16.226  0.00  0.00    +0.000 A 
ATOM     12  C   UNL     1      -3.699  10.701  15.807  0.00  0.00    +0.000 A 
ATOM     13  C   UNL     1      -4.516  11.344  16.722  0.00  0.00    +0.000 A 
ATOM     14  N   UNL     1      -4.160  11.601  17.999  0.00  0.00    +0.000 NA
ATOM     15  C   UNL     1      -2.933  11.189  18.382  0.00  0.00    +0.000 A 
ENDBRANCH   9  10
ENDBRANCH   8   9
ENDBRANCH   7   8
BRANCH   7  16
ATOM     16  C   UNL     1       0.199  12.745  20.614  0.00  0.00    +0.000 C 
BRANCH  16  17
ATOM     17  C   UNL     1      -0.827  13.450  21.511  0.00  0.00    +0.000 C 
ATOM     18  C   UNL     1      -1.562  14.583  20.809  0.00  0.00    +0.000 C 
ENDBRANCH  16  17
ENDBRANCH   7  16
ENDBRANCH   6   7
ENDBRANCH   5   6
ENDBRANCH   4   5
ENDBRANCH   3   4
ENDBRANCH   2   3
ENDBRANCH   1   2
BRANCH   1  19
ATOM     19  N   UNL     1       1.044   4.056  20.217  0.00  0.00    +0.000 NA
BRANCH  19  20
ATOM     20  C   UNL     1       1.078   3.533  18.831  0.00  0.00    +0.000 C 
BRANCH  20  21
ATOM     21  C   UNL     1       1.422   4.560  17.752  0.00  0.00    +0.000 C 
BRANCH  21  22
ATOM     22  C   UNL     1       2.914   4.774  17.672  0.00  0.00    +0.000 A 
ATOM     23  C   UNL     1       3.766   3.694  17.389  0.00  0.00    +0.000 A 
ATOM     24  C   UNL     1       5.138   3.897  17.264  0.00  0.00    +0.000 A 
ATOM     25  C   UNL     1       5.655   5.182  17.426  0.00  0.00    +0.000 A 
ATOM     26  C   UNL     1       4.828   6.252  17.778  0.00  0.00    +0.000 A 
ATOM     27  C   UNL     1       3.457   6.044  17.902  0.00  0.00    +0.000 A 
BRANCH  25  28
ATOM     28  S   UNL     1       7.384   5.466  17.153  0.00  0.00    +0.000 S 
ATOM     29  C   UNL     1       7.861   6.340  18.624  0.00  0.00    +0.000 C 
ATOM     30  O   UNL     1       8.044   4.174  17.166  0.00  0.00    +0.000 OA
ATOM     31  O   UNL     1       7.514   6.365  16.029  0.00  0.00    +0.000 OA
ENDBRANCH  25  28
ENDBRANCH  21  22
ENDBRANCH  20  21
ENDBRANCH  19  20
BRANCH  19  32
ATOM     32  C   UNL     1       2.310   3.785  20.929  0.00  0.00    +0.000 C 
BRANCH  32  34
ATOM     33  C   UNL     1       4.357   2.317  20.486  0.00  0.00    +0.000 C 
ATOM     34  C   UNL     1       2.878   2.360  20.840  0.00  0.00    +0.000 C 
ENDBRANCH  32  34
ENDBRANCH  19  32
ENDBRANCH   1  19
TORSDOF 18
ENDMDL
MODEL 4
REMARK VINA RESULT:      -6.2      1.586      3.974
REMARK  Name = 
REMARK  21 active torsions:
REMARK  status: ('A' for Active; 'I' for Inactive)
REMARK    1  A    between atoms: C_1  and  C_2
REMARK    2  A    between atoms: C_2  and  C_3
REMARK    3  A    between atoms: C_3  and  N_4
REMARK    4  A    between atoms: N_4  and  C_5
REMARK    5  A    between atoms: N_4  and  C_23
REMARK    6  A    between atoms: C_5  and  C_6
REMARK    7  A    between atoms: C_6  and  C_7
REMARK    8  A    between atoms: C_7  and  C_8
REMARK    9  A    between atoms: C_8  and  C_9
REMARK   10  A    between atoms: C_9  and  C_10
REMARK   11  A    between atoms: C_10  and  N_11
REMARK   12  A    between atoms: N_11  and  C_12
REMARK   13  A    between atoms: N_11  and  C_15
REMARK   14  A    between atoms: C_12  and  C_13
REMARK   15  A    between atoms: C_13  and  C_14
REMARK   16  A    between atoms: C_15  and  C_16
REMARK   17  A    between atoms: C_16  and  C_17
REMARK   18  A    between atoms: C_23  and  C_24
REMARK   19  A    between atoms: C_24  and  C_25
REMARK   20  A    between atoms: C_28  and  S_29
REMARK   21  A    between atoms: S_29  and  C_30
REMARK                            x       y       z     vdW  Elec       q    Type
REMARK                         _______ _______ _______ _____ _____    ______ ____
ROOT
ATOM      1  C   UNL     1       0.382   9.970  18.829  0.00  0.00    +0.000 C 
ENDROOT
BRANCH   1   2
ATOM      2  C   UNL     1       1.427   9.268  17.946  0.00  0.00    +0.000 C 
BRANCH   2   3
ATOM      3  C   UNL     1       2.166   8.143  18.638  0.00  0.00    +0.000 C 
BRANCH   3   4
ATOM      4  C   UNL     1       1.808   7.992  20.110  0.00  0.00    +0.000 C 
BRANCH   4   5
ATOM      5  C   UNL     1       1.713   6.504  20.401  0.00  0.00    +0.000 C 
BRANCH   5   6
ATOM      6  C   UNL     1       2.454   5.675  19.364  0.00  0.00    +0.000 C 
BRANCH   6   7
ATOM      7  N   UNL     1       3.468   4.781  19.965  0.00  0.00    +0.000 NA
BRANCH   7   8
ATOM      8  C   UNL     1       4.710   4.818  19.162  0.00  0.00    +0.000 C 
BRANCH   8   9
ATOM      9  C   UNL     1       4.642   5.782  17.960  0.00  0.00    +0.000 C 
BRANCH   9  10
ATOM     10  C   UNL     1       5.490   5.333  16.803  0.00  0.00    +0.000 A 
ATOM     11  C   UNL     1       5.063   4.310  15.950  0.00  0.00    +0.000 A 
ATOM     12  C   UNL     1       5.858   3.935  14.873  0.00  0.00    +0.000 A 
ATOM     13  C   UNL     1       7.062   4.596  14.688  0.00  0.00    +0.000 A 
ATOM     14  N   UNL     1       7.509   5.584  15.492  0.00  0.00    +0.000 NA
ATOM     15  C   UNL     1       6.714   5.934  16.525  0.00  0.00    +0.000 A 
ENDBRANCH   9  10
ENDBRANCH   8   9
ENDBRANCH   7   8
BRANCH   7  16
ATOM     16  C   UNL     1       2.944   3.399  20.086  0.00  0.00    +0.000 C 
BRANCH  16  17
ATOM     17  C   UNL     1       2.419   2.745  18.802  0.00  0.00    +0.000 C 
ATOM     18  C   UNL     1       3.403   1.763  18.181  0.00  0.00    +0.000 C 
ENDBRANCH  16  17
ENDBRANCH   7  16
ENDBRANCH   6   7
ENDBRANCH   5   6
ENDBRANCH   4   5
ENDBRANCH   3   4
ENDBRANCH   2   3
ENDBRANCH   1   2
BRANCH   1  19
ATOM     19  N   UNL     1       0.678  11.389  19.112  0.00  0.00    +0.000 NA
BRANCH  19  20
ATOM     20  C   UNL     1       0.662  11.606  20.578  0.00  0.00    +0.000 C 
BRANCH  20  21
ATOM     21  C   UNL     1      -0.384  10.798  21.346  0.00  0.00    +0.000 C 
BRANCH  21  22
ATOM     22  C   UNL     1      -1.525  11.682  21.788  0.00  0.00    +0.000 A 
ATOM     23  C   UNL     1      -2.211  12.468  20.848  0.00  0.00    +0.000 A 
ATOM     24  C   UNL     1      -3.296  13.245  21.243  0.00  0.00    +0.000 A 
ATOM     25  C   UNL     1      -3.692  13.237  22.581  0.00  0.00    +0.000 A 
ATOM     26  C   UNL     1      -2.975  12.515  23.539  0.00  0.00    +0.000 A 
ATOM     27  C   UNL     1      -1.890  11.739  23.139  0.00  0.00    +0.000 A 
BRANCH  25  28
ATOM     28  S   UNL     1      -5.143  14.132  23.066  0.00  0.00    +0.000 S 
ATOM     29  C   UNL     1      -6.119  12.873  23.853  0.00  0.00    +0.000 C 
ATOM     30  O   UNL     1      -4.745  15.089  24.081  0.00  0.00    +0.000 OA
ATOM     31  O   UNL     1      -5.828  14.552  21.864  0.00  0.00    +0.000 OA
ENDBRANCH  25  28
ENDBRANCH  21  22
ENDBRANCH  20  21
ENDBRANCH  19  20
BRANCH  19  32
ATOM     32  C   UNL     1       1.950  11.842  18.512  0.00  0.00    +0.000 C 
BRANCH  32  34
ATOM     33  C   UNL     1       1.631  14.380  18.560  0.00  0.00    +0.000 C 
ATOM     34  C   UNL     1       2.501  13.202  18.970  0.00  0.00    +0.000 C 
ENDBRANCH  32  34
ENDBRANCH  19  32
ENDBRANCH   1  19
TORSDOF 18
ENDMDL
MODEL 5
REMARK VINA RESULT:      -6.2      4.822      6.766
REMARK  Name = 
REMARK  21 active torsions:
REMARK  status: ('A' for Active; 'I' for Inactive)
REMARK    1  A    between atoms: C_1  and  C_2
REMARK    2  A    between atoms: C_2  and  C_3
REMARK    3  A    between atoms: C_3  and  N_4
REMARK    4  A    between atoms: N_4  and  C_5
REMARK    5  A    between atoms: N_4  and  C_23
REMARK    6  A    between atoms: C_5  and  C_6
REMARK    7  A    between atoms: C_6  and  C_7
REMARK    8  A    between atoms: C_7  and  C_8
REMARK    9  A    between atoms: C_8  and  C_9
REMARK   10  A    between atoms: C_9  and  C_10
REMARK   11  A    between atoms: C_10  and  N_11
REMARK   12  A    between atoms: N_11  and  C_12
REMARK   13  A    between atoms: N_11  and  C_15
REMARK   14  A    between atoms: C_12  and  C_13
REMARK   15  A    between atoms: C_13  and  C_14
REMARK   16  A    between atoms: C_15  and  C_16
REMARK   17  A    between atoms: C_16  and  C_17
REMARK   18  A    between atoms: C_23  and  C_24
REMARK   19  A    between atoms: C_24  and  C_25
REMARK   20  A    between atoms: C_28  and  S_29
REMARK   21  A    between atoms: S_29  and  C_30
REMARK                            x       y       z     vdW  Elec       q    Type
REMARK                         _______ _______ _______ _____ _____    ______ ____
ROOT
ATOM      1  C   UNL     1       1.083   9.035  17.870  0.00  0.00    +0.000 C 
ENDROOT
BRANCH   1   2
ATOM      2  C   UNL     1       2.300   8.161  18.217  0.00  0.00    +0.000 C 
BRANCH   2   3
ATOM      3  C   UNL     1       2.246   7.551  19.601  0.00  0.00    +0.000 C 
BRANCH   3   4
ATOM      4  C   UNL     1       2.275   6.030  19.601  0.00  0.00    +0.000 C 
BRANCH   4   5
ATOM      5  C   UNL     1       2.032   5.574  18.172  0.00  0.00    +0.000 C 
BRANCH   5   6
ATOM      6  C   UNL     1       2.146   4.064  18.033  0.00  0.00    +0.000 C 
BRANCH   6   7
ATOM      7  N   UNL     1       3.418   3.535  18.571  0.00  0.00    +0.000 NA
BRANCH   7   8
ATOM      8  C   UNL     1       4.282   3.077  17.461  0.00  0.00    +0.000 C 
BRANCH   8   9
ATOM      9  C   UNL     1       4.655   4.194  16.465  0.00  0.00    +0.000 C 
BRANCH   9  10
ATOM     10  C   UNL     1       5.675   5.151  17.016  0.00  0.00    +0.000 A 
ATOM     11  C   UNL     1       6.669   4.716  17.897  0.00  0.00    +0.000 A 
ATOM     12  C   UNL     1       7.614   5.620  18.369  0.00  0.00    +0.000 A 
ATOM     13  C   UNL     1       7.528   6.936  17.946  0.00  0.00    +0.000 A 
ATOM     14  N   UNL     1       6.581   7.394  17.100  0.00  0.00    +0.000 NA
ATOM     15  C   UNL     1       5.681   6.493  16.651  0.00  0.00    +0.000 A 
ENDBRANCH   9  10
ENDBRANCH   8   9
ENDBRANCH   7   8
BRANCH   7  16
ATOM     16  C   UNL     1       3.163   2.444  19.543  0.00  0.00    +0.000 C 
BRANCH  16  17
ATOM     17  C   UNL     1       1.732   2.319  20.082  0.00  0.00    +0.000 C 
ATOM     18  C   UNL     1       1.605   2.709  21.548  0.00  0.00    +0.000 C 
ENDBRANCH  16  17
ENDBRANCH   7  16
ENDBRANCH   6   7
ENDBRANCH   5   6
ENDBRANCH   4   5
ENDBRANCH   3   4
ENDBRANCH   2   3
ENDBRANCH   1   2
BRANCH   1  19
ATOM     19  N   UNL     1       0.811  10.114  18.843  0.00  0.00    +0.000 NA
BRANCH  19  20
ATOM     20  C   UNL     1       1.716  11.255  18.568  0.00  0.00    +0.000 C 
BRANCH  20  21
ATOM     21  C   UNL     1       1.258  12.602  19.127  0.00  0.00    +0.000 C 
BRANCH  21  22
ATOM     22  C   UNL     1       2.410  13.574  19.191  0.00  0.00    +0.000 A 
ATOM     23  C   UNL     1       3.001  13.885  20.427  0.00  0.00    +0.000 A 
ATOM     24  C   UNL     1       4.096  14.743  20.485  0.00  0.00    +0.000 A 
ATOM     25  C   UNL     1       4.598  15.290  19.304  0.00  0.00    +0.000 A 
ATOM     26  C   UNL     1       3.976  15.046  18.077  0.00  0.00    +0.000 A 
ATOM     27  C   UNL     1       2.881  14.188  18.024  0.00  0.00    +0.000 A 
BRANCH  25  28
ATOM     28  S   UNL     1       6.062  16.288  19.360  0.00  0.00    +0.000 S 
ATOM     29  C   UNL     1       7.105  15.497  18.158  0.00  0.00    +0.000 C 
ATOM     30  O   UNL     1       5.713  17.602  18.853  0.00  0.00    +0.000 OA
ATOM     31  O   UNL     1       6.664  16.120  20.663  0.00  0.00    +0.000 OA
ENDBRANCH  25  28
ENDBRANCH  21  22
ENDBRANCH  20  21
ENDBRANCH  19  20
BRANCH  19  32
ATOM     32  C   UNL     1      -0.605  10.535  18.853  0.00  0.00    +0.000 C 
BRANCH  32  34
ATOM     33  C   UNL     1      -2.906  10.624  17.739  0.00  0.00    +0.000 C 
ATOM     34  C   UNL     1      -1.464  10.152  17.637  0.00  0.00    +0.000 C 
ENDBRANCH  32  34
ENDBRANCH  19  32
ENDBRANCH   1  19
TORSDOF 18
ENDMDL
MODEL 6
REMARK VINA RESULT:      -6.2      1.498      2.197
REMARK  Name = 
REMARK  21 active torsions:
REMARK  status: ('A' for Active; 'I' for Inactive)
REMARK    1  A    between atoms: C_1  and  C_2
REMARK    2  A    between atoms: C_2  and  C_3
REMARK    3  A    between atoms: C_3  and  N_4
REMARK    4  A    between atoms: N_4  and  C_5
REMARK    5  A    between atoms: N_4  and  C_23
REMARK    6  A    between atoms: C_5  and  C_6
REMARK    7  A    between atoms: C_6  and  C_7
REMARK    8  A    between atoms: C_7  and  C_8
REMARK    9  A    between atoms: C_8  and  C_9
REMARK   10  A    between atoms: C_9  and  C_10
REMARK   11  A    between atoms: C_10  and  N_11
REMARK   12  A    between atoms: N_11  and  C_12
REMARK   13  A    between atoms: N_11  and  C_15
REMARK   14  A    between atoms: C_12  and  C_13
REMARK   15  A    between atoms: C_13  and  C_14
REMARK   16  A    between atoms: C_15  and  C_16
REMARK   17  A    between atoms: C_16  and  C_17
REMARK   18  A    between atoms: C_23  and  C_24
REMARK   19  A    between atoms: C_24  and  C_25
REMARK   20  A    between atoms: C_28  and  S_29
REMARK   21  A    between atoms: S_29  and  C_30
REMARK                            x       y       z     vdW  Elec       q    Type
REMARK                         _______ _______ _______ _____ _____    ______ ____
ROOT
ATOM      1  C   UNL     1       1.756   9.798  18.978  0.00  0.00    +0.000 C 
ENDROOT
BRANCH   1   2
ATOM      2  C   UNL     1       1.976   8.871  17.772  0.00  0.00    +0.000 C 
BRANCH   2   3
ATOM      3  C   UNL     1       1.795   7.401  18.082  0.00  0.00    +0.000 C 
BRANCH   3   4
ATOM      4  C   UNL     1       3.091   6.685  18.433  0.00  0.00    +0.000 C 
BRANCH   4   5
ATOM      5  C   UNL     1       3.965   6.699  17.190  0.00  0.00    +0.000 C 
BRANCH   5   6
ATOM      6  C   UNL     1       4.475   5.309  16.842  0.00  0.00    +0.000 C 
BRANCH   6   7
ATOM      7  N   UNL     1       5.679   4.933  17.615  0.00  0.00    +0.000 NA
BRANCH   7   8
ATOM      8  C   UNL     1       5.312   3.974  18.681  0.00  0.00    +0.000 C 
BRANCH   8   9
ATOM      9  C   UNL     1       4.068   3.124  18.349  0.00  0.00    +0.000 C 
BRANCH   9  10
ATOM     10  C   UNL     1       3.099   3.036  19.494  0.00  0.00    +0.000 A 
ATOM     11  C   UNL     1       1.742   3.321  19.315  0.00  0.00    +0.000 A 
ATOM     12  C   UNL     1       0.867   3.205  20.388  0.00  0.00    +0.000 A 
ATOM     13  C   UNL     1       1.381   2.810  21.612  0.00  0.00    +0.000 A 
ATOM     14  N   UNL     1       2.685   2.530  21.825  0.00  0.00    +0.000 NA
ATOM     15  C   UNL     1       3.512   2.643  20.764  0.00  0.00    +0.000 A 
ENDBRANCH   9  10
ENDBRANCH   8   9
ENDBRANCH   7   8
BRANCH   7  16
ATOM     16  C   UNL     1       6.342   6.135  18.174  0.00  0.00    +0.000 C 
BRANCH  16  17
ATOM     17  C   UNL     1       7.847   6.027  18.454  0.00  0.00    +0.000 C 
ATOM     18  C   UNL     1       8.165   5.631  19.889  0.00  0.00    +0.000 C 
ENDBRANCH  16  17
ENDBRANCH   7  16
ENDBRANCH   6   7
ENDBRANCH   5   6
ENDBRANCH   4   5
ENDBRANCH   3   4
ENDBRANCH   2   3
ENDBRANCH   1   2
BRANCH   1  19
ATOM     19  N   UNL     1       0.341   9.968  19.366  0.00  0.00    +0.000 NA
BRANCH  19  20
ATOM     20  C   UNL     1       0.272  10.751  20.622  0.00  0.00    +0.000 C 
BRANCH  20  21
ATOM     21  C   UNL     1      -0.229  12.187  20.471  0.00  0.00    +0.000 C 
BRANCH  21  22
ATOM     22  C   UNL     1      -1.492  12.401  21.269  0.00  0.00    +0.000 A 
ATOM     23  C   UNL     1      -2.530  13.190  20.747  0.00  0.00    +0.000 A 
ATOM     24  C   UNL     1      -3.717  13.348  21.457  0.00  0.00    +0.000 A 
ATOM     25  C   UNL     1      -3.863  12.716  22.692  0.00  0.00    +0.000 A 
ATOM     26  C   UNL     1      -2.813  11.986  23.255  0.00  0.00    +0.000 A 
ATOM     27  C   UNL     1      -1.627  11.832  22.541  0.00  0.00    +0.000 A 
BRANCH  25  28
ATOM     28  S   UNL     1      -5.413  12.818  23.545  0.00  0.00    +0.000 S 
ATOM     29  C   UNL     1      -5.624  14.572  23.738  0.00  0.00    +0.000 C 
ATOM     30  O   UNL     1      -6.441  12.342  22.638  0.00  0.00    +0.000 OA
ATOM     31  O   UNL     1      -5.238  12.235  24.855  0.00  0.00    +0.000 OA
ENDBRANCH  25  28
ENDBRANCH  21  22
ENDBRANCH  20  21
ENDBRANCH  19  20
BRANCH  19  32
ATOM     32  C   UNL     1      -0.478  10.581  18.300  0.00  0.00    +0.000 C 
BRANCH  32  34
ATOM     33  C   UNL     1      -2.429  10.131  16.707  0.00  0.00    +0.000 C 
ATOM     34  C   UNL     1      -1.921  10.075  18.140  0.00  0.00    +0.000 C 
ENDBRANCH  32  34
ENDBRANCH  19  32
ENDBRANCH   1  19
TORSDOF 18
ENDMDL
MODEL 7
REMARK VINA RESULT:      -6.1      5.337     10.756
REMARK  Name = 
REMARK  21 active torsions:
REMARK  status: ('A' for Active; 'I' for Inactive)
REMARK    1  A    between atoms: C_1  and  C_2
REMARK    2  A    between atoms: C_2  and  C_3
REMARK    3  A    between atoms: C_3  and  N_4
REMARK    4  A    between atoms: N_4  and  C_5
REMARK    5  A    between atoms: N_4  and  C_23
REMARK    6  A    between atoms: C_5  and  C_6
REMARK    7  A    between atoms: C_6  and  C_7
REMARK    8  A    between atoms: C_7  and  C_8
REMARK    9  A    between atoms: C_8  and  C_9
REMARK   10  A    between atoms: C_9  and  C_10
REMARK   11  A    between atoms: C_10  and  N_11
REMARK   12  A    between atoms: N_11  and  C_12
REMARK   13  A    between atoms: N_11  and  C_15
REMARK   14  A    between atoms: C_12  and  C_13
REMARK   15  A    between atoms: C_13  and  C_14
REMARK   16  A    between atoms: C_15  and  C_16
REMARK   17  A    between atoms: C_16  and  C_17
REMARK   18  A    between atoms: C_23  and  C_24
REMARK   19  A    between atoms: C_24  and  C_25
REMARK   20  A    between atoms: C_28  and  S_29
REMARK   21  A    between atoms: S_29  and  C_30
REMARK                            x       y       z     vdW  Elec       q    Type
REMARK                         _______ _______ _______ _____ _____    ______ ____
ROOT
ATOM      1  C   UNL     1       0.724   5.219  20.338  0.00  0.00    +0.000 C 
ENDROOT
BRANCH   1   2
ATOM      2  C   UNL     1       1.683   6.256  20.946  0.00  0.00    +0.000 C 
BRANCH   2   3
ATOM      3  C   UNL     1       1.582   7.630  20.321  0.00  0.00    +0.000 C 
BRANCH   3   4
ATOM      4  C   UNL     1       1.569   8.764  21.336  0.00  0.00    +0.000 C 
BRANCH   4   5
ATOM      5  C   UNL     1       0.132   8.945  21.793  0.00  0.00    +0.000 C 
BRANCH   5   6
ATOM      6  C   UNL     1      -0.725   9.601  20.722  0.00  0.00    +0.000 C 
BRANCH   6   7
ATOM      7  N   UNL     1       0.038  10.549  19.881  0.00  0.00    +0.000 NA
BRANCH   7   8
ATOM      8  C   UNL     1      -0.294  11.939  20.264  0.00  0.00    +0.000 C 
BRANCH   8   9
ATOM      9  C   UNL     1      -1.616  12.067  21.050  0.00  0.00    +0.000 C 
BRANCH   9  10
ATOM     10  C   UNL     1      -1.677  13.310  21.892  0.00  0.00    +0.000 A 
ATOM     11  C   UNL     1      -1.303  13.288  23.239  0.00  0.00    +0.000 A 
ATOM     12  C   UNL     1      -1.345  14.460  23.985  0.00  0.00    +0.000 A 
ATOM     13  C   UNL     1      -1.766  15.620  23.356  0.00  0.00    +0.000 A 
ATOM     14  N   UNL     1      -2.139  15.680  22.060  0.00  0.00    +0.000 NA
ATOM     15  C   UNL     1      -2.081  14.529  21.357  0.00  0.00    +0.000 A 
ENDBRANCH   9  10
ENDBRANCH   8   9
ENDBRANCH   7   8
BRANCH   7  16
ATOM     16  C   UNL     1      -0.228  10.307  18.443  0.00  0.00    +0.000 C 
BRANCH  16  17
ATOM     17  C   UNL     1      -1.676   9.986  18.052  0.00  0.00    +0.000 C 
ATOM     18  C   UNL     1      -2.066  10.529  16.684  0.00  0.00    +0.000 C 
ENDBRANCH  16  17
ENDBRANCH   7  16
ENDBRANCH   6   7
ENDBRANCH   5   6
ENDBRANCH   4   5
ENDBRANCH   3   4
ENDBRANCH   2   3
ENDBRANCH   1   2
BRANCH   1  19
ATOM     19  N   UNL     1       1.243   3.836  20.337  0.00  0.00    +0.000 NA
BRANCH  19  20
ATOM     20  C   UNL     1       1.202   3.303  18.955  0.00  0.00    +0.000 C 
BRANCH  20  21
ATOM     21  C   UNL     1       1.387   4.340  17.848  0.00  0.00    +0.000 C 
BRANCH  21  22
ATOM     22  C   UNL     1       2.852   4.595  17.591  0.00  0.00    +0.000 A 
ATOM     23  C   UNL     1       3.671   3.565  17.100  0.00  0.00    +0.000 A 
ATOM     24  C   UNL     1       5.011   3.810  16.814  0.00  0.00    +0.000 A 
ATOM     25  C   UNL     1       5.532   5.087  17.024  0.00  0.00    +0.000 A 
ATOM     26  C   UNL     1       4.747   6.101  17.579  0.00  0.00    +0.000 A 
ATOM     27  C   UNL     1       3.407   5.851  17.863  0.00  0.00    +0.000 A 
BRANCH  25  28
ATOM     28  S   UNL     1       7.205   5.433  16.552  0.00  0.00    +0.000 S 
ATOM     29  C   UNL     1       7.522   6.970  17.385  0.00  0.00    +0.000 C 
ATOM     30  O   UNL     1       8.046   4.417  17.155  0.00  0.00    +0.000 OA
ATOM     31  O   UNL     1       7.223   5.677  15.128  0.00  0.00    +0.000 OA
ENDBRANCH  25  28
ENDBRANCH  21  22
ENDBRANCH  20  21
ENDBRANCH  19  20
BRANCH  19  32
ATOM     32  C   UNL     1       2.596   3.729  20.918  0.00  0.00    +0.000 C 
BRANCH  32  34
ATOM     33  C   UNL     1       4.496   2.170  20.207  0.00  0.00    +0.000 C 
ATOM     34  C   UNL     1       3.215   2.325  21.013  0.00  0.00    +0.000 C 
ENDBRANCH  32  34
ENDBRANCH  19  32
ENDBRANCH   1  19
TORSDOF 18
ENDMDL
MODEL 8
REMARK VINA RESULT:      -6.0      4.243     10.136
REMARK  Name = 
REMARK  21 active torsions:
REMARK  status: ('A' for Active; 'I' for Inactive)
REMARK    1  A    between atoms: C_1  and  C_2
REMARK    2  A    between atoms: C_2  and  C_3
REMARK    3  A    between atoms: C_3  and  N_4
REMARK    4  A    between atoms: N_4  and  C_5
REMARK    5  A    between atoms: N_4  and  C_23
REMARK    6  A    between atoms: C_5  and  C_6
REMARK    7  A    between atoms: C_6  and  C_7
REMARK    8  A    between atoms: C_7  and  C_8
REMARK    9  A    between atoms: C_8  and  C_9
REMARK   10  A    between atoms: C_9  and  C_10
REMARK   11  A    between atoms: C_10  and  N_11
REMARK   12  A    between atoms: N_11  and  C_12
REMARK   13  A    between atoms: N_11  and  C_15
REMARK   14  A    between atoms: C_12  and  C_13
REMARK   15  A    between atoms: C_13  and  C_14
REMARK   16  A    between atoms: C_15  and  C_16
REMARK   17  A    between atoms: C_16  and  C_17
REMARK   18  A    between atoms: C_23  and  C_24
REMARK   19  A    between atoms: C_24  and  C_25
REMARK   20  A    between atoms: C_28  and  S_29
REMARK   21  A    between atoms: S_29  and  C_30
REMARK                            x       y       z     vdW  Elec       q    Type
REMARK                         _______ _______ _______ _____ _____    ______ ____
ROOT
ATOM      1  C   UNL     1       6.566   6.609  16.151  0.00  0.00    +0.000 C 
ENDROOT
BRANCH   1   2
ATOM      2  C   UNL     1       5.043   6.801  16.062  0.00  0.00    +0.000 C 
BRANCH   2   3
ATOM      3  C   UNL     1       4.451   7.582  17.216  0.00  0.00    +0.000 C 
BRANCH   3   4
ATOM      4  C   UNL     1       3.044   7.144  17.593  0.00  0.00    +0.000 C 
BRANCH   4   5
ATOM      5  C   UNL     1       2.175   8.389  17.618  0.00  0.00    +0.000 C 
BRANCH   5   6
ATOM      6  C   UNL     1       1.616   8.663  19.006  0.00  0.00    +0.000 C 
BRANCH   6   7
ATOM      7  N   UNL     1       0.659   9.790  19.024  0.00  0.00    +0.000 NA
BRANCH   7   8
ATOM      8  C   UNL     1       1.356  11.047  18.672  0.00  0.00    +0.000 C 
BRANCH   8   9
ATOM      9  C   UNL     1       0.989  12.236  19.585  0.00  0.00    +0.000 C 
BRANCH   9  10
ATOM     10  C   UNL     1       1.597  13.532  19.128  0.00  0.00    +0.000 A 
ATOM     11  C   UNL     1       2.809  13.554  18.431  0.00  0.00    +0.000 A 
ATOM     12  C   UNL     1       3.332  14.767  17.998  0.00  0.00    +0.000 A 
ATOM     13  C   UNL     1       2.625  15.923  18.284  0.00  0.00    +0.000 A 
ATOM     14  N   UNL     1       1.455  15.943  18.958  0.00  0.00    +0.000 NA
ATOM     15  C   UNL     1       0.965  14.750  19.359  0.00  0.00    +0.000 A 
ENDBRANCH   9  10
ENDBRANCH   8   9
ENDBRANCH   7   8
BRANCH   7  16
ATOM     16  C   UNL     1      -0.005   9.893  20.346  0.00  0.00    +0.000 C 
BRANCH  16  17
ATOM     17  C   UNL     1       0.490   8.943  21.444  0.00  0.00    +0.000 C 
ATOM     18  C   UNL     1       0.234   9.464  22.852  0.00  0.00    +0.000 C 
ENDBRANCH  16  17
ENDBRANCH   7  16
ENDBRANCH   6   7
ENDBRANCH   5   6
ENDBRANCH   4   5
ENDBRANCH   3   4
ENDBRANCH   2   3
ENDBRANCH   1   2
BRANCH   1  19
ATOM     19  N   UNL     1       7.063   5.373  15.512  0.00  0.00    +0.000 NA
BRANCH  19  20
ATOM     20  C   UNL     1       6.785   4.221  16.402  0.00  0.00    +0.000 C 
BRANCH  20  21
ATOM     21  C   UNL     1       6.697   4.552  17.891  0.00  0.00    +0.000 C 
BRANCH  21  22
ATOM     22  C   UNL     1       5.304   4.301  18.415  0.00  0.00    +0.000 A 
ATOM     23  C   UNL     1       4.370   3.608  17.627  0.00  0.00    +0.000 A 
ATOM     24  C   UNL     1       3.100   3.330  18.126  0.00  0.00    +0.000 A 
ATOM     25  C   UNL     1       2.766   3.750  19.414  0.00  0.00    +0.000 A 
ATOM     26  C   UNL     1       3.660   4.502  20.181  0.00  0.00    +0.000 A 
ATOM     27  C   UNL     1       4.929   4.777  19.677  0.00  0.00    +0.000 A 
BRANCH  25  28
ATOM     28  S   UNL     1       1.194   3.298  20.097  0.00  0.00    +0.000 S 
ATOM     29  C   UNL     1       1.657   2.491  21.611  0.00  0.00    +0.000 C 
ATOM     30  O   UNL     1       0.499   4.524  20.439  0.00  0.00    +0.000 OA
ATOM     31  O   UNL     1       0.596   2.314  19.223  0.00  0.00    +0.000 OA
ENDBRANCH  25  28
ENDBRANCH  21  22
ENDBRANCH  20  21
ENDBRANCH  19  20
BRANCH  19  32
ATOM     32  C   UNL     1       6.504   5.160  14.161  0.00  0.00    +0.000 C 
BRANCH  32  34
ATOM     33  C   UNL     1       5.207   3.635  12.570  0.00  0.00    +0.000 C 
ATOM     34  C   UNL     1       6.141   3.720  13.766  0.00  0.00    +0.000 C 
ENDBRANCH  32  34
ENDBRANCH  19  32
ENDBRANCH   1  19
TORSDOF 18
ENDMDL
MODEL 9
REMARK VINA RESULT:      -6.0      2.076      2.773
REMARK  Name = 
REMARK  21 active torsions:
REMARK  status: ('A' for Active; 'I' for Inactive)
REMARK    1  A    between atoms: C_1  and  C_2
REMARK    2  A    between atoms: C_2  and  C_3
REMARK    3  A    between atoms: C_3  and  N_4
REMARK    4  A    between atoms: N_4  and  C_5
REMARK    5  A    between atoms: N_4  and  C_23
REMARK    6  A    between atoms: C_5  and  C_6
REMARK    7  A    between atoms: C_6  and  C_7
REMARK    8  A    between atoms: C_7  and  C_8
REMARK    9  A    between atoms: C_8  and  C_9
REMARK   10  A    between atoms: C_9  and  C_10
REMARK   11  A    between atoms: C_10  and  N_11
REMARK   12  A    between atoms: N_11  and  C_12
REMARK   13  A    between atoms: N_11  and  C_15
REMARK   14  A    between atoms: C_12  and  C_13
REMARK   15  A    between atoms: C_13  and  C_14
REMARK   16  A    between atoms: C_15  and  C_16
REMARK   17  A    between atoms: C_16  and  C_17
REMARK   18  A    between atoms: C_23  and  C_24
REMARK   19  A    between atoms: C_24  and  C_25
REMARK   20  A    between atoms: C_28  and  S_29
REMARK   21  A    between atoms: S_29  and  C_30
REMARK                            x       y       z     vdW  Elec       q    Type
REMARK                         _______ _______ _______ _____ _____    ______ ____
ROOT
ATOM      1  C   UNL     1       1.203   9.876  18.042  0.00  0.00    +0.000 C 
ENDROOT
BRANCH   1   2
ATOM      2  C   UNL     1       2.448   8.997  17.838  0.00  0.00    +0.000 C 
BRANCH   2   3
ATOM      3  C   UNL     1       2.206   7.522  18.075  0.00  0.00    +0.000 C 
BRANCH   3   4
ATOM      4  C   UNL     1       2.725   7.025  19.416  0.00  0.00    +0.000 C 
BRANCH   4   5
ATOM      5  C   UNL     1       3.705   5.899  19.132  0.00  0.00    +0.000 C 
BRANCH   5   6
ATOM      6  C   UNL     1       4.491   6.141  17.853  0.00  0.00    +0.000 C 
BRANCH   6   7
ATOM      7  N   UNL     1       4.375   5.023  16.891  0.00  0.00    +0.000 NA
BRANCH   7   8
ATOM      8  C   UNL     1       4.616   3.737  17.583  0.00  0.00    +0.000 C 
BRANCH   8   9
ATOM      9  C   UNL     1       3.358   2.851  17.699  0.00  0.00    +0.000 C 
BRANCH   9  10
ATOM     10  C   UNL     1       2.794   2.817  19.092  0.00  0.00    +0.000 A 
ATOM     11  C   UNL     1       1.434   3.042  19.325  0.00  0.00    +0.000 A 
ATOM     12  C   UNL     1       0.938   2.977  20.623  0.00  0.00    +0.000 A 
ATOM     13  C   UNL     1       1.825   2.694  21.648  0.00  0.00    +0.000 A 
ATOM     14  N   UNL     1       3.145   2.476  21.463  0.00  0.00    +0.000 NA
ATOM     15  C   UNL     1       3.598   2.536  20.192  0.00  0.00    +0.000 A 
ENDBRANCH   9  10
ENDBRANCH   8   9
ENDBRANCH   7   8
BRANCH   7  16
ATOM     16  C   UNL     1       5.311   5.208  15.756  0.00  0.00    +0.000 C 
BRANCH  16  17
ATOM     17  C   UNL     1       6.016   3.950  15.229  0.00  0.00    +0.000 C 
ATOM     18  C   UNL     1       6.054   3.874  13.709  0.00  0.00    +0.000 C 
ENDBRANCH  16  17
ENDBRANCH   7  16
ENDBRANCH   6   7
ENDBRANCH   5   6
ENDBRANCH   4   5
ENDBRANCH   3   4
ENDBRANCH   2   3
ENDBRANCH   1   2
BRANCH   1  19
ATOM     19  N   UNL     1       0.417   9.549  19.250  0.00  0.00    +0.000 NA
BRANCH  19  20
ATOM     20  C   UNL     1       0.988  10.272  20.411  0.00  0.00    +0.000 C 
BRANCH  20  21
ATOM     21  C   UNL     1       0.231  10.097  21.727  0.00  0.00    +0.000 C 
BRANCH  21  22
ATOM     22  C   UNL     1      -0.429  11.390  22.142  0.00  0.00    +0.000 A 
ATOM     23  C   UNL     1      -1.524  11.371  23.022  0.00  0.00    +0.000 A 
ATOM     24  C   UNL     1      -2.103  12.564  23.446  0.00  0.00    +0.000 A 
ATOM     25  C   UNL     1      -1.586  13.775  22.986  0.00  0.00    +0.000 A 
ATOM     26  C   UNL     1      -0.544  13.806  22.055  0.00  0.00    +0.000 A 
ATOM     27  C   UNL     1       0.032  12.610  21.634  0.00  0.00    +0.000 A 
BRANCH  25  28
ATOM     28  S   UNL     1      -2.243  15.297  23.614  0.00  0.00    +0.000 S 
ATOM     29  C   UNL     1      -2.852  14.816  25.212  0.00  0.00    +0.000 C 
ATOM     30  O   UNL     1      -1.128  16.203  23.815  0.00  0.00    +0.000 OA
ATOM     31  O   UNL     1      -3.373  15.666  22.790  0.00  0.00    +0.000 OA
ENDBRANCH  25  28
ENDBRANCH  21  22
ENDBRANCH  20  21
ENDBRANCH  19  20
BRANCH  19  32
ATOM     32  C   UNL     1      -1.024   9.829  19.092  0.00  0.00    +0.000 C 
BRANCH  32  34
ATOM     33  C   UNL     1      -1.917  12.137  18.442  0.00  0.00    +0.000 C 
ATOM     34  C   UNL     1      -1.438  10.778  17.956  0.00  0.00    +0.000 C 
ENDBRANCH  32  34
ENDBRANCH  19  32
ENDBRANCH   1  19
TORSDOF 18
ENDMDL
