MODEL 1
REMARK VINA RESULT:      -7.3      0.000      0.000
REMARK  Name = 
REMARK  5 active torsions:
REMARK  status: ('A' for Active; 'I' for Inactive)
REMARK    1  A    between atoms: C_1  and  C_2
REMARK    2  A    between atoms: C_2  and  O_3
REMARK    3  A    between atoms: O_3  and  C_4
REMARK    4  A    between atoms: C_7  and  C_8
REMARK    5  A    between atoms: C_8  and  C_9
REMARK                            x       y       z     vdW  Elec       q    Type
REMARK                         _______ _______ _______ _____ _____    ______ ____
ROOT
ATOM      1  C   UNL     1       4.763   3.977  16.059  0.00  0.00    +0.000 C 
ENDROOT
BRANCH   1   2
ATOM      2  C   UNL     1       6.155   4.306  16.624  0.00  0.00    +0.000 C 
ATOM      3  C   UNL     1       6.272   4.419  18.147  0.00  0.00    +0.000 C 
ATOM      4  C   UNL     1       6.531   5.813  18.692  0.00  0.00    +0.000 C 
ATOM      5  C   UNL     1       7.489   6.619  17.867  0.00  0.00    +0.000 C 
ATOM      6  O   UNL     1       8.114   7.571  18.338  0.00  0.00    +0.000 OA
ATOM      7  N   UNL     1       7.571   6.323  16.536  0.00  0.00    +0.000 N 
ATOM      8  C   UNL     1       6.846   5.401  15.835  0.00  0.00    +0.000 C 
ATOM      9  O   UNL     1       6.838   5.433  14.606  0.00  0.00    +0.000 OA
ATOM     10  H   UNL     1       8.100   6.980  15.982  0.00  0.00    +0.000 HD
ENDBRANCH   1   2
BRANCH   1  14
ATOM     11  C   UNL     1       1.631   3.799  19.037  0.00  0.00    +0.000 A 
ATOM     12  C   UNL     1       2.075   2.628  18.420  0.00  0.00    +0.000 A 
ATOM     13  C   UNL     1       3.064   2.677  17.428  0.00  0.00    +0.000 A 
ATOM     14  C   UNL     1       3.590   3.905  17.008  0.00  0.00    +0.000 A 
ATOM     15  C   UNL     1       3.085   5.078  17.583  0.00  0.00    +0.000 A 
ATOM     16  C   UNL     1       2.124   5.025  18.599  0.00  0.00    +0.000 A 
BRANCH  11  17
ATOM     17  O   UNL     1       0.722   3.640  20.050  0.00  0.00    +0.000 OA
BRANCH  17  19
ATOM     18  C   UNL     1       2.305   3.478  21.840  0.00  0.00    +0.000 C 
ATOM     19  C   UNL     1       1.145   2.801  21.130  0.00  0.00    +0.000 C 
ENDBRANCH  17  19
ENDBRANCH  11  17
ENDBRANCH   1  14
TORSDOF 4
ENDMDL
MODEL 2
REMARK VINA RESULT:      -7.3      2.377      5.874
REMARK  Name = 
REMARK  5 active torsions:
REMARK  status: ('A' for Active; 'I' for Inactive)
REMARK    1  A    between atoms: C_1  and  C_2
REMARK    2  A    between atoms: C_2  and  O_3
REMARK    3  A    between atoms: O_3  and  C_4
REMARK    4  A    between atoms: C_7  and  C_8
REMARK    5  A    between atoms: C_8  and  C_9
REMARK                            x       y       z     vdW  Elec       q    Type
REMARK                         _______ _______ _______ _____ _____    ______ ____
ROOT
ATOM      1  C   UNL     1       2.525   3.533  17.068  0.00  0.00    +0.000 C 
ENDROOT
BRANCH   1   2
ATOM      2  C   UNL     1       1.906   2.967  18.358  0.00  0.00    +0.000 C 
ATOM      3  C   UNL     1       1.019   3.915  19.170  0.00  0.00    +0.000 C 
ATOM      4  C   UNL     1       1.579   4.364  20.510  0.00  0.00    +0.000 C 
ATOM      5  C   UNL     1       2.298   3.283  21.259  0.00  0.00    +0.000 C 
ATOM      6  O   UNL     1       2.457   3.331  22.481  0.00  0.00    +0.000 OA
ATOM      7  N   UNL     1       2.867   2.283  20.523  0.00  0.00    +0.000 N 
ATOM      8  C   UNL     1       2.905   2.160  19.163  0.00  0.00    +0.000 C 
ATOM      9  O   UNL     1       3.677   1.357  18.641  0.00  0.00    +0.000 OA
ATOM     10  H   UNL     1       3.473   1.663  21.039  0.00  0.00    +0.000 HD
ENDBRANCH   1   2
BRANCH   1  14
ATOM     11  C   UNL     1       6.148   5.896  17.047  0.00  0.00    +0.000 A 
ATOM     12  C   UNL     1       6.164   4.590  16.555  0.00  0.00    +0.000 A 
ATOM     13  C   UNL     1       5.005   3.802  16.589  0.00  0.00    +0.000 A 
ATOM     14  C   UNL     1       3.825   4.297  17.159  0.00  0.00    +0.000 A 
ATOM     15  C   UNL     1       3.842   5.583  17.714  0.00  0.00    +0.000 A 
ATOM     16  C   UNL     1       4.988   6.381  17.646  0.00  0.00    +0.000 A 
BRANCH  11  17
ATOM     17  O   UNL     1       7.306   6.612  16.894  0.00  0.00    +0.000 OA
BRANCH  17  19
ATOM     18  C   UNL     1       8.002   8.716  17.804  0.00  0.00    +0.000 C 
ATOM     19  C   UNL     1       7.804   7.236  18.082  0.00  0.00    +0.000 C 
ENDBRANCH  17  19
ENDBRANCH  11  17
ENDBRANCH   1  14
TORSDOF 4
ENDMDL
MODEL 3
REMARK VINA RESULT:      -7.3      2.389      6.067
REMARK  Name = 
REMARK  5 active torsions:
REMARK  status: ('A' for Active; 'I' for Inactive)
REMARK    1  A    between atoms: C_1  and  C_2
REMARK    2  A    between atoms: C_2  and  O_3
REMARK    3  A    between atoms: O_3  and  C_4
REMARK    4  A    between atoms: C_7  and  C_8
REMARK    5  A    between atoms: C_8  and  C_9
REMARK                            x       y       z     vdW  Elec       q    Type
REMARK                         _______ _______ _______ _____ _____    ______ ____
ROOT
ATOM      1  C   UNL     1       4.104   3.657  16.659  0.00  0.00    +0.000 C 
ENDROOT
BRANCH   1   2
ATOM      2  C   UNL     1       2.816   3.357  17.444  0.00  0.00    +0.000 C 
ATOM      3  C   UNL     1       1.998   4.563  17.915  0.00  0.00    +0.000 C 
ATOM      4  C   UNL     1       1.980   4.810  19.414  0.00  0.00    +0.000 C 
ATOM      5  C   UNL     1       1.892   3.557  20.233  0.00  0.00    +0.000 C 
ATOM      6  O   UNL     1       1.471   3.564  21.392  0.00  0.00    +0.000 OA
ATOM      7  N   UNL     1       2.394   2.413  19.682  0.00  0.00    +0.000 N 
ATOM      8  C   UNL     1       3.019   2.266  18.477  0.00  0.00    +0.000 C 
ATOM      9  O   UNL     1       3.651   1.238  18.234  0.00  0.00    +0.000 OA
ATOM     10  H   UNL     1       2.465   1.628  20.313  0.00  0.00    +0.000 HD
ENDBRANCH   1   2
BRANCH   1  14
ATOM     11  C   UNL     1       7.013   6.608  17.898  0.00  0.00    +0.000 A 
ATOM     12  C   UNL     1       6.913   5.397  18.584  0.00  0.00    +0.000 A 
ATOM     13  C   UNL     1       5.950   4.447  18.214  0.00  0.00    +0.000 A 
ATOM     14  C   UNL     1       5.045   4.718  17.180  0.00  0.00    +0.000 A 
ATOM     15  C   UNL     1       5.109   5.966  16.548  0.00  0.00    +0.000 A 
ATOM     16  C   UNL     1       6.093   6.898  16.893  0.00  0.00    +0.000 A 
BRANCH  11  17
ATOM     17  O   UNL     1       8.037   7.435  18.280  0.00  0.00    +0.000 OA
BRANCH  17  19
ATOM     18  C   UNL     1       8.827   9.668  18.631  0.00  0.00    +0.000 C 
ATOM     19  C   UNL     1       7.987   8.763  17.749  0.00  0.00    +0.000 C 
ENDBRANCH  17  19
ENDBRANCH  11  17
ENDBRANCH   1  14
TORSDOF 4
ENDMDL
MODEL 4
REMARK VINA RESULT:      -7.2      2.533      6.224
REMARK  Name = 
REMARK  5 active torsions:
REMARK  status: ('A' for Active; 'I' for Inactive)
REMARK    1  A    between atoms: C_1  and  C_2
REMARK    2  A    between atoms: C_2  and  O_3
REMARK    3  A    between atoms: O_3  and  C_4
REMARK    4  A    between atoms: C_7  and  C_8
REMARK    5  A    between atoms: C_8  and  C_9
REMARK                            x       y       z     vdW  Elec       q    Type
REMARK                         _______ _______ _______ _____ _____    ______ ____
ROOT
ATOM      1  C   UNL     1       2.283   3.977  17.382  0.00  0.00    +0.000 C 
ENDROOT
BRANCH   1   2
ATOM      2  C   UNL     1       1.437   4.112  18.660  0.00  0.00    +0.000 C 
ATOM      3  C   UNL     1       2.056   4.899  19.818  0.00  0.00    +0.000 C 
ATOM      4  C   UNL     1       2.444   4.087  21.042  0.00  0.00    +0.000 C 
ATOM      5  C   UNL     1       1.461   3.010  21.391  0.00  0.00    +0.000 C 
ATOM      6  O   UNL     1       1.387   2.537  22.527  0.00  0.00    +0.000 OA
ATOM      7  N   UNL     1       0.711   2.494  20.373  0.00  0.00    +0.000 N 
ATOM      8  C   UNL     1       0.773   2.804  19.044  0.00  0.00    +0.000 C 
ATOM      9  O   UNL     1       0.230   2.073  18.217  0.00  0.00    +0.000 OA
ATOM     10  H   UNL     1       0.178   1.669  20.608  0.00  0.00    +0.000 HD
ENDBRANCH   1   2
BRANCH   1  14
ATOM     11  C   UNL     1       5.988   6.141  16.833  0.00  0.00    +0.000 A 
ATOM     12  C   UNL     1       5.976   4.747  16.762  0.00  0.00    +0.000 A 
ATOM     13  C   UNL     1       4.789   4.033  16.973  0.00  0.00    +0.000 A 
ATOM     14  C   UNL     1       3.605   4.704  17.304  0.00  0.00    +0.000 A 
ATOM     15  C   UNL     1       3.645   6.097  17.444  0.00  0.00    +0.000 A 
ATOM     16  C   UNL     1       4.822   6.811  17.197  0.00  0.00    +0.000 A 
BRANCH  11  17
ATOM     17  O   UNL     1       7.177   6.751  16.531  0.00  0.00    +0.000 OA
BRANCH  17  19
ATOM     18  C   UNL     1       8.107   6.817  18.737  0.00  0.00    +0.000 C 
ATOM     19  C   UNL     1       7.684   7.639  17.533  0.00  0.00    +0.000 C 
ENDBRANCH  17  19
ENDBRANCH  11  17
ENDBRANCH   1  14
TORSDOF 4
ENDMDL
MODEL 5
REMARK VINA RESULT:      -7.2      0.608      1.287
REMARK  Name = 
REMARK  5 active torsions:
REMARK  status: ('A' for Active; 'I' for Inactive)
REMARK    1  A    between atoms: C_1  and  C_2
REMARK    2  A    between atoms: C_2  and  O_3
REMARK    3  A    between atoms: O_3  and  C_4
REMARK    4  A    between atoms: C_7  and  C_8
REMARK    5  A    between atoms: C_8  and  C_9
REMARK                            x       y       z     vdW  Elec       q    Type
REMARK                         _______ _______ _______ _____ _____    ______ ____
ROOT
ATOM      1  C   UNL     1       5.211   3.834  16.022  0.00  0.00    +0.000 C 
ENDROOT
BRANCH   1   2
ATOM      2  C   UNL     1       6.567   4.383  16.498  0.00  0.00    +0.000 C 
ATOM      3  C   UNL     1       6.779   4.480  18.011  0.00  0.00    +0.000 C 
ATOM      4  C   UNL     1       6.840   5.885  18.586  0.00  0.00    +0.000 C 
ATOM      5  C   UNL     1       7.583   6.861  17.723  0.00  0.00    +0.000 C 
ATOM      6  O   UNL     1       8.074   7.895  18.181  0.00  0.00    +0.000 OA
ATOM      7  N   UNL     1       7.613   6.613  16.380  0.00  0.00    +0.000 N 
ATOM      8  C   UNL     1       7.002   5.597  15.701  0.00  0.00    +0.000 C 
ATOM      9  O   UNL     1       6.895   5.654  14.477  0.00  0.00    +0.000 OA
ATOM     10  H   UNL     1       7.980   7.363  15.813  0.00  0.00    +0.000 HD
ENDBRANCH   1   2
BRANCH   1  14
ATOM     11  C   UNL     1       1.879   3.091  18.678  0.00  0.00    +0.000 A 
ATOM     12  C   UNL     1       2.174   4.395  18.276  0.00  0.00    +0.000 A 
ATOM     13  C   UNL     1       3.272   4.652  17.445  0.00  0.00    +0.000 A 
ATOM     14  C   UNL     1       4.118   3.611  17.041  0.00  0.00    +0.000 A 
ATOM     15  C   UNL     1       3.853   2.318  17.509  0.00  0.00    +0.000 A 
ATOM     16  C   UNL     1       2.736   2.057  18.309  0.00  0.00    +0.000 A 
BRANCH  11  17
ATOM     17  O   UNL     1       0.739   2.932  19.423  0.00  0.00    +0.000 OA
BRANCH  17  19
ATOM     18  C   UNL     1       1.621   2.710  21.638  0.00  0.00    +0.000 C 
ATOM     19  C   UNL     1       0.758   3.550  20.714  0.00  0.00    +0.000 C 
ENDBRANCH  17  19
ENDBRANCH  11  17
ENDBRANCH   1  14
TORSDOF 4
ENDMDL
MODEL 6
REMARK VINA RESULT:      -7.1      2.534      6.588
REMARK  Name = 
REMARK  5 active torsions:
REMARK  status: ('A' for Active; 'I' for Inactive)
REMARK    1  A    between atoms: C_1  and  C_2
REMARK    2  A    between atoms: C_2  and  O_3
REMARK    3  A    between atoms: O_3  and  C_4
REMARK    4  A    between atoms: C_7  and  C_8
REMARK    5  A    between atoms: C_8  and  C_9
REMARK                            x       y       z     vdW  Elec       q    Type
REMARK                         _______ _______ _______ _____ _____    ______ ____
ROOT
ATOM      1  C   UNL     1       3.333   5.084  18.033  0.00  0.00    +0.000 C 
ENDROOT
BRANCH   1   2
ATOM      2  C   UNL     1       2.788   3.779  18.638  0.00  0.00    +0.000 C 
ATOM      3  C   UNL     1       1.285   3.727  18.928  0.00  0.00    +0.000 C 
ATOM      4  C   UNL     1       0.891   3.709  20.395  0.00  0.00    +0.000 C 
ATOM      5  C   UNL     1       1.786   2.866  21.252  0.00  0.00    +0.000 C 
ATOM      6  O   UNL     1       1.413   2.412  22.337  0.00  0.00    +0.000 OA
ATOM      7  N   UNL     1       3.076   2.697  20.835  0.00  0.00    +0.000 N 
ATOM      8  C   UNL     1       3.682   3.246  19.741  0.00  0.00    +0.000 C 
ATOM      9  O   UNL     1       4.908   3.222  19.642  0.00  0.00    +0.000 OA
ATOM     10  H   UNL     1       3.691   2.262  21.507  0.00  0.00    +0.000 HD
ENDBRANCH   1   2
BRANCH   1  14
ATOM     11  C   UNL     1       6.876   5.211  15.555  0.00  0.00    +0.000 A 
ATOM     12  C   UNL     1       5.898   4.241  15.326  0.00  0.00    +0.000 A 
ATOM     13  C   UNL     1       4.763   4.167  16.144  0.00  0.00    +0.000 A 
ATOM     14  C   UNL     1       4.613   5.037  17.233  0.00  0.00    +0.000 A 
ATOM     15  C   UNL     1       5.635   5.958  17.495  0.00  0.00    +0.000 A 
ATOM     16  C   UNL     1       6.750   6.054  16.656  0.00  0.00    +0.000 A 
BRANCH  11  17
ATOM     17  O   UNL     1       7.906   5.254  14.652  0.00  0.00    +0.000 OA
BRANCH  17  19
ATOM     18  C   UNL     1       8.245   5.898  12.371  0.00  0.00    +0.000 C 
ATOM     19  C   UNL     1       7.558   4.918  13.305  0.00  0.00    +0.000 C 
ENDBRANCH  17  19
ENDBRANCH  11  17
ENDBRANCH   1  14
TORSDOF 4
ENDMDL
MODEL 7
REMARK VINA RESULT:      -7.0      2.745      6.531
REMARK  Name = 
REMARK  5 active torsions:
REMARK  status: ('A' for Active; 'I' for Inactive)
REMARK    1  A    between atoms: C_1  and  C_2
REMARK    2  A    between atoms: C_2  and  O_3
REMARK    3  A    between atoms: O_3  and  C_4
REMARK    4  A    between atoms: C_7  and  C_8
REMARK    5  A    between atoms: C_8  and  C_9
REMARK                            x       y       z     vdW  Elec       q    Type
REMARK                         _______ _______ _______ _____ _____    ______ ____
ROOT
ATOM      1  C   UNL     1       3.804   4.988  18.292  0.00  0.00    +0.000 C 
ENDROOT
BRANCH   1   2
ATOM      2  C   UNL     1       2.998   3.784  18.814  0.00  0.00    +0.000 C 
ATOM      3  C   UNL     1       1.506   4.011  19.067  0.00  0.00    +0.000 C 
ATOM      4  C   UNL     1       1.068   3.999  20.522  0.00  0.00    +0.000 C 
ATOM      5  C   UNL     1       1.756   2.957  21.353  0.00  0.00    +0.000 C 
ATOM      6  O   UNL     1       1.268   2.533  22.403  0.00  0.00    +0.000 OA
ATOM      7  N   UNL     1       3.002   2.563  20.956  0.00  0.00    +0.000 N 
ATOM      8  C   UNL     1       3.737   3.036  19.906  0.00  0.00    +0.000 C 
ATOM      9  O   UNL     1       4.938   2.780  19.833  0.00  0.00    +0.000 OA
ATOM     10  H   UNL     1       3.500   1.985  21.617  0.00  0.00    +0.000 HD
ENDBRANCH   1   2
BRANCH   1  14
ATOM     11  C   UNL     1       6.085   4.655  14.633  0.00  0.00    +0.000 A 
ATOM     12  C   UNL     1       5.590   5.896  15.036  0.00  0.00    +0.000 A 
ATOM     13  C   UNL     1       4.820   6.011  16.201  0.00  0.00    +0.000 A 
ATOM     14  C   UNL     1       4.496   4.875  16.954  0.00  0.00    +0.000 A 
ATOM     15  C   UNL     1       4.937   3.626  16.499  0.00  0.00    +0.000 A 
ATOM     16  C   UNL     1       5.736   3.518  15.357  0.00  0.00    +0.000 A 
BRANCH  11  17
ATOM     17  O   UNL     1       6.894   4.659  13.527  0.00  0.00    +0.000 OA
BRANCH  17  19
ATOM     18  C   UNL     1       5.279   3.640  12.082  0.00  0.00    +0.000 C 
ATOM     19  C   UNL     1       6.698   3.571  12.618  0.00  0.00    +0.000 C 
ENDBRANCH  17  19
ENDBRANCH  11  17
ENDBRANCH   1  14
TORSDOF 4
ENDMDL
MODEL 8
REMARK VINA RESULT:      -7.0      2.385      6.027
REMARK  Name = 
REMARK  5 active torsions:
REMARK  status: ('A' for Active; 'I' for Inactive)
REMARK    1  A    between atoms: C_1  and  C_2
REMARK    2  A    between atoms: C_2  and  O_3
REMARK    3  A    between atoms: O_3  and  C_4
REMARK    4  A    between atoms: C_7  and  C_8
REMARK    5  A    between atoms: C_8  and  C_9
REMARK                            x       y       z     vdW  Elec       q    Type
REMARK                         _______ _______ _______ _____ _____    ______ ____
ROOT
ATOM      1  C   UNL     1       4.753   3.148  17.045  0.00  0.00    +0.000 C 
ENDROOT
BRANCH   1   2
ATOM      2  C   UNL     1       3.545   2.815  17.940  0.00  0.00    +0.000 C 
ATOM      3  C   UNL     1       2.181   3.333  17.477  0.00  0.00    +0.000 C 
ATOM      4  C   UNL     1       1.568   4.438  18.321  0.00  0.00    +0.000 C 
ATOM      5  C   UNL     1       1.772   4.258  19.795  0.00  0.00    +0.000 C 
ATOM      6  O   UNL     1       1.037   4.797  20.626  0.00  0.00    +0.000 OA
ATOM      7  N   UNL     1       2.871   3.553  20.194  0.00  0.00    +0.000 N 
ATOM      8  C   UNL     1       3.854   3.017  19.410  0.00  0.00    +0.000 C 
ATOM      9  O   UNL     1       4.910   2.646  19.919  0.00  0.00    +0.000 OA
ATOM     10  H   UNL     1       3.066   3.584  21.184  0.00  0.00    +0.000 HD
ENDBRANCH   1   2
BRANCH   1  14
ATOM     11  C   UNL     1       6.769   6.973  17.166  0.00  0.00    +0.000 A 
ATOM     12  C   UNL     1       7.414   5.829  17.638  0.00  0.00    +0.000 A 
ATOM     13  C   UNL     1       6.758   4.590  17.637  0.00  0.00    +0.000 A 
ATOM     14  C   UNL     1       5.429   4.489  17.205  0.00  0.00    +0.000 A 
ATOM     15  C   UNL     1       4.769   5.657  16.801  0.00  0.00    +0.000 A 
ATOM     16  C   UNL     1       5.437   6.886  16.769  0.00  0.00    +0.000 A 
BRANCH  11  17
ATOM     17  O   UNL     1       7.520   8.119  17.131  0.00  0.00    +0.000 OA
BRANCH  17  19
ATOM     18  C   UNL     1       8.715   9.833  18.300  0.00  0.00    +0.000 C 
ATOM     19  C   UNL     1       8.312   8.369  18.296  0.00  0.00    +0.000 C 
ENDBRANCH  17  19
ENDBRANCH  11  17
ENDBRANCH   1  14
TORSDOF 4
ENDMDL
MODEL 9
REMARK VINA RESULT:      -6.9      2.524      5.970
REMARK  Name = 
REMARK  5 active torsions:
REMARK  status: ('A' for Active; 'I' for Inactive)
REMARK    1  A    between atoms: C_1  and  C_2
REMARK    2  A    between atoms: C_2  and  O_3
REMARK    3  A    between atoms: O_3  and  C_4
REMARK    4  A    between atoms: C_7  and  C_8
REMARK    5  A    between atoms: C_8  and  C_9
REMARK                            x       y       z     vdW  Elec       q    Type
REMARK                         _______ _______ _______ _____ _____    ______ ____
ROOT
ATOM      1  C   UNL     1       1.425   4.781  17.809  0.00  0.00    +0.000 C 
ENDROOT
BRANCH   1   2
ATOM      2  C   UNL     1       1.045   4.343  19.234  0.00  0.00    +0.000 C 
ATOM      3  C   UNL     1       1.753   5.061  20.387  0.00  0.00    +0.000 C 
ATOM      4  C   UNL     1       2.740   4.225  21.185  0.00  0.00    +0.000 C 
ATOM      5  C   UNL     1       2.285   2.817  21.426  0.00  0.00    +0.000 C 
ATOM      6  O   UNL     1       2.729   2.138  22.354  0.00  0.00    +0.000 OA
ATOM      7  N   UNL     1       1.427   2.271  20.514  0.00  0.00    +0.000 N 
ATOM      8  C   UNL     1       0.956   2.835  19.363  0.00  0.00    +0.000 C 
ATOM      9  O   UNL     1       0.410   2.133  18.513  0.00  0.00    +0.000 OA
ATOM     10  H   UNL     1       1.266   1.279  20.616  0.00  0.00    +0.000 HD
ENDBRANCH   1   2
BRANCH   1  14
ATOM     11  C   UNL     1       5.677   5.260  17.174  0.00  0.00    +0.000 A 
ATOM     12  C   UNL     1       4.870   6.382  17.372  0.00  0.00    +0.000 A 
ATOM     13  C   UNL     1       3.486   6.242  17.543  0.00  0.00    +0.000 A 
ATOM     14  C   UNL     1       2.885   4.978  17.473  0.00  0.00    +0.000 A 
ATOM     15  C   UNL     1       3.695   3.869  17.201  0.00  0.00    +0.000 A 
ATOM     16  C   UNL     1       5.081   4.006  17.067  0.00  0.00    +0.000 A 
BRANCH  11  17
ATOM     17  O   UNL     1       7.025   5.493  17.098  0.00  0.00    +0.000 OA
BRANCH  17  19
ATOM     18  C   UNL     1       7.779   5.727  19.359  0.00  0.00    +0.000 C 
ATOM     19  C   UNL     1       7.815   4.862  18.111  0.00  0.00    +0.000 C 
ENDBRANCH  17  19
ENDBRANCH  11  17
ENDBRANCH   1  14
TORSDOF 4
ENDMDL
