MODEL 1
REMARK VINA RESULT:      -6.5      0.000      0.000
REMARK  Name = 
REMARK  8 active torsions:
REMARK  status: ('A' for Active; 'I' for Inactive)
REMARK    1  A    between atoms: C_1  and  N_2
REMARK    2  A    between atoms: N_2  and  C_3
REMARK    3  A    between atoms: N_2  and  C_4
REMARK    4  A    between atoms: C_7  and  C_8
REMARK    5  A    between atoms: C_8  and  C_9
REMARK    6  A    between atoms: C_15  and  O_16
REMARK    7  A    between atoms: C_17  and  S_18
REMARK    8  A    between atoms: S_18  and  C_19
REMARK                            x       y       z     vdW  Elec       q    Type
REMARK                         _______ _______ _______ _____ _____    ______ ____
ROOT
ATOM      1  C   UNL     1       0.414  10.475  20.191  0.00  0.00    +0.000 C 
ATOM      2  C   UNL     1       1.279  11.726  20.488  0.00  0.00    +0.000 C 
ATOM      3  C   UNL     1       0.549  12.718  21.352  0.00  0.00    +0.000 C 
ATOM      4  C   UNL     1      -0.462  12.346  22.164  0.00  0.00    +0.000 C 
ATOM      5  C   UNL     1      -0.773  10.880  22.322  0.00  0.00    +0.000 C 
ATOM      6  O   UNL     1      -1.518  10.428  23.187  0.00  0.00    +0.000 OA
ATOM      7  N   UNL     1      -0.150  10.018  21.456  0.00  0.00    +0.000 N 
ATOM      8  H   UNL     1      -0.445   9.056  21.545  0.00  0.00    +0.000 HD
ENDROOT
BRANCH   1  12
ATOM      9  C   UNL     1      -2.831  11.080  17.217  0.00  0.00    +0.000 A 
ATOM     10  C   UNL     1      -1.867  12.060  17.480  0.00  0.00    +0.000 A 
ATOM     11  C   UNL     1      -0.851  11.878  18.436  0.00  0.00    +0.000 A 
ATOM     12  C   UNL     1      -0.717  10.678  19.158  0.00  0.00    +0.000 A 
ATOM     13  C   UNL     1      -1.659   9.681  18.870  0.00  0.00    +0.000 A 
ATOM     14  C   UNL     1      -2.684   9.883  17.928  0.00  0.00    +0.000 A 
BRANCH   9  16
ATOM     15  C   UNL     1      -5.183  11.683  16.744  0.00  0.00    +0.000 C 
ATOM     16  N   UNL     1      -3.864  11.255  16.291  0.00  0.00    +0.000 N 
ATOM     17  C   UNL     1      -3.831  10.437  15.078  0.00  0.00    +0.000 C 
ENDBRANCH   9  16
ENDBRANCH   1  12
BRANCH   1  18
ATOM     18  C   UNL     1       1.325   9.365  19.635  0.00  0.00    +0.000 A 
ATOM     19  C   UNL     1       1.645   8.104  20.268  0.00  0.00    +0.000 A 
ATOM     20  C   UNL     1       2.379   7.258  19.466  0.00  0.00    +0.000 A 
ATOM     21  S   UNL     1       2.721   7.953  17.950  0.00  0.00    +0.000 S 
ATOM     22  C   UNL     1       1.873   9.379  18.356  0.00  0.00    +0.000 A 
ENDBRANCH   1  18
BRANCH   3  23
ATOM     23  O   UNL     1       0.983  14.031  21.274  0.00  0.00    +0.000 OA
ATOM     24  H   UNL     1       0.700  14.430  20.434  0.00  0.00    +0.000 HD
ENDBRANCH   3  23
BRANCH   4  25
ATOM     25  S   UNL     1      -1.318  13.460  23.182  0.00  0.00    +0.000 S 
BRANCH  25  26
ATOM     26  C   UNL     1      -2.946  13.349  22.438  0.00  0.00    +0.000 A 
ATOM     27  C   UNL     1      -3.043  13.540  21.049  0.00  0.00    +0.000 A 
ATOM     28  C   UNL     1      -4.264  13.379  20.387  0.00  0.00    +0.000 A 
ATOM     29  C   UNL     1      -5.404  13.022  21.100  0.00  0.00    +0.000 A 
ATOM     30  C   UNL     1      -5.326  12.832  22.478  0.00  0.00    +0.000 A 
ATOM     31  C   UNL     1      -4.105  12.990  23.148  0.00  0.00    +0.000 A 
ATOM     32 CL   UNL     1      -4.114  12.692  24.851  0.00  0.00    +0.000 Cl
ENDBRANCH  25  26
ENDBRANCH   4  25
TORSDOF 6
ENDMDL
MODEL 2
REMARK VINA RESULT:      -6.2      3.668      6.177
REMARK  Name = 
REMARK  8 active torsions:
REMARK  status: ('A' for Active; 'I' for Inactive)
REMARK    1  A    between atoms: C_1  and  N_2
REMARK    2  A    between atoms: N_2  and  C_3
REMARK    3  A    between atoms: N_2  and  C_4
REMARK    4  A    between atoms: C_7  and  C_8
REMARK    5  A    between atoms: C_8  and  C_9
REMARK    6  A    between atoms: C_15  and  O_16
REMARK    7  A    between atoms: C_17  and  S_18
REMARK    8  A    between atoms: S_18  and  C_19
REMARK                            x       y       z     vdW  Elec       q    Type
REMARK                         _______ _______ _______ _____ _____    ______ ____
ROOT
ATOM      1  C   UNL     1      -0.245  11.240  18.824  0.00  0.00    +0.000 C 
ATOM      2  C   UNL     1      -0.703  11.886  20.157  0.00  0.00    +0.000 C 
ATOM      3  C   UNL     1       0.422  12.618  20.837  0.00  0.00    +0.000 C 
ATOM      4  C   UNL     1       1.485  13.085  20.152  0.00  0.00    +0.000 C 
ATOM      5  C   UNL     1       1.481  13.003  18.647  0.00  0.00    +0.000 C 
ATOM      6  O   UNL     1       2.287  13.583  17.927  0.00  0.00    +0.000 OA
ATOM      7  N   UNL     1       0.486  12.253  18.072  0.00  0.00    +0.000 N 
ATOM      8  H   UNL     1       0.565  12.160  17.069  0.00  0.00    +0.000 HD
ENDROOT
BRANCH   1  12
ATOM      9  C   UNL     1       2.235   7.579  19.248  0.00  0.00    +0.000 A 
ATOM     10  C   UNL     1       1.512   8.119  20.318  0.00  0.00    +0.000 A 
ATOM     11  C   UNL     1       0.743   9.290  20.191  0.00  0.00    +0.000 A 
ATOM     12  C   UNL     1       0.619   9.967  18.964  0.00  0.00    +0.000 A 
ATOM     13  C   UNL     1       1.311   9.407  17.881  0.00  0.00    +0.000 A 
ATOM     14  C   UNL     1       2.095   8.248  18.027  0.00  0.00    +0.000 A 
BRANCH   9  16
ATOM     15  C   UNL     1       3.938   6.066  18.285  0.00  0.00    +0.000 C 
ATOM     16  N   UNL     1       3.026   6.432  19.363  0.00  0.00    +0.000 N 
ATOM     17  C   UNL     1       2.507   5.329  20.172  0.00  0.00    +0.000 C 
ENDBRANCH   9  16
ENDBRANCH   1  12
BRANCH   1  18
ATOM     18  C   UNL     1      -1.494  10.840  18.016  0.00  0.00    +0.000 A 
ATOM     19  C   UNL     1      -2.308   9.658  18.200  0.00  0.00    +0.000 A 
ATOM     20  C   UNL     1      -3.439   9.643  17.414  0.00  0.00    +0.000 A 
ATOM     21  S   UNL     1      -3.548  11.025  16.425  0.00  0.00    +0.000 S 
ATOM     22  C   UNL     1      -2.092  11.655  17.059  0.00  0.00    +0.000 A 
ENDBRANCH   1  18
BRANCH   3  23
ATOM     23  O   UNL     1       0.296  12.795  22.205  0.00  0.00    +0.000 OA
ATOM     24  H   UNL     1       0.219  11.935  22.651  0.00  0.00    +0.000 HD
ENDBRANCH   3  23
BRANCH   4  25
ATOM     25  S   UNL     1       2.794  13.943  20.901  0.00  0.00    +0.000 S 
BRANCH  25  26
ATOM     26  C   UNL     1       2.157  15.615  20.783  0.00  0.00    +0.000 A 
ATOM     27  C   UNL     1       1.135  15.989  21.672  0.00  0.00    +0.000 A 
ATOM     28  C   UNL     1       0.653  17.301  21.699  0.00  0.00    +0.000 A 
ATOM     29  C   UNL     1       1.186  18.259  20.843  0.00  0.00    +0.000 A 
ATOM     30  C   UNL     1       2.197  17.905  19.953  0.00  0.00    +0.000 A 
ATOM     31  C   UNL     1       2.685  16.592  19.921  0.00  0.00    +0.000 A 
ATOM     32 CL   UNL     1       3.967  16.271  18.805  0.00  0.00    +0.000 Cl
ENDBRANCH  25  26
ENDBRANCH   4  25
TORSDOF 6
ENDMDL
MODEL 3
REMARK VINA RESULT:      -6.0      3.527      6.113
REMARK  Name = 
REMARK  8 active torsions:
REMARK  status: ('A' for Active; 'I' for Inactive)
REMARK    1  A    between atoms: C_1  and  N_2
REMARK    2  A    between atoms: N_2  and  C_3
REMARK    3  A    between atoms: N_2  and  C_4
REMARK    4  A    between atoms: C_7  and  C_8
REMARK    5  A    between atoms: C_8  and  C_9
REMARK    6  A    between atoms: C_15  and  O_16
REMARK    7  A    between atoms: C_17  and  S_18
REMARK    8  A    between atoms: S_18  and  C_19
REMARK                            x       y       z     vdW  Elec       q    Type
REMARK                         _______ _______ _______ _____ _____    ______ ____
ROOT
ATOM      1  C   UNL     1      -0.165  11.471  18.978  0.00  0.00    +0.000 C 
ATOM      2  C   UNL     1      -0.461  12.293  20.258  0.00  0.00    +0.000 C 
ATOM      3  C   UNL     1       0.772  12.984  20.776  0.00  0.00    +0.000 C 
ATOM      4  C   UNL     1       1.815  13.274  19.973  0.00  0.00    +0.000 C 
ATOM      5  C   UNL     1       1.688  13.036  18.491  0.00  0.00    +0.000 C 
ATOM      6  O   UNL     1       2.484  13.459  17.658  0.00  0.00    +0.000 OA
ATOM      7  N   UNL     1       0.591  12.327  18.070  0.00  0.00    +0.000 N 
ATOM      8  H   UNL     1       0.585  12.122  17.081  0.00  0.00    +0.000 HD
ENDROOT
BRANCH   1  12
ATOM      9  C   UNL     1       2.025   7.655  19.598  0.00  0.00    +0.000 A 
ATOM     10  C   UNL     1       2.092   8.367  18.395  0.00  0.00    +0.000 A 
ATOM     11  C   UNL     1       1.382   9.565  18.189  0.00  0.00    +0.000 A 
ATOM     12  C   UNL     1       0.595  10.144  19.200  0.00  0.00    +0.000 A 
ATOM     13  C   UNL     1       0.556   9.453  20.420  0.00  0.00    +0.000 A 
ATOM     14  C   UNL     1       1.252   8.245  20.605  0.00  0.00    +0.000 A 
BRANCH   9  16
ATOM     15  C   UNL     1       3.680   5.984  18.833  0.00  0.00    +0.000 C 
ATOM     16  N   UNL     1       2.701   6.450  19.809  0.00  0.00    +0.000 N 
ATOM     17  C   UNL     1       2.013   5.414  20.580  0.00  0.00    +0.000 C 
ENDBRANCH   9  16
ENDBRANCH   1  12
BRANCH   1  18
ATOM     18  C   UNL     1      -1.501  11.108  18.304  0.00  0.00    +0.000 A 
ATOM     19  C   UNL     1      -1.732  10.051  17.343  0.00  0.00    +0.000 A 
ATOM     20  C   UNL     1      -3.061   9.882  17.022  0.00  0.00    +0.000 A 
ATOM     21  S   UNL     1      -4.061  10.989  17.842  0.00  0.00    +0.000 S 
ATOM     22  C   UNL     1      -2.721  11.685  18.641  0.00  0.00    +0.000 A 
ENDBRANCH   1  18
BRANCH   3  23
ATOM     23  O   UNL     1       0.766  13.314  22.122  0.00  0.00    +0.000 OA
ATOM     24  H   UNL     1       0.216  14.100  22.274  0.00  0.00    +0.000 HD
ENDBRANCH   3  23
BRANCH   4  25
ATOM     25  S   UNL     1       3.246  14.079  20.534  0.00  0.00    +0.000 S 
BRANCH  25  26
ATOM     26  C   UNL     1       2.621  15.757  20.634  0.00  0.00    +0.000 A 
ATOM     27  C   UNL     1       1.856  16.234  19.557  0.00  0.00    +0.000 A 
ATOM     28  C   UNL     1       1.260  17.499  19.605  0.00  0.00    +0.000 A 
ATOM     29  C   UNL     1       1.417  18.303  20.729  0.00  0.00    +0.000 A 
ATOM     30  C   UNL     1       2.175  17.846  21.805  0.00  0.00    +0.000 A 
ATOM     31  C   UNL     1       2.773  16.580  21.764  0.00  0.00    +0.000 A 
ATOM     32 CL   UNL     1       3.659  16.098  23.169  0.00  0.00    +0.000 Cl
ENDBRANCH  25  26
ENDBRANCH   4  25
TORSDOF 6
ENDMDL
MODEL 4
REMARK VINA RESULT:      -5.9      3.320      5.943
REMARK  Name = 
REMARK  8 active torsions:
REMARK  status: ('A' for Active; 'I' for Inactive)
REMARK    1  A    between atoms: C_1  and  N_2
REMARK    2  A    between atoms: N_2  and  C_3
REMARK    3  A    between atoms: N_2  and  C_4
REMARK    4  A    between atoms: C_7  and  C_8
REMARK    5  A    between atoms: C_8  and  C_9
REMARK    6  A    between atoms: C_15  and  O_16
REMARK    7  A    between atoms: C_17  and  S_18
REMARK    8  A    between atoms: S_18  and  C_19
REMARK                            x       y       z     vdW  Elec       q    Type
REMARK                         _______ _______ _______ _____ _____    ______ ____
ROOT
ATOM      1  C   UNL     1      -0.260  11.225  18.794  0.00  0.00    +0.000 C 
ATOM      2  C   UNL     1      -0.745  11.890  20.107  0.00  0.00    +0.000 C 
ATOM      3  C   UNL     1       0.367  12.631  20.801  0.00  0.00    +0.000 C 
ATOM      4  C   UNL     1       1.445  13.086  20.132  0.00  0.00    +0.000 C 
ATOM      5  C   UNL     1       1.473  12.982  18.629  0.00  0.00    +0.000 C 
ATOM      6  O   UNL     1       2.297  13.551  17.918  0.00  0.00    +0.000 OA
ATOM      7  N   UNL     1       0.490  12.226  18.043  0.00  0.00    +0.000 N 
ATOM      8  H   UNL     1       0.591  12.118  17.043  0.00  0.00    +0.000 HD
ENDROOT
BRANCH   1  12
ATOM      9  C   UNL     1       2.203   7.566  19.325  0.00  0.00    +0.000 A 
ATOM     10  C   UNL     1       1.464   8.127  20.372  0.00  0.00    +0.000 A 
ATOM     11  C   UNL     1       0.701   9.297  20.212  0.00  0.00    +0.000 A 
ATOM     12  C   UNL     1       0.599   9.952  18.971  0.00  0.00    +0.000 A 
ATOM     13  C   UNL     1       1.308   9.371  17.910  0.00  0.00    +0.000 A 
ATOM     14  C   UNL     1       2.086   8.214  18.089  0.00  0.00    +0.000 A 
BRANCH   9  16
ATOM     15  C   UNL     1       3.931   6.042  18.424  0.00  0.00    +0.000 C 
ATOM     16  N   UNL     1       2.990   6.419  19.473  0.00  0.00    +0.000 N 
ATOM     17  C   UNL     1       2.446   5.325  20.278  0.00  0.00    +0.000 C 
ENDBRANCH   9  16
ENDBRANCH   1  12
BRANCH   1  18
ATOM     18  C   UNL     1      -1.491  10.816  17.964  0.00  0.00    +0.000 A 
ATOM     19  C   UNL     1      -2.358   9.681  18.196  0.00  0.00    +0.000 A 
ATOM     20  C   UNL     1      -3.458   9.651  17.367  0.00  0.00    +0.000 A 
ATOM     21  S   UNL     1      -3.473  10.963  16.281  0.00  0.00    +0.000 S 
ATOM     22  C   UNL     1      -2.019  11.581  16.930  0.00  0.00    +0.000 A 
ENDBRANCH   1  18
BRANCH   3  23
ATOM     23  O   UNL     1       0.211  12.828  22.163  0.00  0.00    +0.000 OA
ATOM     24  H   UNL     1      -0.315  12.108  22.550  0.00  0.00    +0.000 HD
ENDBRANCH   3  23
BRANCH   4  25
ATOM     25  S   UNL     1       2.739  13.952  20.898  0.00  0.00    +0.000 S 
BRANCH  25  26
ATOM     26  C   UNL     1       2.219  15.632  20.545  0.00  0.00    +0.000 A 
ATOM     27  C   UNL     1       2.682  16.223  19.357  0.00  0.00    +0.000 A 
ATOM     28  C   UNL     1       2.247  17.494  18.972  0.00  0.00    +0.000 A 
ATOM     29  C   UNL     1       1.340  18.193  19.763  0.00  0.00    +0.000 A 
ATOM     30  C   UNL     1       0.874  17.623  20.946  0.00  0.00    +0.000 A 
ATOM     31  C   UNL     1       1.305  16.349  21.338  0.00  0.00    +0.000 A 
ATOM     32 CL   UNL     1       0.633  15.722  22.802  0.00  0.00    +0.000 Cl
ENDBRANCH  25  26
ENDBRANCH   4  25
TORSDOF 6
ENDMDL
MODEL 5
REMARK VINA RESULT:      -5.9      0.993      1.218
REMARK  Name = 
REMARK  8 active torsions:
REMARK  status: ('A' for Active; 'I' for Inactive)
REMARK    1  A    between atoms: C_1  and  N_2
REMARK    2  A    between atoms: N_2  and  C_3
REMARK    3  A    between atoms: N_2  and  C_4
REMARK    4  A    between atoms: C_7  and  C_8
REMARK    5  A    between atoms: C_8  and  C_9
REMARK    6  A    between atoms: C_15  and  O_16
REMARK    7  A    between atoms: C_17  and  S_18
REMARK    8  A    between atoms: S_18  and  C_19
REMARK                            x       y       z     vdW  Elec       q    Type
REMARK                         _______ _______ _______ _____ _____    ______ ____
ROOT
ATOM      1  C   UNL     1       0.386  10.483  20.179  0.00  0.00    +0.000 C 
ATOM      2  C   UNL     1       1.244  11.759  20.376  0.00  0.00    +0.000 C 
ATOM      3  C   UNL     1       0.532  12.787  21.214  0.00  0.00    +0.000 C 
ATOM      4  C   UNL     1      -0.441  12.446  22.082  0.00  0.00    +0.000 C 
ATOM      5  C   UNL     1      -0.725  10.988  22.330  0.00  0.00    +0.000 C 
ATOM      6  O   UNL     1      -1.430  10.573  23.246  0.00  0.00    +0.000 OA
ATOM      7  N   UNL     1      -0.122  10.088  21.488  0.00  0.00    +0.000 N 
ATOM      8  H   UNL     1      -0.400   9.128  21.639  0.00  0.00    +0.000 HD
ENDROOT
BRANCH   1  12
ATOM      9  C   UNL     1      -2.976  10.887  17.304  0.00  0.00    +0.000 A 
ATOM     10  C   UNL     1      -2.005  11.882  17.462  0.00  0.00    +0.000 A 
ATOM     11  C   UNL     1      -0.952  11.765  18.387  0.00  0.00    +0.000 A 
ATOM     12  C   UNL     1      -0.786  10.616  19.181  0.00  0.00    +0.000 A 
ATOM     13  C   UNL     1      -1.735   9.601  18.998  0.00  0.00    +0.000 A 
ATOM     14  C   UNL     1      -2.797   9.740  18.087  0.00  0.00    +0.000 A 
BRANCH   9  16
ATOM     15  C   UNL     1      -3.836  10.739  14.990  0.00  0.00    +0.000 C 
ATOM     16  N   UNL     1      -4.046  10.998  16.410  0.00  0.00    +0.000 N 
ATOM     17  C   UNL     1      -5.112  11.942  16.744  0.00  0.00    +0.000 C 
ENDBRANCH   9  16
ENDBRANCH   1  12
BRANCH   1  18
ATOM     18  C   UNL     1       1.293   9.356  19.649  0.00  0.00    +0.000 A 
ATOM     19  C   UNL     1       1.636   8.125  20.326  0.00  0.00    +0.000 A 
ATOM     20  C   UNL     1       2.357   7.250  19.543  0.00  0.00    +0.000 A 
ATOM     21  S   UNL     1       2.658   7.883  17.991  0.00  0.00    +0.000 S 
ATOM     22  C   UNL     1       1.810   9.320  18.358  0.00  0.00    +0.000 A 
ENDBRANCH   1  18
BRANCH   3  23
ATOM     23  O   UNL     1       0.943  14.099  21.049  0.00  0.00    +0.000 OA
ATOM     24  H   UNL     1       1.839  14.219  21.408  0.00  0.00    +0.000 HD
ENDBRANCH   3  23
BRANCH   4  25
ATOM     25  S   UNL     1      -1.275  13.602  23.071  0.00  0.00    +0.000 S 
BRANCH  25  26
ATOM     26  C   UNL     1      -2.714  13.890  22.040  0.00  0.00    +0.000 A 
ATOM     27  C   UNL     1      -3.077  12.884  21.130  0.00  0.00    +0.000 A 
ATOM     28  C   UNL     1      -4.238  12.999  20.359  0.00  0.00    +0.000 A 
ATOM     29  C   UNL     1      -5.054  14.118  20.488  0.00  0.00    +0.000 A 
ATOM     30  C   UNL     1      -4.706  15.128  21.383  0.00  0.00    +0.000 A 
ATOM     31  C   UNL     1      -3.546  15.018  22.159  0.00  0.00    +0.000 A 
ATOM     32 CL   UNL     1      -3.231  16.310  23.265  0.00  0.00    +0.000 Cl
ENDBRANCH  25  26
ENDBRANCH   4  25
TORSDOF 6
ENDMDL
MODEL 6
REMARK VINA RESULT:      -5.9      3.486      6.493
REMARK  Name = 
REMARK  8 active torsions:
REMARK  status: ('A' for Active; 'I' for Inactive)
REMARK    1  A    between atoms: C_1  and  N_2
REMARK    2  A    between atoms: N_2  and  C_3
REMARK    3  A    between atoms: N_2  and  C_4
REMARK    4  A    between atoms: C_7  and  C_8
REMARK    5  A    between atoms: C_8  and  C_9
REMARK    6  A    between atoms: C_15  and  O_16
REMARK    7  A    between atoms: C_17  and  S_18
REMARK    8  A    between atoms: S_18  and  C_19
REMARK                            x       y       z     vdW  Elec       q    Type
REMARK                         _______ _______ _______ _____ _____    ______ ____
ROOT
ATOM      1  C   UNL     1      -2.762  14.596  23.068  0.00  0.00    +0.000 C 
ATOM      2  C   UNL     1      -3.249  15.642  22.032  0.00  0.00    +0.000 C 
ATOM      3  C   UNL     1      -4.291  15.069  21.108  0.00  0.00    +0.000 C 
ATOM      4  C   UNL     1      -5.050  14.012  21.461  0.00  0.00    +0.000 C 
ATOM      5  C   UNL     1      -4.961  13.481  22.868  0.00  0.00    +0.000 C 
ATOM      6  O   UNL     1      -5.752  12.674  23.348  0.00  0.00    +0.000 OA
ATOM      7  N   UNL     1      -3.943  13.968  23.649  0.00  0.00    +0.000 N 
ATOM      8  H   UNL     1      -3.871  13.529  24.557  0.00  0.00    +0.000 HD
ENDROOT
BRANCH   1  12
ATOM      9  C   UNL     1      -0.014  11.491  21.475  0.00  0.00    +0.000 A 
ATOM     10  C   UNL     1      -0.115  12.763  20.901  0.00  0.00    +0.000 A 
ATOM     11  C   UNL     1      -1.000  13.741  21.391  0.00  0.00    +0.000 A 
ATOM     12  C   UNL     1      -1.808  13.512  22.520  0.00  0.00    +0.000 A 
ATOM     13  C   UNL     1      -1.681  12.251  23.120  0.00  0.00    +0.000 A 
ATOM     14  C   UNL     1      -0.810  11.274  22.607  0.00  0.00    +0.000 A 
BRANCH   9  16
ATOM     15  C   UNL     1       0.888  10.223  19.552  0.00  0.00    +0.000 C 
ATOM     16  N   UNL     1       0.840  10.498  20.984  0.00  0.00    +0.000 N 
ATOM     17  C   UNL     1       1.151   9.375  21.868  0.00  0.00    +0.000 C 
ENDBRANCH   9  16
ENDBRANCH   1  12
BRANCH   1  18
ATOM     18  C   UNL     1      -2.001  15.330  24.188  0.00  0.00    +0.000 A 
ATOM     19  C   UNL     1      -2.071  15.062  25.608  0.00  0.00    +0.000 A 
ATOM     20  C   UNL     1      -1.170  15.794  26.350  0.00  0.00    +0.000 A 
ATOM     21  S   UNL     1      -0.235  16.830  25.376  0.00  0.00    +0.000 S 
ATOM     22  C   UNL     1      -1.020  16.290  23.958  0.00  0.00    +0.000 A 
ENDBRANCH   1  18
BRANCH   3  23
ATOM     23  O   UNL     1      -4.430  15.697  19.882  0.00  0.00    +0.000 OA
ATOM     24  H   UNL     1      -4.668  15.050  19.197  0.00  0.00    +0.000 HD
ENDBRANCH   3  23
BRANCH   4  25
ATOM     25  S   UNL     1      -6.266  13.333  20.426  0.00  0.00    +0.000 S 
BRANCH  25  26
ATOM     26  C   UNL     1      -5.212  12.579  19.186  0.00  0.00    +0.000 A 
ATOM     27  C   UNL     1      -3.915  12.204  19.573  0.00  0.00    +0.000 A 
ATOM     28  C   UNL     1      -3.069  11.530  18.687  0.00  0.00    +0.000 A 
ATOM     29  C   UNL     1      -3.507  11.218  17.404  0.00  0.00    +0.000 A 
ATOM     30  C   UNL     1      -4.790  11.586  17.003  0.00  0.00    +0.000 A 
ATOM     31  C   UNL     1      -5.643  12.261  17.886  0.00  0.00    +0.000 A 
ATOM     32 CL   UNL     1      -7.225  12.635  17.298  0.00  0.00    +0.000 Cl
ENDBRANCH  25  26
ENDBRANCH   4  25
TORSDOF 6
ENDMDL
MODEL 7
REMARK VINA RESULT:      -5.9      1.062      1.613
REMARK  Name = 
REMARK  8 active torsions:
REMARK  status: ('A' for Active; 'I' for Inactive)
REMARK    1  A    between atoms: C_1  and  N_2
REMARK    2  A    between atoms: N_2  and  C_3
REMARK    3  A    between atoms: N_2  and  C_4
REMARK    4  A    between atoms: C_7  and  C_8
REMARK    5  A    between atoms: C_8  and  C_9
REMARK    6  A    between atoms: C_15  and  O_16
REMARK    7  A    between atoms: C_17  and  S_18
REMARK    8  A    between atoms: S_18  and  C_19
REMARK                            x       y       z     vdW  Elec       q    Type
REMARK                         _______ _______ _______ _____ _____    ______ ____
ROOT
ATOM      1  C   UNL     1       0.422  10.470  20.278  0.00  0.00    +0.000 C 
ATOM      2  C   UNL     1       1.325  11.697  20.559  0.00  0.00    +0.000 C 
ATOM      3  C   UNL     1       0.622  12.726  21.404  0.00  0.00    +0.000 C 
ATOM      4  C   UNL     1      -0.403  12.400  22.216  0.00  0.00    +0.000 C 
ATOM      5  C   UNL     1      -0.763  10.948  22.396  0.00  0.00    +0.000 C 
ATOM      6  O   UNL     1      -1.526  10.534  23.264  0.00  0.00    +0.000 OA
ATOM      7  N   UNL     1      -0.163  10.053  21.548  0.00  0.00    +0.000 N 
ATOM      8  H   UNL     1      -0.489   9.102  21.651  0.00  0.00    +0.000 HD
ENDROOT
BRANCH   1  12
ATOM      9  C   UNL     1      -2.800  11.089  17.282  0.00  0.00    +0.000 A 
ATOM     10  C   UNL     1      -2.623   9.870  17.947  0.00  0.00    +0.000 A 
ATOM     11  C   UNL     1      -1.590   9.665  18.881  0.00  0.00    +0.000 A 
ATOM     12  C   UNL     1      -0.697  10.692  19.236  0.00  0.00    +0.000 A 
ATOM     13  C   UNL     1      -0.895  11.925  18.599  0.00  0.00    +0.000 A 
ATOM     14  C   UNL     1      -1.916  12.111  17.651  0.00  0.00    +0.000 A 
BRANCH   9  16
ATOM     15  C   UNL     1      -5.118  11.771  16.754  0.00  0.00    +0.000 C 
ATOM     16  N   UNL     1      -3.803  11.301  16.331  0.00  0.00    +0.000 N 
ATOM     17  C   UNL     1      -3.767  10.487  15.116  0.00  0.00    +0.000 C 
ENDBRANCH   9  16
ENDBRANCH   1  12
BRANCH   1  18
ATOM     18  C   UNL     1       1.300   9.322  19.746  0.00  0.00    +0.000 A 
ATOM     19  C   UNL     1       1.603   8.076  20.415  0.00  0.00    +0.000 A 
ATOM     20  C   UNL     1       2.306   7.188  19.631  0.00  0.00    +0.000 A 
ATOM     21  S   UNL     1       2.637   7.825  18.087  0.00  0.00    +0.000 S 
ATOM     22  C   UNL     1       1.827   9.282  18.459  0.00  0.00    +0.000 A 
ENDBRANCH   1  18
BRANCH   3  23
ATOM     23  O   UNL     1       1.098  14.023  21.307  0.00  0.00    +0.000 OA
ATOM     24  H   UNL     1       0.718  14.465  20.529  0.00  0.00    +0.000 HD
ENDBRANCH   3  23
BRANCH   4  25
ATOM     25  S   UNL     1      -1.228  13.557  23.210  0.00  0.00    +0.000 S 
BRANCH  25  26
ATOM     26  C   UNL     1      -2.826  13.561  22.396  0.00  0.00    +0.000 A 
ATOM     27  C   UNL     1      -3.893  12.920  23.048  0.00  0.00    +0.000 A 
ATOM     28  C   UNL     1      -5.186  12.959  22.518  0.00  0.00    +0.000 A 
ATOM     29  C   UNL     1      -5.434  13.643  21.332  0.00  0.00    +0.000 A 
ATOM     30  C   UNL     1      -4.387  14.282  20.670  0.00  0.00    +0.000 A 
ATOM     31  C   UNL     1      -3.089  14.247  21.197  0.00  0.00    +0.000 A 
ATOM     32 CL   UNL     1      -1.874  15.105  20.315  0.00  0.00    +0.000 Cl
ENDBRANCH  25  26
ENDBRANCH   4  25
TORSDOF 6
ENDMDL
MODEL 8
REMARK VINA RESULT:      -5.8      0.949      1.422
REMARK  Name = 
REMARK  8 active torsions:
REMARK  status: ('A' for Active; 'I' for Inactive)
REMARK    1  A    between atoms: C_1  and  N_2
REMARK    2  A    between atoms: N_2  and  C_3
REMARK    3  A    between atoms: N_2  and  C_4
REMARK    4  A    between atoms: C_7  and  C_8
REMARK    5  A    between atoms: C_8  and  C_9
REMARK    6  A    between atoms: C_15  and  O_16
REMARK    7  A    between atoms: C_17  and  S_18
REMARK    8  A    between atoms: S_18  and  C_19
REMARK                            x       y       z     vdW  Elec       q    Type
REMARK                         _______ _______ _______ _____ _____    ______ ____
ROOT
ATOM      1  C   UNL     1       0.399  10.358  20.102  0.00  0.00    +0.000 C 
ATOM      2  C   UNL     1       1.351  11.557  20.346  0.00  0.00    +0.000 C 
ATOM      3  C   UNL     1       0.710  12.612  21.207  0.00  0.00    +0.000 C 
ATOM      4  C   UNL     1      -0.299  12.323  22.054  0.00  0.00    +0.000 C 
ATOM      5  C   UNL     1      -0.698  10.884  22.255  0.00  0.00    +0.000 C 
ATOM      6  O   UNL     1      -1.445  10.498  23.150  0.00  0.00    +0.000 OA
ATOM      7  N   UNL     1      -0.155   9.965  21.392  0.00  0.00    +0.000 N 
ATOM      8  H   UNL     1      -0.509   9.026  21.511  0.00  0.00    +0.000 HD
ENDROOT
BRANCH   1  12
ATOM      9  C   UNL     1      -2.900  11.068  17.212  0.00  0.00    +0.000 A 
ATOM     10  C   UNL     1      -2.842   9.921  18.012  0.00  0.00    +0.000 A 
ATOM     11  C   UNL     1      -1.787   9.684  18.912  0.00  0.00    +0.000 A 
ATOM     12  C   UNL     1      -0.746  10.612  19.095  0.00  0.00    +0.000 A 
ATOM     13  C   UNL     1      -0.821  11.779  18.323  0.00  0.00    +0.000 A 
ATOM     14  C   UNL     1      -1.868  11.994  17.410  0.00  0.00    +0.000 A 
BRANCH   9  16
ATOM     15  C   UNL     1      -5.242  11.725  16.764  0.00  0.00    +0.000 C 
ATOM     16  N   UNL     1      -3.926  11.306  16.292  0.00  0.00    +0.000 N 
ATOM     17  C   UNL     1      -3.898  10.556  15.037  0.00  0.00    +0.000 C 
ENDBRANCH   9  16
ENDBRANCH   1  12
BRANCH   1  18
ATOM     18  C   UNL     1       1.222   9.180  19.547  0.00  0.00    +0.000 A 
ATOM     19  C   UNL     1       1.838   9.088  18.241  0.00  0.00    +0.000 A 
ATOM     20  C   UNL     1       2.625   7.969  18.082  0.00  0.00    +0.000 A 
ATOM     21  S   UNL     1       2.634   6.993  19.477  0.00  0.00    +0.000 S 
ATOM     22  C   UNL     1       1.599   8.074  20.301  0.00  0.00    +0.000 A 
ENDBRANCH   1  18
BRANCH   3  23
ATOM     23  O   UNL     1       1.223  13.893  21.087  0.00  0.00    +0.000 OA
ATOM     24  H   UNL     1       0.896  14.456  21.808  0.00  0.00    +0.000 HD
ENDBRANCH   3  23
BRANCH   4  25
ATOM     25  S   UNL     1      -1.053  13.510  23.069  0.00  0.00    +0.000 S 
BRANCH  25  26
ATOM     26  C   UNL     1      -2.569  13.768  22.146  0.00  0.00    +0.000 A 
ATOM     27  C   UNL     1      -2.815  12.929  21.047  0.00  0.00    +0.000 A 
ATOM     28  C   UNL     1      -4.016  13.011  20.336  0.00  0.00    +0.000 A 
ATOM     29  C   UNL     1      -4.990  13.930  20.714  0.00  0.00    +0.000 A 
ATOM     30  C   UNL     1      -4.761  14.773  21.799  0.00  0.00    +0.000 A 
ATOM     31  C   UNL     1      -3.560  14.695  22.517  0.00  0.00    +0.000 A 
ATOM     32 CL   UNL     1      -3.396  15.760  23.869  0.00  0.00    +0.000 Cl
ENDBRANCH  25  26
ENDBRANCH   4  25
TORSDOF 6
ENDMDL
MODEL 9
REMARK VINA RESULT:      -5.8      1.277      1.758
REMARK  Name = 
REMARK  8 active torsions:
REMARK  status: ('A' for Active; 'I' for Inactive)
REMARK    1  A    between atoms: C_1  and  N_2
REMARK    2  A    between atoms: N_2  and  C_3
REMARK    3  A    between atoms: N_2  and  C_4
REMARK    4  A    between atoms: C_7  and  C_8
REMARK    5  A    between atoms: C_8  and  C_9
REMARK    6  A    between atoms: C_15  and  O_16
REMARK    7  A    between atoms: C_17  and  S_18
REMARK    8  A    between atoms: S_18  and  C_19
REMARK                            x       y       z     vdW  Elec       q    Type
REMARK                         _______ _______ _______ _____ _____    ______ ____
ROOT
ATOM      1  C   UNL     1       0.419  10.363  19.947  0.00  0.00    +0.000 C 
ATOM      2  C   UNL     1       1.310  11.621  20.116  0.00  0.00    +0.000 C 
ATOM      3  C   UNL     1       0.668  12.643  21.015  0.00  0.00    +0.000 C 
ATOM      4  C   UNL     1      -0.258  12.301  21.934  0.00  0.00    +0.000 C 
ATOM      5  C   UNL     1      -0.552  10.843  22.171  0.00  0.00    +0.000 C 
ATOM      6  O   UNL     1      -1.208  10.421  23.119  0.00  0.00    +0.000 OA
ATOM      7  N   UNL     1      -0.017   9.950  21.276  0.00  0.00    +0.000 N 
ATOM      8  H   UNL     1      -0.302   8.992  21.426  0.00  0.00    +0.000 HD
ENDROOT
BRANCH   1  12
ATOM      9  C   UNL     1      -3.116  10.875  17.306  0.00  0.00    +0.000 A 
ATOM     10  C   UNL     1      -2.904  11.677  18.433  0.00  0.00    +0.000 A 
ATOM     11  C   UNL     1      -1.796  11.503  19.283  0.00  0.00    +0.000 A 
ATOM     12  C   UNL     1      -0.808  10.536  19.024  0.00  0.00    +0.000 A 
ATOM     13  C   UNL     1      -0.998   9.756  17.875  0.00  0.00    +0.000 A 
ATOM     14  C   UNL     1      -2.122   9.925  17.047  0.00  0.00    +0.000 A 
BRANCH   9  16
ATOM     15  C   UNL     1      -4.091  10.768  15.036  0.00  0.00    +0.000 C 
ATOM     16  N   UNL     1      -4.226  11.016  16.467  0.00  0.00    +0.000 N 
ATOM     17  C   UNL     1      -5.256  11.977  16.862  0.00  0.00    +0.000 C 
ENDBRANCH   9  16
ENDBRANCH   1  12
BRANCH   1  18
ATOM     18  C   UNL     1       1.272   9.233  19.342  0.00  0.00    +0.000 A 
ATOM     19  C   UNL     1       1.996   9.264  18.089  0.00  0.00    +0.000 A 
ATOM     20  C   UNL     1       2.779   8.151  17.879  0.00  0.00    +0.000 A 
ATOM     21  S   UNL     1       2.656   7.034  19.159  0.00  0.00    +0.000 S 
ATOM     22  C   UNL     1       1.569   8.045  20.003  0.00  0.00    +0.000 A 
ENDBRANCH   1  18
BRANCH   3  23
ATOM     23  O   UNL     1       1.092  13.951  20.851  0.00  0.00    +0.000 OA
ATOM     24  H   UNL     1       0.370  14.498  20.496  0.00  0.00    +0.000 HD
ENDBRANCH   3  23
BRANCH   4  25
ATOM     25  S   UNL     1      -1.010  13.451  22.993  0.00  0.00    +0.000 S 
BRANCH  25  26
ATOM     26  C   UNL     1      -2.629  13.544  22.228  0.00  0.00    +0.000 A 
ATOM     27  C   UNL     1      -3.647  12.732  22.754  0.00  0.00    +0.000 A 
ATOM     28  C   UNL     1      -4.955  12.817  22.268  0.00  0.00    +0.000 A 
ATOM     29  C   UNL     1      -5.267  13.716  21.252  0.00  0.00    +0.000 A 
ATOM     30  C   UNL     1      -4.267  14.526  20.716  0.00  0.00    +0.000 A 
ATOM     31  C   UNL     1      -2.955  14.446  21.200  0.00  0.00    +0.000 A 
ATOM     32 CL   UNL     1      -1.803  15.524  20.490  0.00  0.00    +0.000 Cl
ENDBRANCH  25  26
ENDBRANCH   4  25
TORSDOF 6
ENDMDL
