MODEL 1
REMARK VINA RESULT:      -7.4      0.000      0.000
REMARK  Name = 
REMARK  3 active torsions:
REMARK  status: ('A' for Active; 'I' for Inactive)
REMARK    1  A    between atoms: C_1  and  C_2
REMARK    2  A    between atoms: C_7  and  C_8
REMARK    3  A    between atoms: C_14  and  C_15
REMARK                            x       y       z     vdW  Elec       q    Type
REMARK                         _______ _______ _______ _____ _____    ______ ____
ROOT
ATOM      1  C   UNL     1       7.197   6.246  16.559  0.00  0.00    +0.000 C 
ATOM      2  C   UNL     1       5.967   5.525  17.041  0.00  0.00    +0.000 A 
ATOM      3  C   UNL     1       5.374   5.917  18.256  0.00  0.00    +0.000 A 
ATOM      4  C   UNL     1       4.228   5.288  18.758  0.00  0.00    +0.000 A 
ATOM      5  C   UNL     1       3.689   4.223  18.025  0.00  0.00    +0.000 A 
ATOM      6  C   UNL     1       4.266   3.814  16.812  0.00  0.00    +0.000 A 
ATOM      7  C   UNL     1       5.410   4.458  16.314  0.00  0.00    +0.000 A 
ATOM      8  C   UNL     1       6.029   3.985  15.027  0.00  0.00    +0.000 C 
ATOM      9  N   UNL     1       2.546   3.581  18.557  0.00  0.00    +0.000 N 
ATOM     10  C   UNL     1       1.826   2.524  18.041  0.00  0.00    +0.000 A 
ATOM     11  C   UNL     1       0.790   2.228  18.901  0.00  0.00    +0.000 A 
ATOM     12  C   UNL     1       0.875   3.126  19.985  0.00  0.00    +0.000 A 
ATOM     13  C   UNL     1       1.952   3.959  19.742  0.00  0.00    +0.000 A 
ATOM     14  C   UNL     1       2.501   5.106  20.520  0.00  0.00    +0.000 C 
ATOM     15  C   UNL     1       1.467   6.232  20.614  0.00  0.00    +0.000 C 
ATOM     16  N   UNL     1       3.762   5.641  20.021  0.00  0.00    +0.000 N 
ATOM     17  H   UNL     1       4.026   6.560  20.359  0.00  0.00    +0.000 HD
ENDROOT
TORSDOF 0
ENDMDL
MODEL 2
REMARK VINA RESULT:      -7.4      1.579      5.555
REMARK  Name = 
REMARK  3 active torsions:
REMARK  status: ('A' for Active; 'I' for Inactive)
REMARK    1  A    between atoms: C_1  and  C_2
REMARK    2  A    between atoms: C_7  and  C_8
REMARK    3  A    between atoms: C_14  and  C_15
REMARK                            x       y       z     vdW  Elec       q    Type
REMARK                         _______ _______ _______ _____ _____    ______ ____
ROOT
ATOM      1  C   UNL     1       0.600   2.234  18.795  0.00  0.00    +0.000 C 
ATOM      2  C   UNL     1       1.938   2.925  18.758  0.00  0.00    +0.000 A 
ATOM      3  C   UNL     1       2.712   2.858  17.585  0.00  0.00    +0.000 A 
ATOM      4  C   UNL     1       3.962   3.480  17.486  0.00  0.00    +0.000 A 
ATOM      5  C   UNL     1       4.448   4.160  18.611  0.00  0.00    +0.000 A 
ATOM      6  C   UNL     1       3.693   4.237  19.792  0.00  0.00    +0.000 A 
ATOM      7  C   UNL     1       2.435   3.616  19.876  0.00  0.00    +0.000 A 
ATOM      8  C   UNL     1       1.656   3.686  21.161  0.00  0.00    +0.000 C 
ATOM      9  N   UNL     1       5.724   4.762  18.505  0.00  0.00    +0.000 N 
ATOM     10  C   UNL     1       6.423   5.485  19.449  0.00  0.00    +0.000 A 
ATOM     11  C   UNL     1       7.628   5.877  18.907  0.00  0.00    +0.000 A 
ATOM     12  C   UNL     1       7.679   5.377  17.590  0.00  0.00    +0.000 A 
ATOM     13  C   UNL     1       6.489   4.710  17.360  0.00  0.00    +0.000 A 
ATOM     14  C   UNL     1       5.974   4.010  16.149  0.00  0.00    +0.000 C 
ATOM     15  C   UNL     1       5.812   4.998  14.989  0.00  0.00    +0.000 C 
ATOM     16  N   UNL     1       4.730   3.276  16.344  0.00  0.00    +0.000 N 
ATOM     17  H   UNL     1       4.228   3.010  15.504  0.00  0.00    +0.000 HD
ENDROOT
TORSDOF 0
ENDMDL
MODEL 3
REMARK VINA RESULT:      -7.1      1.531      4.993
REMARK  Name = 
REMARK  3 active torsions:
REMARK  status: ('A' for Active; 'I' for Inactive)
REMARK    1  A    between atoms: C_1  and  C_2
REMARK    2  A    between atoms: C_7  and  C_8
REMARK    3  A    between atoms: C_14  and  C_15
REMARK                            x       y       z     vdW  Elec       q    Type
REMARK                         _______ _______ _______ _____ _____    ______ ____
ROOT
ATOM      1  C   UNL     1       1.222   4.699  20.420  0.00  0.00    +0.000 C 
ATOM      2  C   UNL     1       2.228   4.598  19.304  0.00  0.00    +0.000 A 
ATOM      3  C   UNL     1       3.103   5.675  19.071  0.00  0.00    +0.000 A 
ATOM      4  C   UNL     1       4.062   5.643  18.051  0.00  0.00    +0.000 A 
ATOM      5  C   UNL     1       4.115   4.505  17.235  0.00  0.00    +0.000 A 
ATOM      6  C   UNL     1       3.249   3.420  17.449  0.00  0.00    +0.000 A 
ATOM      7  C   UNL     1       2.297   3.461  18.482  0.00  0.00    +0.000 A 
ATOM      8  C   UNL     1       1.360   2.300  18.674  0.00  0.00    +0.000 C 
ATOM      9  N   UNL     1       5.071   4.497  16.192  0.00  0.00    +0.000 N 
ATOM     10  C   UNL     1       5.331   3.513  15.262  0.00  0.00    +0.000 A 
ATOM     11  C   UNL     1       6.349   3.939  14.435  0.00  0.00    +0.000 A 
ATOM     12  C   UNL     1       6.726   5.228  14.865  0.00  0.00    +0.000 A 
ATOM     13  C   UNL     1       5.938   5.542  15.957  0.00  0.00    +0.000 A 
ATOM     14  C   UNL     1       5.909   6.748  16.833  0.00  0.00    +0.000 C 
ATOM     15  C   UNL     1       7.244   6.908  17.567  0.00  0.00    +0.000 C 
ATOM     16  N   UNL     1       4.815   6.785  17.795  0.00  0.00    +0.000 N 
ATOM     17  H   UNL     1       4.909   7.444  18.559  0.00  0.00    +0.000 HD
ENDROOT
TORSDOF 0
ENDMDL
MODEL 4
REMARK VINA RESULT:      -7.0      2.160      4.434
REMARK  Name = 
REMARK  3 active torsions:
REMARK  status: ('A' for Active; 'I' for Inactive)
REMARK    1  A    between atoms: C_1  and  C_2
REMARK    2  A    between atoms: C_7  and  C_8
REMARK    3  A    between atoms: C_14  and  C_15
REMARK                            x       y       z     vdW  Elec       q    Type
REMARK                         _______ _______ _______ _____ _____    ______ ____
ROOT
ATOM      1  C   UNL     1       0.768   9.767  20.596  0.00  0.00    +0.000 C 
ATOM      2  C   UNL     1       1.397   8.528  20.015  0.00  0.00    +0.000 A 
ATOM      3  C   UNL     1       1.467   7.362  20.799  0.00  0.00    +0.000 A 
ATOM      4  C   UNL     1       2.037   6.178  20.317  0.00  0.00    +0.000 A 
ATOM      5  C   UNL     1       2.571   6.186  19.021  0.00  0.00    +0.000 A 
ATOM      6  C   UNL     1       2.514   7.340  18.222  0.00  0.00    +0.000 A 
ATOM      7  C   UNL     1       1.931   8.519  18.714  0.00  0.00    +0.000 A 
ATOM      8  C   UNL     1       1.907   9.752  17.853  0.00  0.00    +0.000 C 
ATOM      9  N   UNL     1       3.167   4.990  18.556  0.00  0.00    +0.000 N 
ATOM     10  C   UNL     1       3.754   4.732  17.335  0.00  0.00    +0.000 A 
ATOM     11  C   UNL     1       4.203   3.428  17.324  0.00  0.00    +0.000 A 
ATOM     12  C   UNL     1       3.887   2.865  18.578  0.00  0.00    +0.000 A 
ATOM     13  C   UNL     1       3.235   3.839  19.312  0.00  0.00    +0.000 A 
ATOM     14  C   UNL     1       2.650   3.809  20.682  0.00  0.00    +0.000 C 
ATOM     15  C   UNL     1       1.510   2.788  20.754  0.00  0.00    +0.000 C 
ATOM     16  N   UNL     1       2.184   5.097  21.181  0.00  0.00    +0.000 N 
ATOM     17  H   UNL     1       1.562   5.071  21.981  0.00  0.00    +0.000 HD
ENDROOT
TORSDOF 0
ENDMDL
MODEL 5
REMARK VINA RESULT:      -7.0      0.961      2.865
REMARK  Name = 
REMARK  3 active torsions:
REMARK  status: ('A' for Active; 'I' for Inactive)
REMARK    1  A    between atoms: C_1  and  C_2
REMARK    2  A    between atoms: C_7  and  C_8
REMARK    3  A    between atoms: C_14  and  C_15
REMARK                            x       y       z     vdW  Elec       q    Type
REMARK                         _______ _______ _______ _____ _____    ______ ____
ROOT
ATOM      1  C   UNL     1       7.061   4.763  15.143  0.00  0.00    +0.000 C 
ATOM      2  C   UNL     1       6.006   4.873  16.211  0.00  0.00    +0.000 A 
ATOM      3  C   UNL     1       4.930   3.965  16.208  0.00  0.00    +0.000 A 
ATOM      4  C   UNL     1       3.918   4.013  17.174  0.00  0.00    +0.000 A 
ATOM      5  C   UNL     1       3.985   5.019  18.147  0.00  0.00    +0.000 A 
ATOM      6  C   UNL     1       5.048   5.937  18.167  0.00  0.00    +0.000 A 
ATOM      7  C   UNL     1       6.063   5.873  17.198  0.00  0.00    +0.000 A 
ATOM      8  C   UNL     1       7.177   6.884  17.220  0.00  0.00    +0.000 C 
ATOM      9  N   UNL     1       2.941   5.071  19.101  0.00  0.00    +0.000 N 
ATOM     10  C   UNL     1       2.771   5.947  20.153  0.00  0.00    +0.000 A 
ATOM     11  C   UNL     1       1.608   5.623  20.818  0.00  0.00    +0.000 A 
ATOM     12  C   UNL     1       1.039   4.516  20.155  0.00  0.00    +0.000 A 
ATOM     13  C   UNL     1       1.886   4.185  19.113  0.00  0.00    +0.000 A 
ATOM     14  C   UNL     1       1.815   3.094  18.098  0.00  0.00    +0.000 C 
ATOM     15  C   UNL     1       1.883   1.724  18.780  0.00  0.00    +0.000 C 
ATOM     16  N   UNL     1       2.821   3.166  17.046  0.00  0.00    +0.000 N 
ATOM     17  H   UNL     1       2.962   2.324  16.501  0.00  0.00    +0.000 HD
ENDROOT
TORSDOF 0
ENDMDL
MODEL 6
REMARK VINA RESULT:      -7.0      1.406      4.946
REMARK  Name = 
REMARK  3 active torsions:
REMARK  status: ('A' for Active; 'I' for Inactive)
REMARK    1  A    between atoms: C_1  and  C_2
REMARK    2  A    between atoms: C_7  and  C_8
REMARK    3  A    between atoms: C_14  and  C_15
REMARK                            x       y       z     vdW  Elec       q    Type
REMARK                         _______ _______ _______ _____ _____    ______ ____
ROOT
ATOM      1  C   UNL     1       1.410   3.730  21.057  0.00  0.00    +0.000 C 
ATOM      2  C   UNL     1       2.378   3.851  19.910  0.00  0.00    +0.000 A 
ATOM      3  C   UNL     1       3.483   4.714  20.034  0.00  0.00    +0.000 A 
ATOM      4  C   UNL     1       4.420   4.871  19.005  0.00  0.00    +0.000 A 
ATOM      5  C   UNL     1       4.217   4.156  17.817  0.00  0.00    +0.000 A 
ATOM      6  C   UNL     1       3.119   3.292  17.671  0.00  0.00    +0.000 A 
ATOM      7  C   UNL     1       2.191   3.136  18.714  0.00  0.00    +0.000 A 
ATOM      8  C   UNL     1       1.007   2.227  18.526  0.00  0.00    +0.000 C 
ATOM      9  N   UNL     1       5.157   4.344  16.777  0.00  0.00    +0.000 N 
ATOM     10  C   UNL     1       5.192   3.766  15.525  0.00  0.00    +0.000 A 
ATOM     11  C   UNL     1       6.291   4.245  14.844  0.00  0.00    +0.000 A 
ATOM     12  C   UNL     1       6.953   5.150  15.699  0.00  0.00    +0.000 A 
ATOM     13  C   UNL     1       6.246   5.181  16.888  0.00  0.00    +0.000 A 
ATOM     14  C   UNL     1       6.488   5.928  18.155  0.00  0.00    +0.000 C 
ATOM     15  C   UNL     1       7.815   5.494  18.787  0.00  0.00    +0.000 C 
ATOM     16  N   UNL     1       5.421   5.828  19.142  0.00  0.00    +0.000 N 
ATOM     17  H   UNL     1       5.657   6.102  20.089  0.00  0.00    +0.000 HD
ENDROOT
TORSDOF 0
ENDMDL
MODEL 7
REMARK VINA RESULT:      -6.9      2.133      4.912
REMARK  Name = 
REMARK  3 active torsions:
REMARK  status: ('A' for Active; 'I' for Inactive)
REMARK    1  A    between atoms: C_1  and  C_2
REMARK    2  A    between atoms: C_7  and  C_8
REMARK    3  A    between atoms: C_14  and  C_15
REMARK                            x       y       z     vdW  Elec       q    Type
REMARK                         _______ _______ _______ _____ _____    ______ ____
ROOT
ATOM      1  C   UNL     1       1.145   8.402  20.592  0.00  0.00    +0.000 C 
ATOM      2  C   UNL     1       2.028   7.707  19.589  0.00  0.00    +0.000 A 
ATOM      3  C   UNL     1       2.476   6.401  19.860  0.00  0.00    +0.000 A 
ATOM      4  C   UNL     1       3.298   5.700  18.969  0.00  0.00    +0.000 A 
ATOM      5  C   UNL     1       3.693   6.349  17.791  0.00  0.00    +0.000 A 
ATOM      6  C   UNL     1       3.261   7.653  17.503  0.00  0.00    +0.000 A 
ATOM      7  C   UNL     1       2.429   8.343  18.401  0.00  0.00    +0.000 A 
ATOM      8  C   UNL     1       2.000   9.750  18.087  0.00  0.00    +0.000 C 
ATOM      9  N   UNL     1       4.544   5.638  16.913  0.00  0.00    +0.000 N 
ATOM     10  C   UNL     1       5.070   6.039  15.702  0.00  0.00    +0.000 A 
ATOM     11  C   UNL     1       5.848   5.019  15.195  0.00  0.00    +0.000 A 
ATOM     12  C   UNL     1       5.806   3.958  16.123  0.00  0.00    +0.000 A 
ATOM     13  C   UNL     1       4.985   4.356  17.162  0.00  0.00    +0.000 A 
ATOM     14  C   UNL     1       4.551   3.645  18.399  0.00  0.00    +0.000 C 
ATOM     15  C   UNL     1       3.738   2.397  18.041  0.00  0.00    +0.000 C 
ATOM     16  N   UNL     1       3.804   4.460  19.348  0.00  0.00    +0.000 N 
ATOM     17  H   UNL     1       3.284   3.959  20.060  0.00  0.00    +0.000 HD
ENDROOT
TORSDOF 0
ENDMDL
MODEL 8
REMARK VINA RESULT:      -6.8      1.362      5.643
REMARK  Name = 
REMARK  3 active torsions:
REMARK  status: ('A' for Active; 'I' for Inactive)
REMARK    1  A    between atoms: C_1  and  C_2
REMARK    2  A    between atoms: C_7  and  C_8
REMARK    3  A    between atoms: C_14  and  C_15
REMARK                            x       y       z     vdW  Elec       q    Type
REMARK                         _______ _______ _______ _____ _____    ______ ____
ROOT
ATOM      1  C   UNL     1       0.838   2.661  19.168  0.00  0.00    +0.000 C 
ATOM      2  C   UNL     1       2.060   3.455  18.788  0.00  0.00    +0.000 A 
ATOM      3  C   UNL     1       2.885   2.987  17.749  0.00  0.00    +0.000 A 
ATOM      4  C   UNL     1       4.034   3.679  17.347  0.00  0.00    +0.000 A 
ATOM      5  C   UNL     1       4.365   4.857  18.031  0.00  0.00    +0.000 A 
ATOM      6  C   UNL     1       3.556   5.340  19.073  0.00  0.00    +0.000 A 
ATOM      7  C   UNL     1       2.401   4.641  19.461  0.00  0.00    +0.000 A 
ATOM      8  C   UNL     1       1.565   5.161  20.599  0.00  0.00    +0.000 C 
ATOM      9  N   UNL     1       5.542   5.532  17.631  0.00  0.00    +0.000 N 
ATOM     10  C   UNL     1       6.085   6.698  18.130  0.00  0.00    +0.000 A 
ATOM     11  C   UNL     1       7.242   6.982  17.437  0.00  0.00    +0.000 A 
ATOM     12  C   UNL     1       7.423   5.959  16.483  0.00  0.00    +0.000 A 
ATOM     13  C   UNL     1       6.356   5.088  16.611  0.00  0.00    +0.000 A 
ATOM     14  C   UNL     1       6.002   3.851  15.859  0.00  0.00    +0.000 C 
ATOM     15  C   UNL     1       5.747   4.176  14.384  0.00  0.00    +0.000 C 
ATOM     16  N   UNL     1       4.873   3.104  16.397  0.00  0.00    +0.000 N 
ATOM     17  H   UNL     1       4.452   2.417  15.781  0.00  0.00    +0.000 HD
ENDROOT
TORSDOF 0
ENDMDL
MODEL 9
REMARK VINA RESULT:      -6.7      2.258      4.625
REMARK  Name = 
REMARK  3 active torsions:
REMARK  status: ('A' for Active; 'I' for Inactive)
REMARK    1  A    between atoms: C_1  and  C_2
REMARK    2  A    between atoms: C_7  and  C_8
REMARK    3  A    between atoms: C_14  and  C_15
REMARK                            x       y       z     vdW  Elec       q    Type
REMARK                         _______ _______ _______ _____ _____    ______ ____
ROOT
ATOM      1  C   UNL     1       1.713  10.070  18.203  0.00  0.00    +0.000 C 
ATOM      2  C   UNL     1       1.920   8.691  18.770  0.00  0.00    +0.000 A 
ATOM      3  C   UNL     1       2.606   7.731  18.003  0.00  0.00    +0.000 A 
ATOM      4  C   UNL     1       2.833   6.431  18.474  0.00  0.00    +0.000 A 
ATOM      5  C   UNL     1       2.331   6.094  19.738  0.00  0.00    +0.000 A 
ATOM      6  C   UNL     1       1.641   7.036  20.518  0.00  0.00    +0.000 A 
ATOM      7  C   UNL     1       1.427   8.339  20.038  0.00  0.00    +0.000 A 
ATOM      8  C   UNL     1       0.661   9.324  20.879  0.00  0.00    +0.000 C 
ATOM      9  N   UNL     1       2.545   4.770  20.189  0.00  0.00    +0.000 N 
ATOM     10  C   UNL     1       2.163   4.188  21.380  0.00  0.00    +0.000 A 
ATOM     11  C   UNL     1       2.585   2.875  21.389  0.00  0.00    +0.000 A 
ATOM     12  C   UNL     1       3.243   2.637  20.165  0.00  0.00    +0.000 A 
ATOM     13  C   UNL     1       3.220   3.822  19.451  0.00  0.00    +0.000 A 
ATOM     14  C   UNL     1       3.782   4.175  18.116  0.00  0.00    +0.000 C 
ATOM     15  C   UNL     1       5.308   4.041  18.125  0.00  0.00    +0.000 C 
ATOM     16  N   UNL     1       3.410   5.495  17.622  0.00  0.00    +0.000 N 
ATOM     17  H   UNL     1       3.966   5.862  16.858  0.00  0.00    +0.000 HD
ENDROOT
TORSDOF 0
ENDMDL
