MODEL 1
REMARK VINA RESULT:      -7.0      0.000      0.000
REMARK  Name = 
REMARK  5 active torsions:
REMARK  status: ('A' for Active; 'I' for Inactive)
REMARK    1  A    between atoms: C_1  and  C_2
REMARK    2  A    between atoms: C_2  and  C_3
REMARK    3  A    between atoms: C_2  and  C_4
REMARK    4  A    between atoms: C_4  and  N_5
REMARK    5  A    between atoms: C_7  and  N_8
REMARK                            x       y       z     vdW  Elec       q    Type
REMARK                         _______ _______ _______ _____ _____    ______ ____
ROOT
ATOM      1  N   UNL     1       6.527   4.284  14.091  0.00  0.00    +0.000 N 
ATOM      2  C   UNL     1       5.557   3.776  14.903  0.00  0.00    +0.000 A 
ATOM      3  C   UNL     1       5.849   4.209  16.173  0.00  0.00    +0.000 A 
ATOM      4  C   UNL     1       6.989   5.025  16.004  0.00  0.00    +0.000 A 
ATOM      5  N   UNL     1       7.397   5.087  14.733  0.00  0.00    +0.000 NA
ENDROOT
BRANCH   3   6
ATOM      6  N   UNL     1       5.192   3.920  17.355  0.00  0.00    +0.000 N 
ATOM      7  C   UNL     1       4.252   4.725  17.956  0.00  0.00    +0.000 C 
ATOM      8  O   UNL     1       3.865   5.804  17.512  0.00  0.00    +0.000 OA
ATOM      9  N   UNL     1       3.726   4.223  19.130  0.00  0.00    +0.000 N 
ATOM     10  C   UNL     1       4.093   3.033  19.874  0.00  0.00    +0.000 C 
ATOM     11  C   UNL     1       2.855   2.734  20.699  0.00  0.00    +0.000 C 
ATOM     12  C   UNL     1       2.307   4.115  21.032  0.00  0.00    +0.000 C 
ATOM     13  C   UNL     1       2.709   4.981  19.843  0.00  0.00    +0.000 C 
ATOM     14  H   UNL     1       5.337   2.995  17.720  0.00  0.00    +0.000 HD
ENDBRANCH   3   6
BRANCH   1  15
ATOM     15  C   UNL     1       6.696   4.002  12.677  0.00  0.00    +0.000 C 
BRANCH  15  17
ATOM     16  C   UNL     1       4.560   3.318  11.467  0.00  0.00    +0.000 C 
ATOM     17  C   UNL     1       5.830   2.836  12.175  0.00  0.00    +0.000 C 
ATOM     18  C   UNL     1       6.644   1.954  11.227  0.00  0.00    +0.000 C 
ENDBRANCH  15  17
ENDBRANCH   1  15
TORSDOF 3
ENDMDL
MODEL 2
REMARK VINA RESULT:      -6.7      1.371      1.628
REMARK  Name = 
REMARK  5 active torsions:
REMARK  status: ('A' for Active; 'I' for Inactive)
REMARK    1  A    between atoms: C_1  and  C_2
REMARK    2  A    between atoms: C_2  and  C_3
REMARK    3  A    between atoms: C_2  and  C_4
REMARK    4  A    between atoms: C_4  and  N_5
REMARK    5  A    between atoms: C_7  and  N_8
REMARK                            x       y       z     vdW  Elec       q    Type
REMARK                         _______ _______ _______ _____ _____    ______ ____
ROOT
ATOM      1  N   UNL     1       6.461   4.668  15.014  0.00  0.00    +0.000 N 
ATOM      2  C   UNL     1       5.242   4.683  15.625  0.00  0.00    +0.000 A 
ATOM      3  C   UNL     1       5.481   4.523  16.968  0.00  0.00    +0.000 A 
ATOM      4  C   UNL     1       6.890   4.481  17.064  0.00  0.00    +0.000 A 
ATOM      5  N   UNL     1       7.492   4.585  15.876  0.00  0.00    +0.000 NA
ENDROOT
BRANCH   3   6
ATOM      6  N   UNL     1       4.567   4.421  18.001  0.00  0.00    +0.000 N 
ATOM      7  C   UNL     1       3.760   3.332  18.240  0.00  0.00    +0.000 C 
ATOM      8  O   UNL     1       3.757   2.301  17.572  0.00  0.00    +0.000 OA
ATOM      9  N   UNL     1       2.929   3.458  19.336  0.00  0.00    +0.000 N 
ATOM     10  C   UNL     1       2.705   4.601  20.201  0.00  0.00    +0.000 C 
ATOM     11  C   UNL     1       2.162   3.981  21.475  0.00  0.00    +0.000 C 
ATOM     12  C   UNL     1       1.339   2.801  20.974  0.00  0.00    +0.000 C 
ATOM     13  C   UNL     1       2.045   2.360  19.696  0.00  0.00    +0.000 C 
ATOM     14  H   UNL     1       4.596   5.157  18.684  0.00  0.00    +0.000 HD
ENDBRANCH   3   6
BRANCH   1  15
ATOM     15  C   UNL     1       6.703   4.695  13.583  0.00  0.00    +0.000 C 
BRANCH  15  17
ATOM     16  C   UNL     1       4.793   3.699  12.220  0.00  0.00    +0.000 C 
ATOM     17  C   UNL     1       6.169   3.455  12.847  0.00  0.00    +0.000 C 
ATOM     18  C   UNL     1       7.160   3.026  11.764  0.00  0.00    +0.000 C 
ENDBRANCH  15  17
ENDBRANCH   1  15
TORSDOF 3
ENDMDL
MODEL 3
REMARK VINA RESULT:      -6.5      1.581      1.713
REMARK  Name = 
REMARK  5 active torsions:
REMARK  status: ('A' for Active; 'I' for Inactive)
REMARK    1  A    between atoms: C_1  and  C_2
REMARK    2  A    between atoms: C_2  and  C_3
REMARK    3  A    between atoms: C_2  and  C_4
REMARK    4  A    between atoms: C_4  and  N_5
REMARK    5  A    between atoms: C_7  and  N_8
REMARK                            x       y       z     vdW  Elec       q    Type
REMARK                         _______ _______ _______ _____ _____    ______ ____
ROOT
ATOM      1  N   UNL     1       5.902   4.912  14.934  0.00  0.00    +0.000 N 
ATOM      2  C   UNL     1       5.371   4.089  15.883  0.00  0.00    +0.000 A 
ATOM      3  C   UNL     1       4.723   4.901  16.781  0.00  0.00    +0.000 A 
ATOM      4  C   UNL     1       4.876   6.199  16.244  0.00  0.00    +0.000 A 
ATOM      5  N   UNL     1       5.581   6.209  15.109  0.00  0.00    +0.000 NA
ENDROOT
BRANCH   3   6
ATOM      6  N   UNL     1       4.069   4.547  17.947  0.00  0.00    +0.000 N 
ATOM      7  C   UNL     1       2.854   3.905  18.011  0.00  0.00    +0.000 C 
ATOM      8  O   UNL     1       2.196   3.551  17.036  0.00  0.00    +0.000 OA
ATOM      9  N   UNL     1       2.401   3.648  19.291  0.00  0.00    +0.000 N 
ATOM     10  C   UNL     1       2.962   4.049  20.567  0.00  0.00    +0.000 C 
ATOM     11  C   UNL     1       2.377   3.044  21.543  0.00  0.00    +0.000 C 
ATOM     12  C   UNL     1       0.984   2.777  20.986  0.00  0.00    +0.000 C 
ATOM     13  C   UNL     1       1.136   2.957  19.479  0.00  0.00    +0.000 C 
ATOM     14  H   UNL     1       4.594   4.668  18.796  0.00  0.00    +0.000 HD
ENDBRANCH   3   6
BRANCH   1  15
ATOM     15  C   UNL     1       6.769   4.513  13.841  0.00  0.00    +0.000 C 
BRANCH  15  17
ATOM     16  C   UNL     1       4.797   3.795  12.395  0.00  0.00    +0.000 C 
ATOM     17  C   UNL     1       6.171   3.410  12.953  0.00  0.00    +0.000 C 
ATOM     18  C   UNL     1       7.126   3.095  11.801  0.00  0.00    +0.000 C 
ENDBRANCH  15  17
ENDBRANCH   1  15
TORSDOF 3
ENDMDL
MODEL 4
REMARK VINA RESULT:      -6.4      1.602      2.179
REMARK  Name = 
REMARK  5 active torsions:
REMARK  status: ('A' for Active; 'I' for Inactive)
REMARK    1  A    between atoms: C_1  and  C_2
REMARK    2  A    between atoms: C_2  and  C_3
REMARK    3  A    between atoms: C_2  and  C_4
REMARK    4  A    between atoms: C_4  and  N_5
REMARK    5  A    between atoms: C_7  and  N_8
REMARK                            x       y       z     vdW  Elec       q    Type
REMARK                         _______ _______ _______ _____ _____    ______ ____
ROOT
ATOM      1  N   UNL     1       6.419   4.959  15.440  0.00  0.00    +0.000 N 
ATOM      2  C   UNL     1       5.450   4.135  15.931  0.00  0.00    +0.000 A 
ATOM      3  C   UNL     1       4.872   4.802  16.984  0.00  0.00    +0.000 A 
ATOM      4  C   UNL     1       5.533   6.050  17.005  0.00  0.00    +0.000 A 
ATOM      5  N   UNL     1       6.467   6.156  16.055  0.00  0.00    +0.000 NA
ENDROOT
BRANCH   3   6
ATOM      6  N   UNL     1       3.876   4.366  17.838  0.00  0.00    +0.000 N 
ATOM      7  C   UNL     1       4.086   3.728  19.039  0.00  0.00    +0.000 C 
ATOM      8  O   UNL     1       5.190   3.473  19.515  0.00  0.00    +0.000 OA
ATOM      9  N   UNL     1       2.934   3.391  19.725  0.00  0.00    +0.000 N 
ATOM     10  C   UNL     1       1.547   3.513  19.318  0.00  0.00    +0.000 C 
ATOM     11  C   UNL     1       0.791   3.518  20.633  0.00  0.00    +0.000 C 
ATOM     12  C   UNL     1       1.602   2.576  21.514  0.00  0.00    +0.000 C 
ATOM     13  C   UNL     1       3.035   2.729  21.016  0.00  0.00    +0.000 C 
ATOM     14  H   UNL     1       2.942   4.654  17.604  0.00  0.00    +0.000 HD
ENDBRANCH   3   6
BRANCH   1  15
ATOM     15  C   UNL     1       7.370   4.635  14.393  0.00  0.00    +0.000 C 
BRANCH  15  17
ATOM     16  C   UNL     1       7.816   5.459  12.023  0.00  0.00    +0.000 C 
ATOM     17  C   UNL     1       6.805   4.813  12.974  0.00  0.00    +0.000 C 
ATOM     18  C   UNL     1       6.365   3.458  12.416  0.00  0.00    +0.000 C 
ENDBRANCH  15  17
ENDBRANCH   1  15
TORSDOF 3
ENDMDL
MODEL 5
REMARK VINA RESULT:      -6.2      1.121      1.143
REMARK  Name = 
REMARK  5 active torsions:
REMARK  status: ('A' for Active; 'I' for Inactive)
REMARK    1  A    between atoms: C_1  and  C_2
REMARK    2  A    between atoms: C_2  and  C_3
REMARK    3  A    between atoms: C_2  and  C_4
REMARK    4  A    between atoms: C_4  and  N_5
REMARK    5  A    between atoms: C_7  and  N_8
REMARK                            x       y       z     vdW  Elec       q    Type
REMARK                         _______ _______ _______ _____ _____    ______ ____
ROOT
ATOM      1  N   UNL     1       6.297   4.268  14.263  0.00  0.00    +0.000 N 
ATOM      2  C   UNL     1       5.272   3.790  15.024  0.00  0.00    +0.000 A 
ATOM      3  C   UNL     1       5.467   4.284  16.290  0.00  0.00    +0.000 A 
ATOM      4  C   UNL     1       6.612   5.102  16.168  0.00  0.00    +0.000 A 
ATOM      5  N   UNL     1       7.112   5.108  14.929  0.00  0.00    +0.000 NA
ENDROOT
BRANCH   3   6
ATOM      6  N   UNL     1       4.726   4.044  17.433  0.00  0.00    +0.000 N 
ATOM      7  C   UNL     1       3.395   3.695  17.455  0.00  0.00    +0.000 C 
ATOM      8  O   UNL     1       2.694   3.539  16.458  0.00  0.00    +0.000 OA
ATOM      9  N   UNL     1       2.869   3.500  18.717  0.00  0.00    +0.000 N 
ATOM     10  C   UNL     1       3.479   3.712  20.016  0.00  0.00    +0.000 C 
ATOM     11  C   UNL     1       2.659   2.831  20.941  0.00  0.00    +0.000 C 
ATOM     12  C   UNL     1       1.255   2.911  20.357  0.00  0.00    +0.000 C 
ATOM     13  C   UNL     1       1.475   3.109  18.861  0.00  0.00    +0.000 C 
ATOM     14  H   UNL     1       5.246   4.009  18.292  0.00  0.00    +0.000 HD
ENDBRANCH   3   6
BRANCH   1  15
ATOM     15  C   UNL     1       6.572   3.923  12.880  0.00  0.00    +0.000 C 
BRANCH  15  17
ATOM     16  C   UNL     1       4.448   3.503  11.536  0.00  0.00    +0.000 C 
ATOM     17  C   UNL     1       5.610   2.870  12.307  0.00  0.00    +0.000 C 
ATOM     18  C   UNL     1       6.374   1.911  11.392  0.00  0.00    +0.000 C 
ENDBRANCH  15  17
ENDBRANCH   1  15
TORSDOF 3
ENDMDL
MODEL 6
REMARK VINA RESULT:      -6.2      1.526      7.025
REMARK  Name = 
REMARK  5 active torsions:
REMARK  status: ('A' for Active; 'I' for Inactive)
REMARK    1  A    between atoms: C_1  and  C_2
REMARK    2  A    between atoms: C_2  and  C_3
REMARK    3  A    between atoms: C_2  and  C_4
REMARK    4  A    between atoms: C_4  and  N_5
REMARK    5  A    between atoms: C_7  and  N_8
REMARK                            x       y       z     vdW  Elec       q    Type
REMARK                         _______ _______ _______ _____ _____    ______ ____
ROOT
ATOM      1  N   UNL     1       4.076   4.386  19.164  0.00  0.00    +0.000 N 
ATOM      2  C   UNL     1       3.878   4.129  17.840  0.00  0.00    +0.000 A 
ATOM      3  C   UNL     1       5.106   4.244  17.236  0.00  0.00    +0.000 A 
ATOM      4  C   UNL     1       5.990   4.518  18.303  0.00  0.00    +0.000 A 
ATOM      5  N   UNL     1       5.369   4.590  19.483  0.00  0.00    +0.000 NA
ENDROOT
BRANCH   3   6
ATOM      6  N   UNL     1       5.420   4.126  15.894  0.00  0.00    +0.000 N 
ATOM      7  C   UNL     1       6.453   4.781  15.262  0.00  0.00    +0.000 C 
ATOM      8  O   UNL     1       7.237   5.549  15.813  0.00  0.00    +0.000 OA
ATOM      9  N   UNL     1       6.577   4.500  13.915  0.00  0.00    +0.000 N 
ATOM     10  C   UNL     1       5.722   3.706  13.053  0.00  0.00    +0.000 C 
ATOM     11  C   UNL     1       6.636   3.324  11.903  0.00  0.00    +0.000 C 
ATOM     12  C   UNL     1       7.536   4.542  11.743  0.00  0.00    +0.000 C 
ATOM     13  C   UNL     1       7.646   5.122  13.149  0.00  0.00    +0.000 C 
ATOM     14  H   UNL     1       4.923   3.413  15.390  0.00  0.00    +0.000 HD
ENDBRANCH   3   6
BRANCH   1  15
ATOM     15  C   UNL     1       3.046   4.489  20.182  0.00  0.00    +0.000 C 
BRANCH  15  17
ATOM     16  C   UNL     1       2.084   2.762  21.790  0.00  0.00    +0.000 C 
ATOM     17  C   UNL     1       2.201   3.213  20.331  0.00  0.00    +0.000 C 
ATOM     18  C   UNL     1       0.806   3.443  19.749  0.00  0.00    +0.000 C 
ENDBRANCH  15  17
ENDBRANCH   1  15
TORSDOF 3
ENDMDL
MODEL 7
REMARK VINA RESULT:      -6.2      1.408      7.014
REMARK  Name = 
REMARK  5 active torsions:
REMARK  status: ('A' for Active; 'I' for Inactive)
REMARK    1  A    between atoms: C_1  and  C_2
REMARK    2  A    between atoms: C_2  and  C_3
REMARK    3  A    between atoms: C_2  and  C_4
REMARK    4  A    between atoms: C_4  and  N_5
REMARK    5  A    between atoms: C_7  and  N_8
REMARK                            x       y       z     vdW  Elec       q    Type
REMARK                         _______ _______ _______ _____ _____    ______ ____
ROOT
ATOM      1  N   UNL     1       3.167   4.441  19.121  0.00  0.00    +0.000 N 
ATOM      2  C   UNL     1       3.168   4.626  17.770  0.00  0.00    +0.000 A 
ATOM      3  C   UNL     1       4.312   4.031  17.298  0.00  0.00    +0.000 A 
ATOM      4  C   UNL     1       4.903   3.463  18.448  0.00  0.00    +0.000 A 
ATOM      5  N   UNL     1       4.200   3.697  19.560  0.00  0.00    +0.000 NA
ENDROOT
BRANCH   3   6
ATOM      6  N   UNL     1       4.792   3.992  16.002  0.00  0.00    +0.000 N 
ATOM      7  C   UNL     1       5.927   4.630  15.557  0.00  0.00    +0.000 C 
ATOM      8  O   UNL     1       6.670   5.310  16.260  0.00  0.00    +0.000 OA
ATOM      9  N   UNL     1       6.211   4.439  14.219  0.00  0.00    +0.000 N 
ATOM     10  C   UNL     1       5.438   3.760  13.197  0.00  0.00    +0.000 C 
ATOM     11  C   UNL     1       6.473   3.408  12.144  0.00  0.00    +0.000 C 
ATOM     12  C   UNL     1       7.443   4.581  12.193  0.00  0.00    +0.000 C 
ATOM     13  C   UNL     1       7.398   5.051  13.643  0.00  0.00    +0.000 C 
ATOM     14  H   UNL     1       4.330   3.346  15.385  0.00  0.00    +0.000 HD
ENDBRANCH   3   6
BRANCH   1  15
ATOM     15  C   UNL     1       2.209   4.992  20.061  0.00  0.00    +0.000 C 
BRANCH  15  17
ATOM     16  C   UNL     1       0.721   2.994  19.523  0.00  0.00    +0.000 C 
ATOM     17  C   UNL     1       1.218   3.952  20.610  0.00  0.00    +0.000 C 
ATOM     18  C   UNL     1       1.874   3.155  21.739  0.00  0.00    +0.000 C 
ENDBRANCH  15  17
ENDBRANCH   1  15
TORSDOF 3
ENDMDL
MODEL 8
REMARK VINA RESULT:      -6.0      1.432      7.017
REMARK  Name = 
REMARK  5 active torsions:
REMARK  status: ('A' for Active; 'I' for Inactive)
REMARK    1  A    between atoms: C_1  and  C_2
REMARK    2  A    between atoms: C_2  and  C_3
REMARK    3  A    between atoms: C_2  and  C_4
REMARK    4  A    between atoms: C_4  and  N_5
REMARK    5  A    between atoms: C_7  and  N_8
REMARK                            x       y       z     vdW  Elec       q    Type
REMARK                         _______ _______ _______ _____ _____    ______ ____
ROOT
ATOM      1  N   UNL     1       3.771   4.114  19.320  0.00  0.00    +0.000 N 
ATOM      2  C   UNL     1       4.226   3.460  18.214  0.00  0.00    +0.000 A 
ATOM      3  C   UNL     1       4.456   4.423  17.262  0.00  0.00    +0.000 A 
ATOM      4  C   UNL     1       4.161   5.637  17.922  0.00  0.00    +0.000 A 
ATOM      5  N   UNL     1       3.758   5.454  19.183  0.00  0.00    +0.000 NA
ENDROOT
BRANCH   3   6
ATOM      6  N   UNL     1       4.877   4.260  15.955  0.00  0.00    +0.000 N 
ATOM      7  C   UNL     1       6.030   4.789  15.422  0.00  0.00    +0.000 C 
ATOM      8  O   UNL     1       6.843   5.467  16.044  0.00  0.00    +0.000 OA
ATOM      9  N   UNL     1       6.244   4.485  14.091  0.00  0.00    +0.000 N 
ATOM     10  C   UNL     1       5.386   3.786  13.152  0.00  0.00    +0.000 C 
ATOM     11  C   UNL     1       6.351   3.294  12.089  0.00  0.00    +0.000 C 
ATOM     12  C   UNL     1       7.394   4.401  12.015  0.00  0.00    +0.000 C 
ATOM     13  C   UNL     1       7.441   4.975  13.427  0.00  0.00    +0.000 C 
ATOM     14  H   UNL     1       4.350   3.603  15.406  0.00  0.00    +0.000 HD
ENDBRANCH   3   6
BRANCH   1  15
ATOM     15  C   UNL     1       3.291   3.499  20.544  0.00  0.00    +0.000 C 
BRANCH  15  17
ATOM     16  C   UNL     1       1.016   3.237  19.427  0.00  0.00    +0.000 C 
ATOM     17  C   UNL     1       1.766   3.582  20.717  0.00  0.00    +0.000 C 
ATOM     18  C   UNL     1       1.318   2.646  21.840  0.00  0.00    +0.000 C 
ENDBRANCH  15  17
ENDBRANCH   1  15
TORSDOF 3
ENDMDL
MODEL 9
REMARK VINA RESULT:      -5.7      3.740      5.326
REMARK  Name = 
REMARK  5 active torsions:
REMARK  status: ('A' for Active; 'I' for Inactive)
REMARK    1  A    between atoms: C_1  and  C_2
REMARK    2  A    between atoms: C_2  and  C_3
REMARK    3  A    between atoms: C_2  and  C_4
REMARK    4  A    between atoms: C_4  and  N_5
REMARK    5  A    between atoms: C_7  and  N_8
REMARK                            x       y       z     vdW  Elec       q    Type
REMARK                         _______ _______ _______ _____ _____    ______ ____
ROOT
ATOM      1  N   UNL     1       4.192   5.838  17.117  0.00  0.00    +0.000 N 
ATOM      2  C   UNL     1       3.968   6.931  17.901  0.00  0.00    +0.000 A 
ATOM      3  C   UNL     1       2.929   6.602  18.737  0.00  0.00    +0.000 A 
ATOM      4  C   UNL     1       2.639   5.258  18.412  0.00  0.00    +0.000 A 
ATOM      5  N   UNL     1       3.417   4.783  17.435  0.00  0.00    +0.000 NA
ENDROOT
BRANCH   3   6
ATOM      6  N   UNL     1       2.299   7.392  19.682  0.00  0.00    +0.000 N 
ATOM      7  C   UNL     1       1.580   8.533  19.408  0.00  0.00    +0.000 C 
ATOM      8  O   UNL     1       1.394   8.992  18.284  0.00  0.00    +0.000 OA
ATOM      9  N   UNL     1       1.035   9.152  20.516  0.00  0.00    +0.000 N 
ATOM     10  C   UNL     1       1.197   8.841  21.923  0.00  0.00    +0.000 C 
ATOM     11  C   UNL     1      -0.024   9.469  22.569  0.00  0.00    +0.000 C 
ATOM     12  C   UNL     1      -0.259  10.724  21.738  0.00  0.00    +0.000 C 
ATOM     13  C   UNL     1       0.238  10.357  20.344  0.00  0.00    +0.000 C 
ATOM     14  H   UNL     1       2.276   7.021  20.615  0.00  0.00    +0.000 HD
ENDBRANCH   3   6
BRANCH   1  15
ATOM     15  C   UNL     1       5.123   5.755  16.007  0.00  0.00    +0.000 C 
BRANCH  15  17
ATOM     16  C   UNL     1       6.335   4.054  14.548  0.00  0.00    +0.000 C 
ATOM     17  C   UNL     1       5.919   4.440  15.970  0.00  0.00    +0.000 C 
ATOM     18  C   UNL     1       7.159   4.558  16.857  0.00  0.00    +0.000 C 
ENDBRANCH  15  17
ENDBRANCH   1  15
TORSDOF 3
ENDMDL
