MODEL 1
REMARK VINA RESULT:      -7.7      0.000      0.000
REMARK  Name = 
REMARK  9 active torsions:
REMARK  status: ('A' for Active; 'I' for Inactive)
REMARK    1  A    between atoms: C_1  and  C_2
REMARK    2  A    between atoms: C_2  and  N_3
REMARK    3  A    between atoms: C_2  and  C_11
REMARK    4  A    between atoms: C_4  and  C_6
REMARK    5  A    between atoms: C_14  and  C_15
REMARK    6  A    between atoms: C_15  and  N_16
REMARK    7  A    between atoms: C_21  and  O_22
REMARK    8  A    between atoms: O_22  and  C_23
REMARK    9  A    between atoms: C_23  and  C_24
REMARK                            x       y       z     vdW  Elec       q    Type
REMARK                         _______ _______ _______ _____ _____    ______ ____
ROOT
ATOM      1  C   UNL     1       9.042   9.795  18.885  0.00  0.00    +0.000 C 
ENDROOT
BRANCH   1   2
ATOM      2  N   UNL     1       9.385  10.824  17.878  0.00  0.00    +0.000 NA
ATOM      3  C   UNL     1      10.762  11.251  18.236  0.00  0.00    +0.000 C 
ATOM      4  C   UNL     1      11.194  12.495  17.504  0.00  0.00    +0.000 C 
ATOM      5  C   UNL     1      10.308  13.565  18.045  0.00  0.00    +0.000 A 
ATOM      6  C   UNL     1      10.777  14.622  18.819  0.00  0.00    +0.000 A 
ATOM      7  C   UNL     1       9.898  15.613  19.232  0.00  0.00    +0.000 A 
ATOM      8  C   UNL     1       8.608  15.634  18.703  0.00  0.00    +0.000 A 
ATOM      9  C   UNL     1       8.113  14.497  18.046  0.00  0.00    +0.000 A 
ATOM     10  C   UNL     1       8.937  13.377  17.889  0.00  0.00    +0.000 A 
ATOM     11  C   UNL     1       8.397  11.947  17.761  0.00  0.00    +0.000 C 
BRANCH   7  12
ATOM     12  O   UNL     1      10.407  16.512  20.125  0.00  0.00    +0.000 OA
BRANCH  12  13
ATOM     13  C   UNL     1       9.671  16.645  21.347  0.00  0.00    +0.000 C 
BRANCH  13  14
ATOM     14  C   UNL     1      10.030  15.492  22.236  0.00  0.00    +0.000 C 
ATOM     15  C   UNL     1       9.265  15.253  23.526  0.00  0.00    +0.000 C 
ATOM     16  C   UNL     1       9.099  14.344  22.370  0.00  0.00    +0.000 C 
ATOM     17  F   UNL     1       9.577  13.056  22.435  0.00  0.00    +0.000 F 
ATOM     18  F   UNL     1       7.910  14.308  21.680  0.00  0.00    +0.000 F 
ENDBRANCH  13  14
ENDBRANCH  12  13
ENDBRANCH   7  12
ENDBRANCH   1   2
BRANCH   1  22
ATOM     19  C   UNL     1       7.206   6.056  17.673  0.00  0.00    +0.000 A 
ATOM     20  C   UNL     1       6.995   7.225  16.917  0.00  0.00    +0.000 A 
ATOM     21  C   UNL     1       7.534   8.460  17.314  0.00  0.00    +0.000 A 
ATOM     22  C   UNL     1       8.290   8.552  18.482  0.00  0.00    +0.000 A 
ATOM     23  C   UNL     1       8.514   7.382  19.228  0.00  0.00    +0.000 A 
ATOM     24  C   UNL     1       7.986   6.152  18.832  0.00  0.00    +0.000 A 
BRANCH  19  26
ATOM     25  C   UNL     1       6.796   4.515  15.669  0.00  0.00    +0.000 C 
ATOM     26  C   UNL     1       6.642   4.739  17.174  0.00  0.00    +0.000 C 
BRANCH  26  27
ATOM     27  N   UNL     1       5.246   4.631  17.533  0.00  0.00    +0.000 N 
ATOM     28  C   UNL     1       4.811   4.034  18.698  0.00  0.00    +0.000 C 
ATOM     29  O   UNL     1       5.608   3.602  19.528  0.00  0.00    +0.000 OA
ATOM     30  H   UNL     1       4.545   4.956  16.857  0.00  0.00    +0.000 HD
BRANCH  28  31
ATOM     31  C   UNL     1       3.377   3.904  18.883  0.00  0.00    +0.000 A 
ATOM     32  C   UNL     1       2.559   4.529  19.810  0.00  0.00    +0.000 A 
ATOM     33  C   UNL     1       1.213   4.097  19.669  0.00  0.00    +0.000 A 
ATOM     34  N   UNL     1       0.969   3.205  18.715  0.00  0.00    +0.000 NA
ATOM     35  S   UNL     1       2.397   2.859  17.948  0.00  0.00    +0.000 S 
ENDBRANCH  28  31
ENDBRANCH  26  27
ENDBRANCH  19  26
ENDBRANCH   1  22
TORSDOF 8
ENDMDL
MODEL 2
REMARK VINA RESULT:      -7.7      8.202     10.642
REMARK  Name = 
REMARK  9 active torsions:
REMARK  status: ('A' for Active; 'I' for Inactive)
REMARK    1  A    between atoms: C_1  and  C_2
REMARK    2  A    between atoms: C_2  and  N_3
REMARK    3  A    between atoms: C_2  and  C_11
REMARK    4  A    between atoms: C_4  and  C_6
REMARK    5  A    between atoms: C_14  and  C_15
REMARK    6  A    between atoms: C_15  and  N_16
REMARK    7  A    between atoms: C_21  and  O_22
REMARK    8  A    between atoms: O_22  and  C_23
REMARK    9  A    between atoms: C_23  and  C_24
REMARK                            x       y       z     vdW  Elec       q    Type
REMARK                         _______ _______ _______ _____ _____    ______ ____
ROOT
ATOM      1  C   UNL     1       0.368  10.204  19.977  0.00  0.00    +0.000 C 
ENDROOT
BRANCH   1   2
ATOM      2  N   UNL     1       0.340  10.884  21.291  0.00  0.00    +0.000 NA
ATOM      3  C   UNL     1      -0.748  10.203  22.040  0.00  0.00    +0.000 C 
ATOM      4  C   UNL     1      -1.130  10.932  23.302  0.00  0.00    +0.000 C 
ATOM      5  C   UNL     1      -1.735  12.207  22.821  0.00  0.00    +0.000 A 
ATOM      6  C   UNL     1      -3.081  12.520  22.986  0.00  0.00    +0.000 A 
ATOM      7  C   UNL     1      -3.555  13.755  22.566  0.00  0.00    +0.000 A 
ATOM      8  C   UNL     1      -2.639  14.728  22.167  0.00  0.00    +0.000 A 
ATOM      9  C   UNL     1      -1.319  14.356  21.874  0.00  0.00    +0.000 A 
ATOM     10  C   UNL     1      -0.927  13.022  22.031  0.00  0.00    +0.000 A 
ATOM     11  C   UNL     1       0.209  12.378  21.227  0.00  0.00    +0.000 C 
BRANCH   7  12
ATOM     12  O   UNL     1      -4.910  13.908  22.610  0.00  0.00    +0.000 OA
BRANCH  12  13
ATOM     13  C   UNL     1      -5.669  12.786  22.142  0.00  0.00    +0.000 C 
BRANCH  13  14
ATOM     14  C   UNL     1      -6.137  13.086  20.750  0.00  0.00    +0.000 C 
ATOM     15  C   UNL     1      -5.372  12.550  19.552  0.00  0.00    +0.000 C 
ATOM     16  C   UNL     1      -6.699  11.999  19.909  0.00  0.00    +0.000 C 
ATOM     17  F   UNL     1      -7.780  12.231  19.092  0.00  0.00    +0.000 F 
ATOM     18  F   UNL     1      -6.812  10.716  20.388  0.00  0.00    +0.000 F 
ENDBRANCH  13  14
ENDBRANCH  12  13
ENDBRANCH   7  12
ENDBRANCH   1   2
BRANCH   1  22
ATOM     19  C   UNL     1       2.515   6.526  19.148  0.00  0.00    +0.000 A 
ATOM     20  C   UNL     1       1.966   6.752  20.424  0.00  0.00    +0.000 A 
ATOM     21  C   UNL     1       1.311   7.954  20.737  0.00  0.00    +0.000 A 
ATOM     22  C   UNL     1       1.199   8.961  19.779  0.00  0.00    +0.000 A 
ATOM     23  C   UNL     1       1.733   8.730  18.500  0.00  0.00    +0.000 A 
ATOM     24  C   UNL     1       2.378   7.532  18.184  0.00  0.00    +0.000 A 
BRANCH  19  26
ATOM     25  C   UNL     1       3.780   4.498  20.067  0.00  0.00    +0.000 C 
ATOM     26  C   UNL     1       3.169   5.191  18.848  0.00  0.00    +0.000 C 
BRANCH  26  27
ATOM     27  N   UNL     1       4.185   5.355  17.832  0.00  0.00    +0.000 N 
ATOM     28  C   UNL     1       4.371   4.459  16.800  0.00  0.00    +0.000 C 
ATOM     29  O   UNL     1       3.635   3.484  16.662  0.00  0.00    +0.000 OA
ATOM     30  H   UNL     1       4.838   6.141  17.923  0.00  0.00    +0.000 HD
BRANCH  28  31
ATOM     31  C   UNL     1       5.494   4.694  15.910  0.00  0.00    +0.000 A 
ATOM     32  C   UNL     1       5.690   4.236  14.618  0.00  0.00    +0.000 A 
ATOM     33  C   UNL     1       6.943   4.673  14.111  0.00  0.00    +0.000 A 
ATOM     34  N   UNL     1       7.689   5.416  14.922  0.00  0.00    +0.000 NA
ATOM     35  S   UNL     1       6.871   5.607  16.351  0.00  0.00    +0.000 S 
ENDBRANCH  28  31
ENDBRANCH  26  27
ENDBRANCH  19  26
ENDBRANCH   1  22
TORSDOF 8
ENDMDL
MODEL 3
REMARK VINA RESULT:      -7.6      4.609      8.149
REMARK  Name = 
REMARK  9 active torsions:
REMARK  status: ('A' for Active; 'I' for Inactive)
REMARK    1  A    between atoms: C_1  and  C_2
REMARK    2  A    between atoms: C_2  and  N_3
REMARK    3  A    between atoms: C_2  and  C_11
REMARK    4  A    between atoms: C_4  and  C_6
REMARK    5  A    between atoms: C_14  and  C_15
REMARK    6  A    between atoms: C_15  and  N_16
REMARK    7  A    between atoms: C_21  and  O_22
REMARK    8  A    between atoms: O_22  and  C_23
REMARK    9  A    between atoms: C_23  and  C_24
REMARK                            x       y       z     vdW  Elec       q    Type
REMARK                         _______ _______ _______ _____ _____    ______ ____
ROOT
ATOM      1  C   UNL     1       2.794   3.741  18.470  0.00  0.00    +0.000 C 
ENDROOT
BRANCH   1   2
ATOM      2  N   UNL     1       4.246   3.476  18.374  0.00  0.00    +0.000 NA
ATOM      3  C   UNL     1       4.841   4.250  19.494  0.00  0.00    +0.000 C 
ATOM      4  C   UNL     1       6.342   4.342  19.404  0.00  0.00    +0.000 C 
ATOM      5  C   UNL     1       6.588   5.172  18.190  0.00  0.00    +0.000 A 
ATOM      6  C   UNL     1       7.146   6.446  18.241  0.00  0.00    +0.000 A 
ATOM      7  C   UNL     1       7.401   7.130  17.061  0.00  0.00    +0.000 A 
ATOM      8  C   UNL     1       7.275   6.454  15.848  0.00  0.00    +0.000 A 
ATOM      9  C   UNL     1       6.583   5.234  15.806  0.00  0.00    +0.000 A 
ATOM     10  C   UNL     1       6.072   4.690  16.990  0.00  0.00    +0.000 A 
ATOM     11  C   UNL     1       4.853   3.760  17.031  0.00  0.00    +0.000 C 
BRANCH   7  12
ATOM     12  O   UNL     1       7.787   8.431  17.210  0.00  0.00    +0.000 OA
BRANCH  12  13
ATOM     13  C   UNL     1       8.611   8.698  18.351  0.00  0.00    +0.000 C 
BRANCH  13  14
ATOM     14  C   UNL     1       8.484  10.153  18.689  0.00  0.00    +0.000 C 
ATOM     15  C   UNL     1       9.484  10.814  19.623  0.00  0.00    +0.000 C 
ATOM     16  C   UNL     1       9.485  11.122  18.175  0.00  0.00    +0.000 C 
ATOM     17  F   UNL     1       9.097  12.367  17.738  0.00  0.00    +0.000 F 
ATOM     18  F   UNL     1      10.527  10.711  17.378  0.00  0.00    +0.000 F 
ENDBRANCH  13  14
ENDBRANCH  12  13
ENDBRANCH   7  12
ENDBRANCH   1   2
BRANCH   1  22
ATOM     19  C   UNL     1       1.699   7.635  20.038  0.00  0.00    +0.000 A 
ATOM     20  C   UNL     1       1.448   6.474  20.792  0.00  0.00    +0.000 A 
ATOM     21  C   UNL     1       1.744   5.197  20.288  0.00  0.00    +0.000 A 
ATOM     22  C   UNL     1       2.291   5.055  19.014  0.00  0.00    +0.000 A 
ATOM     23  C   UNL     1       2.557   6.215  18.267  0.00  0.00    +0.000 A 
ATOM     24  C   UNL     1       2.271   7.487  18.768  0.00  0.00    +0.000 A 
BRANCH  19  26
ATOM     25  C   UNL     1       1.416   9.015  22.177  0.00  0.00    +0.000 C 
ATOM     26  C   UNL     1       1.406   8.993  20.647  0.00  0.00    +0.000 C 
BRANCH  26  27
ATOM     27  N   UNL     1       0.132   9.485  20.171  0.00  0.00    +0.000 N 
ATOM     28  C   UNL     1       0.014  10.473  19.216  0.00  0.00    +0.000 C 
ATOM     29  O   UNL     1       1.006  10.958  18.675  0.00  0.00    +0.000 OA
ATOM     30  H   UNL     1      -0.722   9.126  20.614  0.00  0.00    +0.000 HD
BRANCH  28  31
ATOM     31  C   UNL     1      -1.324  10.942  18.906  0.00  0.00    +0.000 A 
ATOM     32  C   UNL     1      -2.079  11.907  19.552  0.00  0.00    +0.000 A 
ATOM     33  C   UNL     1      -3.356  12.042  18.943  0.00  0.00    +0.000 A 
ATOM     34  N   UNL     1      -3.606  11.256  17.901  0.00  0.00    +0.000 NA
ATOM     35  S   UNL     1      -2.271  10.313  17.628  0.00  0.00    +0.000 S 
ENDBRANCH  28  31
ENDBRANCH  26  27
ENDBRANCH  19  26
ENDBRANCH   1  22
TORSDOF 8
ENDMDL
MODEL 4
REMARK VINA RESULT:      -7.4      8.090     10.870
REMARK  Name = 
REMARK  9 active torsions:
REMARK  status: ('A' for Active; 'I' for Inactive)
REMARK    1  A    between atoms: C_1  and  C_2
REMARK    2  A    between atoms: C_2  and  N_3
REMARK    3  A    between atoms: C_2  and  C_11
REMARK    4  A    between atoms: C_4  and  C_6
REMARK    5  A    between atoms: C_14  and  C_15
REMARK    6  A    between atoms: C_15  and  N_16
REMARK    7  A    between atoms: C_21  and  O_22
REMARK    8  A    between atoms: O_22  and  C_23
REMARK    9  A    between atoms: C_23  and  C_24
REMARK                            x       y       z     vdW  Elec       q    Type
REMARK                         _______ _______ _______ _____ _____    ______ ____
ROOT
ATOM      1  C   UNL     1       0.617   9.367  20.973  0.00  0.00    +0.000 C 
ENDROOT
BRANCH   1   2
ATOM      2  N   UNL     1       0.374  10.466  20.013  0.00  0.00    +0.000 NA
ATOM      3  C   UNL     1      -0.597  11.355  20.702  0.00  0.00    +0.000 C 
ATOM      4  C   UNL     1      -1.192  12.389  19.783  0.00  0.00    +0.000 C 
ATOM      5  C   UNL     1      -2.012  11.598  18.822  0.00  0.00    +0.000 A 
ATOM      6  C   UNL     1      -3.401  11.670  18.769  0.00  0.00    +0.000 A 
ATOM      7  C   UNL     1      -4.088  10.949  17.803  0.00  0.00    +0.000 A 
ATOM      8  C   UNL     1      -3.367  10.324  16.786  0.00  0.00    +0.000 A 
ATOM      9  C   UNL     1      -1.983  10.142  16.933  0.00  0.00    +0.000 A 
ATOM     10  C   UNL     1      -1.340  10.634  18.075  0.00  0.00    +0.000 A 
ATOM     11  C   UNL     1      -0.052  10.026  18.643  0.00  0.00    +0.000 C 
BRANCH   7  12
ATOM     12  O   UNL     1      -5.447  10.944  17.932  0.00  0.00    +0.000 OA
BRANCH  12  13
ATOM     13  C   UNL     1      -6.125  12.048  17.319  0.00  0.00    +0.000 C 
BRANCH  13  14
ATOM     14  C   UNL     1      -7.267  12.445  18.204  0.00  0.00    +0.000 C 
ATOM     15  C   UNL     1      -7.403  11.850  19.595  0.00  0.00    +0.000 C 
ATOM     16  C   UNL     1      -7.013  13.267  19.415  0.00  0.00    +0.000 C 
ATOM     17  F   UNL     1      -7.882  14.269  19.779  0.00  0.00    +0.000 F 
ATOM     18  F   UNL     1      -5.744  13.685  19.737  0.00  0.00    +0.000 F 
ENDBRANCH  13  14
ENDBRANCH  12  13
ENDBRANCH   7  12
ENDBRANCH   1   2
BRANCH   1  22
ATOM     19  C   UNL     1       2.522   5.796  19.410  0.00  0.00    +0.000 A 
ATOM     20  C   UNL     1       1.743   5.727  20.580  0.00  0.00    +0.000 A 
ATOM     21  C   UNL     1       1.157   6.875  21.138  0.00  0.00    +0.000 A 
ATOM     22  C   UNL     1       1.346   8.120  20.539  0.00  0.00    +0.000 A 
ATOM     23  C   UNL     1       2.111   8.188  19.362  0.00  0.00    +0.000 A 
ATOM     24  C   UNL     1       2.688   7.047  18.801  0.00  0.00    +0.000 A 
BRANCH  19  26
ATOM     25  C   UNL     1       3.731   3.581  19.846  0.00  0.00    +0.000 C 
ATOM     26  C   UNL     1       3.092   4.519  18.822  0.00  0.00    +0.000 C 
BRANCH  26  27
ATOM     27  N   UNL     1       4.060   4.836  17.795  0.00  0.00    +0.000 N 
ATOM     28  C   UNL     1       4.473   3.929  16.842  0.00  0.00    +0.000 C 
ATOM     29  O   UNL     1       3.990   2.799  16.786  0.00  0.00    +0.000 OA
ATOM     30  H   UNL     1       4.507   5.760  17.820  0.00  0.00    +0.000 HD
BRANCH  28  31
ATOM     31  C   UNL     1       5.525   4.350  15.935  0.00  0.00    +0.000 A 
ATOM     32  C   UNL     1       5.609   4.183  14.563  0.00  0.00    +0.000 A 
ATOM     33  C   UNL     1       6.826   4.718  14.061  0.00  0.00    +0.000 A 
ATOM     34  N   UNL     1       7.648   5.267  14.950  0.00  0.00    +0.000 NA
ATOM     35  S   UNL     1       6.950   5.144  16.449  0.00  0.00    +0.000 S 
ENDBRANCH  28  31
ENDBRANCH  26  27
ENDBRANCH  19  26
ENDBRANCH   1  22
TORSDOF 8
ENDMDL
MODEL 5
REMARK VINA RESULT:      -7.3      0.832      1.167
REMARK  Name = 
REMARK  9 active torsions:
REMARK  status: ('A' for Active; 'I' for Inactive)
REMARK    1  A    between atoms: C_1  and  C_2
REMARK    2  A    between atoms: C_2  and  N_3
REMARK    3  A    between atoms: C_2  and  C_11
REMARK    4  A    between atoms: C_4  and  C_6
REMARK    5  A    between atoms: C_14  and  C_15
REMARK    6  A    between atoms: C_15  and  N_16
REMARK    7  A    between atoms: C_21  and  O_22
REMARK    8  A    between atoms: O_22  and  C_23
REMARK    9  A    between atoms: C_23  and  C_24
REMARK                            x       y       z     vdW  Elec       q    Type
REMARK                         _______ _______ _______ _____ _____    ______ ____
ROOT
ATOM      1  C   UNL     1       9.015   9.826  18.955  0.00  0.00    +0.000 C 
ENDROOT
BRANCH   1   2
ATOM      2  N   UNL     1       9.547  10.824  18.001  0.00  0.00    +0.000 NA
ATOM      3  C   UNL     1      10.909  11.135  18.508  0.00  0.00    +0.000 C 
ATOM      4  C   UNL     1      11.518  12.339  17.838  0.00  0.00    +0.000 C 
ATOM      5  C   UNL     1      10.671  13.479  18.291  0.00  0.00    +0.000 A 
ATOM      6  C   UNL     1      11.140  14.492  19.121  0.00  0.00    +0.000 A 
ATOM      7  C   UNL     1      10.307  15.553  19.447  0.00  0.00    +0.000 A 
ATOM      8  C   UNL     1       9.087  15.681  18.783  0.00  0.00    +0.000 A 
ATOM      9  C   UNL     1       8.573  14.591  18.066  0.00  0.00    +0.000 A 
ATOM     10  C   UNL     1       9.313  13.406  17.988  0.00  0.00    +0.000 A 
ATOM     11  C   UNL     1       8.674  12.026  17.789  0.00  0.00    +0.000 C 
BRANCH   7  12
ATOM     12  O   UNL     1      10.789  16.406  20.397  0.00  0.00    +0.000 OA
BRANCH  12  13
ATOM     13  C   UNL     1       9.938  16.603  21.532  0.00  0.00    +0.000 C 
BRANCH  13  14
ATOM     14  C   UNL     1      10.103  15.431  22.451  0.00  0.00    +0.000 C 
ATOM     15  C   UNL     1       9.139  15.219  23.605  0.00  0.00    +0.000 C 
ATOM     16  C   UNL     1       9.112  14.325  22.425  0.00  0.00    +0.000 C 
ATOM     17  F   UNL     1       9.517  13.017  22.546  0.00  0.00    +0.000 F 
ATOM     18  F   UNL     1       8.044  14.349  21.560  0.00  0.00    +0.000 F 
ENDBRANCH  13  14
ENDBRANCH  12  13
ENDBRANCH   7  12
ENDBRANCH   1   2
BRANCH   1  22
ATOM     19  C   UNL     1       6.795   6.348  17.615  0.00  0.00    +0.000 A 
ATOM     20  C   UNL     1       7.740   6.228  18.651  0.00  0.00    +0.000 A 
ATOM     21  C   UNL     1       8.510   7.325  19.070  0.00  0.00    +0.000 A 
ATOM     22  C   UNL     1       8.355   8.566  18.455  0.00  0.00    +0.000 A 
ATOM     23  C   UNL     1       7.401   8.691  17.430  0.00  0.00    +0.000 A 
ATOM     24  C   UNL     1       6.629   7.604  17.017  0.00  0.00    +0.000 A 
BRANCH  19  26
ATOM     25  C   UNL     1       5.387   5.194  15.815  0.00  0.00    +0.000 C 
ATOM     26  C   UNL     1       5.955   5.144  17.234  0.00  0.00    +0.000 C 
BRANCH  26  27
ATOM     27  N   UNL     1       4.872   4.978  18.177  0.00  0.00    +0.000 N 
ATOM     28  C   UNL     1       4.064   3.860  18.209  0.00  0.00    +0.000 C 
ATOM     29  O   UNL     1       4.262   2.910  17.455  0.00  0.00    +0.000 OA
ATOM     30  H   UNL     1       4.655   5.758  18.808  0.00  0.00    +0.000 HD
BRANCH  28  31
ATOM     31  C   UNL     1       2.951   3.871  19.140  0.00  0.00    +0.000 A 
ATOM     32  C   UNL     1       2.273   4.955  19.673  0.00  0.00    +0.000 A 
ATOM     33  C   UNL     1       1.262   4.526  20.574  0.00  0.00    +0.000 A 
ATOM     34  N   UNL     1       1.136   3.215  20.750  0.00  0.00    +0.000 NA
ATOM     35  S   UNL     1       2.266   2.453  19.807  0.00  0.00    +0.000 S 
ENDBRANCH  28  31
ENDBRANCH  26  27
ENDBRANCH  19  26
ENDBRANCH   1  22
TORSDOF 8
ENDMDL
MODEL 6
REMARK VINA RESULT:      -7.3      1.668      2.635
REMARK  Name = 
REMARK  9 active torsions:
REMARK  status: ('A' for Active; 'I' for Inactive)
REMARK    1  A    between atoms: C_1  and  C_2
REMARK    2  A    between atoms: C_2  and  N_3
REMARK    3  A    between atoms: C_2  and  C_11
REMARK    4  A    between atoms: C_4  and  C_6
REMARK    5  A    between atoms: C_14  and  C_15
REMARK    6  A    between atoms: C_15  and  N_16
REMARK    7  A    between atoms: C_21  and  O_22
REMARK    8  A    between atoms: O_22  and  C_23
REMARK    9  A    between atoms: C_23  and  C_24
REMARK                            x       y       z     vdW  Elec       q    Type
REMARK                         _______ _______ _______ _____ _____    ______ ____
ROOT
ATOM      1  C   UNL     1       8.563  10.096  18.379  0.00  0.00    +0.000 C 
ENDROOT
BRANCH   1   2
ATOM      2  N   UNL     1       9.623  10.408  19.363  0.00  0.00    +0.000 NA
ATOM      3  C   UNL     1       8.890  10.928  20.547  0.00  0.00    +0.000 C 
ATOM      4  C   UNL     1       9.802  11.567  21.561  0.00  0.00    +0.000 C 
ATOM      5  C   UNL     1      10.325  12.781  20.871  0.00  0.00    +0.000 A 
ATOM      6  C   UNL     1      10.013  14.076  21.272  0.00  0.00    +0.000 A 
ATOM      7  C   UNL     1      10.591  15.154  20.616  0.00  0.00    +0.000 A 
ATOM      8  C   UNL     1      11.617  14.917  19.702  0.00  0.00    +0.000 A 
ATOM      9  C   UNL     1      11.817  13.619  19.210  0.00  0.00    +0.000 A 
ATOM     10  C   UNL     1      11.016  12.572  19.680  0.00  0.00    +0.000 A 
ATOM     11  C   UNL     1      10.708  11.314  18.859  0.00  0.00    +0.000 C 
BRANCH   7  12
ATOM     12  O   UNL     1      10.099  16.381  20.960  0.00  0.00    +0.000 OA
BRANCH  12  13
ATOM     13  C   UNL     1       8.671  16.470  21.034  0.00  0.00    +0.000 C 
BRANCH  13  14
ATOM     14  C   UNL     1       8.134  16.538  19.636  0.00  0.00    +0.000 C 
ATOM     15  C   UNL     1       7.356  15.371  19.055  0.00  0.00    +0.000 C 
ATOM     16  C   UNL     1       6.670  16.634  19.410  0.00  0.00    +0.000 C 
ATOM     17  F   UNL     1       6.164  17.441  18.419  0.00  0.00    +0.000 F 
ATOM     18  F   UNL     1       5.789  16.673  20.465  0.00  0.00    +0.000 F 
ENDBRANCH  13  14
ENDBRANCH  12  13
ENDBRANCH   7  12
ENDBRANCH   1   2
BRANCH   1  22
ATOM     19  C   UNL     1       6.981   6.096  17.818  0.00  0.00    +0.000 A 
ATOM     20  C   UNL     1       7.988   6.330  18.772  0.00  0.00    +0.000 A 
ATOM     21  C   UNL     1       8.556   7.604  18.939  0.00  0.00    +0.000 A 
ATOM     22  C   UNL     1       8.131   8.670  18.148  0.00  0.00    +0.000 A 
ATOM     23  C   UNL     1       7.113   8.441  17.206  0.00  0.00    +0.000 A 
ATOM     24  C   UNL     1       6.542   7.177  17.043  0.00  0.00    +0.000 A 
BRANCH  19  26
ATOM     25  C   UNL     1       6.364   4.129  16.298  0.00  0.00    +0.000 C 
ATOM     26  C   UNL     1       6.367   4.713  17.711  0.00  0.00    +0.000 C 
BRANCH  26  27
ATOM     27  N   UNL     1       5.015   4.731  18.223  0.00  0.00    +0.000 N 
ATOM     28  C   UNL     1       4.569   3.871  19.206  0.00  0.00    +0.000 C 
ATOM     29  O   UNL     1       5.328   3.066  19.740  0.00  0.00    +0.000 OA
ATOM     30  H   UNL     1       4.340   5.370  17.788  0.00  0.00    +0.000 HD
BRANCH  28  31
ATOM     31  C   UNL     1       3.160   3.931  19.552  0.00  0.00    +0.000 A 
ATOM     32  C   UNL     1       2.557   4.545  20.637  0.00  0.00    +0.000 A 
ATOM     33  C   UNL     1       1.151   4.339  20.619  0.00  0.00    +0.000 A 
ATOM     34  N   UNL     1       0.667   3.623  19.609  0.00  0.00    +0.000 NA
ATOM     35  S   UNL     1       1.931   3.172  18.636  0.00  0.00    +0.000 S 
ENDBRANCH  28  31
ENDBRANCH  26  27
ENDBRANCH  19  26
ENDBRANCH   1  22
TORSDOF 8
ENDMDL
MODEL 7
REMARK VINA RESULT:      -7.3      6.896      8.384
REMARK  Name = 
REMARK  9 active torsions:
REMARK  status: ('A' for Active; 'I' for Inactive)
REMARK    1  A    between atoms: C_1  and  C_2
REMARK    2  A    between atoms: C_2  and  N_3
REMARK    3  A    between atoms: C_2  and  C_11
REMARK    4  A    between atoms: C_4  and  C_6
REMARK    5  A    between atoms: C_14  and  C_15
REMARK    6  A    between atoms: C_15  and  N_16
REMARK    7  A    between atoms: C_21  and  O_22
REMARK    8  A    between atoms: O_22  and  C_23
REMARK    9  A    between atoms: C_23  and  C_24
REMARK                            x       y       z     vdW  Elec       q    Type
REMARK                         _______ _______ _______ _____ _____    ______ ____
ROOT
ATOM      1  C   UNL     1       1.545   8.559  21.016  0.00  0.00    +0.000 C 
ENDROOT
BRANCH   1   2
ATOM      2  N   UNL     1       0.294   9.346  20.932  0.00  0.00    +0.000 NA
ATOM      3  C   UNL     1       0.119   9.611  19.480  0.00  0.00    +0.000 C 
ATOM      4  C   UNL     1      -0.947  10.638  19.201  0.00  0.00    +0.000 C 
ATOM      5  C   UNL     1      -0.391  11.905  19.758  0.00  0.00    +0.000 A 
ATOM      6  C   UNL     1      -0.029  12.989  18.964  0.00  0.00    +0.000 A 
ATOM      7  C   UNL     1       0.423  14.156  19.563  0.00  0.00    +0.000 A 
ATOM      8  C   UNL     1       0.321  14.287  20.948  0.00  0.00    +0.000 A 
ATOM      9  C   UNL     1       0.092  13.148  21.734  0.00  0.00    +0.000 A 
ATOM     10  C   UNL     1      -0.078  11.905  21.115  0.00  0.00    +0.000 A 
ATOM     11  C   UNL     1       0.259  10.573  21.795  0.00  0.00    +0.000 C 
BRANCH   7  12
ATOM     12  O   UNL     1       0.914  15.101  18.709  0.00  0.00    +0.000 OA
BRANCH  12  13
ATOM     13  C   UNL     1       0.566  16.454  19.025  0.00  0.00    +0.000 C 
BRANCH  13  14
ATOM     14  C   UNL     1      -0.281  16.992  17.912  0.00  0.00    +0.000 C 
ATOM     15  C   UNL     1      -0.823  18.409  17.976  0.00  0.00    +0.000 C 
ATOM     16  C   UNL     1       0.253  18.055  17.024  0.00  0.00    +0.000 C 
ATOM     17  F   UNL     1      -0.005  18.037  15.673  0.00  0.00    +0.000 F 
ATOM     18  F   UNL     1       1.523  18.552  17.194  0.00  0.00    +0.000 F 
ENDBRANCH  13  14
ENDBRANCH  12  13
ENDBRANCH   7  12
ENDBRANCH   1   2
BRANCH   1  22
ATOM     19  C   UNL     1       2.306   4.861  18.881  0.00  0.00    +0.000 A 
ATOM     20  C   UNL     1       2.531   6.099  18.251  0.00  0.00    +0.000 A 
ATOM     21  C   UNL     1       2.244   7.312  18.900  0.00  0.00    +0.000 A 
ATOM     22  C   UNL     1       1.719   7.309  20.191  0.00  0.00    +0.000 A 
ATOM     23  C   UNL     1       1.508   6.073  20.826  0.00  0.00    +0.000 A 
ATOM     24  C   UNL     1       1.799   4.866  20.186  0.00  0.00    +0.000 A 
BRANCH  19  26
ATOM     25  C   UNL     1       3.201   2.468  19.063  0.00  0.00    +0.000 C 
ATOM     26  C   UNL     1       2.678   3.582  18.155  0.00  0.00    +0.000 C 
BRANCH  26  27
ATOM     27  N   UNL     1       3.657   3.862  17.129  0.00  0.00    +0.000 N 
ATOM     28  C   UNL     1       4.993   4.077  17.399  0.00  0.00    +0.000 C 
ATOM     29  O   UNL     1       5.433   3.988  18.544  0.00  0.00    +0.000 OA
ATOM     30  H   UNL     1       3.329   3.971  16.162  0.00  0.00    +0.000 HD
BRANCH  28  31
ATOM     31  C   UNL     1       5.846   4.449  16.285  0.00  0.00    +0.000 A 
ATOM     32  C   UNL     1       5.752   4.074  14.955  0.00  0.00    +0.000 A 
ATOM     33  C   UNL     1       6.810   4.639  14.194  0.00  0.00    +0.000 A 
ATOM     34  N   UNL     1       7.678   5.401  14.853  0.00  0.00    +0.000 NA
ATOM     35  S   UNL     1       7.222   5.451  16.446  0.00  0.00    +0.000 S 
ENDBRANCH  28  31
ENDBRANCH  26  27
ENDBRANCH  19  26
ENDBRANCH   1  22
TORSDOF 8
ENDMDL
MODEL 8
REMARK VINA RESULT:      -7.3      5.208      8.086
REMARK  Name = 
REMARK  9 active torsions:
REMARK  status: ('A' for Active; 'I' for Inactive)
REMARK    1  A    between atoms: C_1  and  C_2
REMARK    2  A    between atoms: C_2  and  N_3
REMARK    3  A    between atoms: C_2  and  C_11
REMARK    4  A    between atoms: C_4  and  C_6
REMARK    5  A    between atoms: C_14  and  C_15
REMARK    6  A    between atoms: C_15  and  N_16
REMARK    7  A    between atoms: C_21  and  O_22
REMARK    8  A    between atoms: O_22  and  C_23
REMARK    9  A    between atoms: C_23  and  C_24
REMARK                            x       y       z     vdW  Elec       q    Type
REMARK                         _______ _______ _______ _____ _____    ______ ____
ROOT
ATOM      1  C   UNL     1       2.288   5.495  19.204  0.00  0.00    +0.000 C 
ENDROOT
BRANCH   1   2
ATOM      2  N   UNL     1       3.462   4.831  18.596  0.00  0.00    +0.000 NA
ATOM      3  C   UNL     1       4.426   4.681  19.716  0.00  0.00    +0.000 C 
ATOM      4  C   UNL     1       5.801   4.280  19.250  0.00  0.00    +0.000 C 
ATOM      5  C   UNL     1       6.287   5.461  18.481  0.00  0.00    +0.000 A 
ATOM      6  C   UNL     1       7.351   6.255  18.899  0.00  0.00    +0.000 A 
ATOM      7  C   UNL     1       7.784   7.300  18.095  0.00  0.00    +0.000 A 
ATOM      8  C   UNL     1       7.274   7.413  16.801  0.00  0.00    +0.000 A 
ATOM      9  C   UNL     1       6.115   6.703  16.452  0.00  0.00    +0.000 A 
ATOM     10  C   UNL     1       5.516   5.857  17.391  0.00  0.00    +0.000 A 
ATOM     11  C   UNL     1       4.020   5.518  17.384  0.00  0.00    +0.000 C 
BRANCH   7  12
ATOM     12  O   UNL     1       8.714   8.126  18.658  0.00  0.00    +0.000 OA
BRANCH  12  13
ATOM     13  C   UNL     1       8.497   9.526  18.447  0.00  0.00    +0.000 C 
BRANCH  13  14
ATOM     14  C   UNL     1       9.791  10.242  18.694  0.00  0.00    +0.000 C 
ATOM     15  C   UNL     1       9.940  11.706  18.318  0.00  0.00    +0.000 C 
ATOM     16  C   UNL     1       9.866  11.295  19.738  0.00  0.00    +0.000 C 
ATOM     17  F   UNL     1      10.975  11.407  20.543  0.00  0.00    +0.000 F 
ATOM     18  F   UNL     1       8.769  11.621  20.499  0.00  0.00    +0.000 F 
ENDBRANCH  13  14
ENDBRANCH  12  13
ENDBRANCH   7  12
ENDBRANCH   1   2
BRANCH   1  22
ATOM     19  C   UNL     1       1.469   9.753  19.046  0.00  0.00    +0.000 A 
ATOM     20  C   UNL     1       1.852   9.063  17.881  0.00  0.00    +0.000 A 
ATOM     21  C   UNL     1       2.174   7.696  17.912  0.00  0.00    +0.000 A 
ATOM     22  C   UNL     1       2.125   6.992  19.114  0.00  0.00    +0.000 A 
ATOM     23  C   UNL     1       1.727   7.676  20.275  0.00  0.00    +0.000 A 
ATOM     24  C   UNL     1       1.399   9.033  20.246  0.00  0.00    +0.000 A 
BRANCH  19  26
ATOM     25  C   UNL     1       0.934  11.922  20.298  0.00  0.00    +0.000 C 
ATOM     26  C   UNL     1       1.085  11.217  18.949  0.00  0.00    +0.000 C 
BRANCH  26  27
ATOM     27  N   UNL     1      -0.142  11.358  18.197  0.00  0.00    +0.000 N 
ATOM     28  C   UNL     1      -1.360  10.894  18.647  0.00  0.00    +0.000 C 
ATOM     29  O   UNL     1      -1.474  10.373  19.754  0.00  0.00    +0.000 OA
ATOM     30  H   UNL     1      -0.089  11.764  17.256  0.00  0.00    +0.000 HD
BRANCH  28  31
ATOM     31  C   UNL     1      -2.491  11.011  17.744  0.00  0.00    +0.000 A 
ATOM     32  C   UNL     1      -3.715  11.624  17.959  0.00  0.00    +0.000 A 
ATOM     33  C   UNL     1      -4.556  11.485  16.822  0.00  0.00    +0.000 A 
ATOM     34  N   UNL     1      -4.054  10.822  15.785  0.00  0.00    +0.000 NA
ATOM     35  S   UNL     1      -2.516  10.338  16.172  0.00  0.00    +0.000 S 
ENDBRANCH  28  31
ENDBRANCH  26  27
ENDBRANCH  19  26
ENDBRANCH   1  22
TORSDOF 8
ENDMDL
MODEL 9
REMARK VINA RESULT:      -7.3      5.652      8.095
REMARK  Name = 
REMARK  9 active torsions:
REMARK  status: ('A' for Active; 'I' for Inactive)
REMARK    1  A    between atoms: C_1  and  C_2
REMARK    2  A    between atoms: C_2  and  N_3
REMARK    3  A    between atoms: C_2  and  C_11
REMARK    4  A    between atoms: C_4  and  C_6
REMARK    5  A    between atoms: C_14  and  C_15
REMARK    6  A    between atoms: C_15  and  N_16
REMARK    7  A    between atoms: C_21  and  O_22
REMARK    8  A    between atoms: O_22  and  C_23
REMARK    9  A    between atoms: C_23  and  C_24
REMARK                            x       y       z     vdW  Elec       q    Type
REMARK                         _______ _______ _______ _____ _____    ______ ____
ROOT
ATOM      1  C   UNL     1       1.437   8.402  21.158  0.00  0.00    +0.000 C 
ENDROOT
BRANCH   1   2
ATOM      2  N   UNL     1       0.087   8.991  21.014  0.00  0.00    +0.000 NA
ATOM      3  C   UNL     1       0.153   9.770  19.751  0.00  0.00    +0.000 C 
ATOM      4  C   UNL     1      -1.035  10.678  19.565  0.00  0.00    +0.000 C 
ATOM      5  C   UNL     1      -0.896  11.692  20.649  0.00  0.00    +0.000 A 
ATOM      6  C   UNL     1      -0.631  13.036  20.403  0.00  0.00    +0.000 A 
ATOM      7  C   UNL     1      -0.578  13.929  21.463  0.00  0.00    +0.000 A 
ATOM      8  C   UNL     1      -0.982  13.501  22.728  0.00  0.00    +0.000 A 
ATOM      9  C   UNL     1      -1.106  12.127  22.984  0.00  0.00    +0.000 A 
ATOM     10  C   UNL     1      -0.870  11.209  21.955  0.00  0.00    +0.000 A 
ATOM     11  C   UNL     1      -0.391   9.773  22.202  0.00  0.00    +0.000 C 
BRANCH   7  12
ATOM     12  O   UNL     1      -0.146  15.185  21.149  0.00  0.00    +0.000 OA
BRANCH  12  13
ATOM     13  C   UNL     1       0.607  15.288  19.935  0.00  0.00    +0.000 C 
BRANCH  13  14
ATOM     14  C   UNL     1       2.054  15.444  20.293  0.00  0.00    +0.000 C 
ATOM     15  C   UNL     1       2.914  14.221  20.561  0.00  0.00    +0.000 C 
ATOM     16  C   UNL     1       3.104  15.023  19.332  0.00  0.00    +0.000 C 
ATOM     17  F   UNL     1       4.248  15.769  19.169  0.00  0.00    +0.000 F 
ATOM     18  F   UNL     1       2.774  14.500  18.104  0.00  0.00    +0.000 F 
ENDBRANCH  13  14
ENDBRANCH  12  13
ENDBRANCH   7  12
ENDBRANCH   1   2
BRANCH   1  22
ATOM     19  C   UNL     1       2.261   4.908  18.722  0.00  0.00    +0.000 A 
ATOM     20  C   UNL     1       1.767   4.757  20.030  0.00  0.00    +0.000 A 
ATOM     21  C   UNL     1       1.540   5.867  20.860  0.00  0.00    +0.000 A 
ATOM     22  C   UNL     1       1.811   7.154  20.398  0.00  0.00    +0.000 A 
ATOM     23  C   UNL     1       2.290   7.307  19.086  0.00  0.00    +0.000 A 
ATOM     24  C   UNL     1       2.509   6.206  18.256  0.00  0.00    +0.000 A 
BRANCH  19  26
ATOM     25  C   UNL     1       2.750   2.396  18.623  0.00  0.00    +0.000 C 
ATOM     26  C   UNL     1       2.442   3.680  17.850  0.00  0.00    +0.000 C 
BRANCH  26  27
ATOM     27  N   UNL     1       3.485   3.913  16.877  0.00  0.00    +0.000 N 
ATOM     28  C   UNL     1       4.817   4.038  17.213  0.00  0.00    +0.000 C 
ATOM     29  O   UNL     1       5.196   3.904  18.375  0.00  0.00    +0.000 OA
ATOM     30  H   UNL     1       3.211   4.057  15.898  0.00  0.00    +0.000 HD
BRANCH  28  31
ATOM     31  C   UNL     1       5.743   4.373  16.147  0.00  0.00    +0.000 A 
ATOM     32  C   UNL     1       5.636   4.118  14.789  0.00  0.00    +0.000 A 
ATOM     33  C   UNL     1       6.783   4.587  14.094  0.00  0.00    +0.000 A 
ATOM     34  N   UNL     1       7.728   5.168  14.826  0.00  0.00    +0.000 NA
ATOM     35  S   UNL     1       7.240   5.159  16.410  0.00  0.00    +0.000 S 
ENDBRANCH  28  31
ENDBRANCH  26  27
ENDBRANCH  19  26
ENDBRANCH   1  22
TORSDOF 8
ENDMDL
