MODEL 1
REMARK VINA RESULT:      -9.0      0.000      0.000
REMARK  Name = 
REMARK  7 active torsions:
REMARK  status: ('A' for Active; 'I' for Inactive)
REMARK    1  A    between atoms: C_1  and  C_2
REMARK    2  A    between atoms: N_4  and  C_5
REMARK    3  A    between atoms: C_8  and  C_9
REMARK    4  A    between atoms: C_16  and  C_17
REMARK    5  A    between atoms: C_16  and  C_18
REMARK    6  A    between atoms: N_20  and  C_21
REMARK    7  A    between atoms: C_21  and  C_22
REMARK                            x       y       z     vdW  Elec       q    Type
REMARK                         _______ _______ _______ _____ _____    ______ ____
ROOT
ATOM      1  C   UNL     1       2.705   5.494  18.350  0.00  0.00    +0.000 A 
ATOM      2  C   UNL     1       1.816   4.407  18.453  0.00  0.00    +0.000 A 
ATOM      3  C   UNL     1       2.258   3.103  18.205  0.00  0.00    +0.000 A 
ATOM      4  N   UNL     1       3.524   2.799  17.857  0.00  0.00    +0.000 NA
ATOM      5  C   UNL     1       4.343   3.844  17.756  0.00  0.00    +0.000 A 
ATOM      6  C   UNL     1       4.009   5.170  17.978  0.00  0.00    +0.000 A 
ATOM      7  C   UNL     1       5.219   6.003  17.804  0.00  0.00    +0.000 C 
ATOM      8  C   UNL     1       6.263   4.946  17.392  0.00  0.00    +0.000 C 
ATOM      9  C   UNL     1       7.448   4.970  18.361  0.00  0.00    +0.000 C 
ATOM     10  O   UNL     1       5.671   3.633  17.447  0.00  0.00    +0.000 OA
ENDROOT
BRANCH   1  14
ATOM     11  C   UNL     1       1.423   9.553  19.187  0.00  0.00    +0.000 A 
ATOM     12  C   UNL     1       1.732   9.141  17.893  0.00  0.00    +0.000 A 
ATOM     13  C   UNL     1       2.117   7.824  17.629  0.00  0.00    +0.000 A 
ATOM     14  C   UNL     1       2.243   6.872  18.652  0.00  0.00    +0.000 A 
ATOM     15  C   UNL     1       1.937   7.312  19.952  0.00  0.00    +0.000 A 
ATOM     16  C   UNL     1       1.527   8.626  20.220  0.00  0.00    +0.000 A 
BRANCH  11  20
ATOM     17  C   UNL     1      -0.345  12.833  19.718  0.00  0.00    +0.000 C 
ATOM     18  C   UNL     1      -0.255  11.360  19.444  0.00  0.00    +0.000 C 
ATOM     19  O   UNL     1      -1.274  10.715  19.208  0.00  0.00    +0.000 OA
ATOM     20  N   UNL     1       1.040  10.872  19.494  0.00  0.00    +0.000 N 
ATOM     21  H   UNL     1       1.760  11.486  19.854  0.00  0.00    +0.000 HD
ENDBRANCH  11  20
ENDBRANCH   1  14
BRANCH   8  22
ATOM     22  C   UNL     1       6.788   5.224  15.961  0.00  0.00    +0.000 C 
ATOM     23  O   UNL     1       7.615   6.105  15.725  0.00  0.00    +0.000 OA
ATOM     24  N   UNL     1       6.335   4.371  14.979  0.00  0.00    +0.000 N 
ATOM     25  H   UNL     1       5.703   3.615  15.225  0.00  0.00    +0.000 HD
BRANCH  24  26
ATOM     26  C   UNL     1       6.821   4.467  13.622  0.00  0.00    +0.000 C 
BRANCH  26  27
ATOM     27  C   UNL     1       6.002   3.637  12.706  0.00  0.00    +0.000 A 
ATOM     28  C   UNL     1       4.725   3.780  12.199  0.00  0.00    +0.000 A 
ATOM     29  C   UNL     1       4.527   2.710  11.295  0.00  0.00    +0.000 A 
ATOM     30  C   UNL     1       5.689   1.973  11.315  0.00  0.00    +0.000 A 
ATOM     31  O   UNL     1       6.590   2.525  12.170  0.00  0.00    +0.000 OA
ENDBRANCH  26  27
ENDBRANCH  24  26
ENDBRANCH   8  22
TORSDOF 5
ENDMDL
MODEL 2
REMARK VINA RESULT:      -8.9      0.536      1.156
REMARK  Name = 
REMARK  7 active torsions:
REMARK  status: ('A' for Active; 'I' for Inactive)
REMARK    1  A    between atoms: C_1  and  C_2
REMARK    2  A    between atoms: N_4  and  C_5
REMARK    3  A    between atoms: C_8  and  C_9
REMARK    4  A    between atoms: C_16  and  C_17
REMARK    5  A    between atoms: C_16  and  C_18
REMARK    6  A    between atoms: N_20  and  C_21
REMARK    7  A    between atoms: C_21  and  C_22
REMARK                            x       y       z     vdW  Elec       q    Type
REMARK                         _______ _______ _______ _____ _____    ______ ____
ROOT
ATOM      1  C   UNL     1       2.736   5.394  18.222  0.00  0.00    +0.000 A 
ATOM      2  C   UNL     1       1.816   4.328  18.243  0.00  0.00    +0.000 A 
ATOM      3  C   UNL     1       2.219   3.035  17.890  0.00  0.00    +0.000 A 
ATOM      4  N   UNL     1       3.474   2.723  17.513  0.00  0.00    +0.000 NA
ATOM      5  C   UNL     1       4.324   3.749  17.492  0.00  0.00    +0.000 A 
ATOM      6  C   UNL     1       4.029   5.062  17.821  0.00  0.00    +0.000 A 
ATOM      7  C   UNL     1       5.262   5.871  17.708  0.00  0.00    +0.000 C 
ATOM      8  C   UNL     1       6.274   4.820  17.209  0.00  0.00    +0.000 C 
ATOM      9  C   UNL     1       7.461   4.732  18.171  0.00  0.00    +0.000 C 
ATOM     10  O   UNL     1       5.644   3.525  17.162  0.00  0.00    +0.000 OA
ENDROOT
BRANCH   1  14
ATOM     11  C   UNL     1       1.437   9.339  19.475  0.00  0.00    +0.000 A 
ATOM     12  C   UNL     1       1.581   8.297  20.388  0.00  0.00    +0.000 A 
ATOM     13  C   UNL     1       2.027   7.037  19.979  0.00  0.00    +0.000 A 
ATOM     14  C   UNL     1       2.315   6.756  18.636  0.00  0.00    +0.000 A 
ATOM     15  C   UNL     1       2.152   7.818  17.729  0.00  0.00    +0.000 A 
ATOM     16  C   UNL     1       1.729   9.090  18.137  0.00  0.00    +0.000 A 
BRANCH  11  20
ATOM     17  C   UNL     1      -0.476  12.525  20.069  0.00  0.00    +0.000 C 
ATOM     18  C   UNL     1      -0.312  11.083  19.684  0.00  0.00    +0.000 C 
ATOM     19  O   UNL     1      -1.276  10.442  19.277  0.00  0.00    +0.000 OA
ATOM     20  N   UNL     1       0.983  10.618  19.846  0.00  0.00    +0.000 N 
ATOM     21  H   UNL     1       1.638  11.212  20.338  0.00  0.00    +0.000 HD
ENDBRANCH  11  20
ENDBRANCH   1  14
BRANCH   8  22
ATOM     22  C   UNL     1       6.804   5.196  15.802  0.00  0.00    +0.000 C 
ATOM     23  O   UNL     1       7.681   6.045  15.636  0.00  0.00    +0.000 OA
ATOM     24  N   UNL     1       6.294   4.463  14.753  0.00  0.00    +0.000 N 
ATOM     25  H   UNL     1       5.620   3.726  14.938  0.00  0.00    +0.000 HD
BRANCH  24  26
ATOM     26  C   UNL     1       6.775   4.653  13.404  0.00  0.00    +0.000 C 
BRANCH  26  27
ATOM     27  C   UNL     1       6.239   3.609  12.498  0.00  0.00    +0.000 A 
ATOM     28  C   UNL     1       6.806   2.493  11.912  0.00  0.00    +0.000 A 
ATOM     29  C   UNL     1       5.766   1.827  11.222  0.00  0.00    +0.000 A 
ATOM     30  C   UNL     1       4.633   2.583  11.417  0.00  0.00    +0.000 A 
ATOM     31  O   UNL     1       4.910   3.668  12.187  0.00  0.00    +0.000 OA
ENDBRANCH  26  27
ENDBRANCH  24  26
ENDBRANCH   8  22
TORSDOF 5
ENDMDL
MODEL 3
REMARK VINA RESULT:      -8.8      0.748      1.160
REMARK  Name = 
REMARK  7 active torsions:
REMARK  status: ('A' for Active; 'I' for Inactive)
REMARK    1  A    between atoms: C_1  and  C_2
REMARK    2  A    between atoms: N_4  and  C_5
REMARK    3  A    between atoms: C_8  and  C_9
REMARK    4  A    between atoms: C_16  and  C_17
REMARK    5  A    between atoms: C_16  and  C_18
REMARK    6  A    between atoms: N_20  and  C_21
REMARK    7  A    between atoms: C_21  and  C_22
REMARK                            x       y       z     vdW  Elec       q    Type
REMARK                         _______ _______ _______ _____ _____    ______ ____
ROOT
ATOM      1  C   UNL     1       2.702   5.582  18.315  0.00  0.00    +0.000 A 
ATOM      2  C   UNL     1       1.790   4.514  18.417  0.00  0.00    +0.000 A 
ATOM      3  C   UNL     1       2.204   3.199  18.176  0.00  0.00    +0.000 A 
ATOM      4  N   UNL     1       3.465   2.868  17.836  0.00  0.00    +0.000 NA
ATOM      5  C   UNL     1       4.307   3.894  17.735  0.00  0.00    +0.000 A 
ATOM      6  C   UNL     1       4.000   5.228  17.951  0.00  0.00    +0.000 A 
ATOM      7  C   UNL     1       5.229   6.034  17.780  0.00  0.00    +0.000 C 
ATOM      8  C   UNL     1       6.252   4.953  17.377  0.00  0.00    +0.000 C 
ATOM      9  C   UNL     1       7.432   4.955  18.351  0.00  0.00    +0.000 C 
ATOM     10  O   UNL     1       5.632   3.654  17.433  0.00  0.00    +0.000 OA
ENDROOT
BRANCH   1  14
ATOM     11  C   UNL     1       1.365   9.607  19.224  0.00  0.00    +0.000 A 
ATOM     12  C   UNL     1       1.490   8.641  20.219  0.00  0.00    +0.000 A 
ATOM     13  C   UNL     1       1.948   7.354  19.920  0.00  0.00    +0.000 A 
ATOM     14  C   UNL     1       2.268   6.970  18.610  0.00  0.00    +0.000 A 
ATOM     15  C   UNL     1       2.124   7.958  17.620  0.00  0.00    +0.000 A 
ATOM     16  C   UNL     1       1.689   9.256  17.916  0.00  0.00    +0.000 A 
BRANCH  11  20
ATOM     17  C   UNL     1       0.117  12.832  20.711  0.00  0.00    +0.000 C 
ATOM     18  C   UNL     1       0.735  11.464  20.741  0.00  0.00    +0.000 C 
ATOM     19  O   UNL     1       1.040  10.951  21.814  0.00  0.00    +0.000 OA
ATOM     20  N   UNL     1       0.899  10.910  19.483  0.00  0.00    +0.000 N 
ATOM     21  H   UNL     1       0.748  11.509  18.681  0.00  0.00    +0.000 HD
ENDBRANCH  11  20
ENDBRANCH   1  14
BRANCH   8  22
ATOM     22  C   UNL     1       6.790   5.215  15.947  0.00  0.00    +0.000 C 
ATOM     23  O   UNL     1       7.615   6.097  15.708  0.00  0.00    +0.000 OA
ATOM     24  N   UNL     1       6.352   4.346  14.973  0.00  0.00    +0.000 N 
ATOM     25  H   UNL     1       5.721   3.590  15.223  0.00  0.00    +0.000 HD
BRANCH  24  26
ATOM     26  C   UNL     1       6.851   4.426  13.619  0.00  0.00    +0.000 C 
BRANCH  26  27
ATOM     27  C   UNL     1       6.016   3.619  12.697  0.00  0.00    +0.000 A 
ATOM     28  C   UNL     1       4.726   3.769  12.225  0.00  0.00    +0.000 A 
ATOM     29  C   UNL     1       4.514   2.724  11.293  0.00  0.00    +0.000 A 
ATOM     30  C   UNL     1       5.680   1.995  11.265  0.00  0.00    +0.000 A 
ATOM     31  O   UNL     1       6.597   2.527  12.116  0.00  0.00    +0.000 OA
ENDBRANCH  26  27
ENDBRANCH  24  26
ENDBRANCH   8  22
TORSDOF 5
ENDMDL
MODEL 4
REMARK VINA RESULT:      -8.7      1.093      1.499
REMARK  Name = 
REMARK  7 active torsions:
REMARK  status: ('A' for Active; 'I' for Inactive)
REMARK    1  A    between atoms: C_1  and  C_2
REMARK    2  A    between atoms: N_4  and  C_5
REMARK    3  A    between atoms: C_8  and  C_9
REMARK    4  A    between atoms: C_16  and  C_17
REMARK    5  A    between atoms: C_16  and  C_18
REMARK    6  A    between atoms: N_20  and  C_21
REMARK    7  A    between atoms: C_21  and  C_22
REMARK                            x       y       z     vdW  Elec       q    Type
REMARK                         _______ _______ _______ _____ _____    ______ ____
ROOT
ATOM      1  C   UNL     1       2.749   5.829  18.518  0.00  0.00    +0.000 A 
ATOM      2  C   UNL     1       1.898   4.710  18.594  0.00  0.00    +0.000 A 
ATOM      3  C   UNL     1       2.407   3.418  18.424  0.00  0.00    +0.000 A 
ATOM      4  N   UNL     1       3.705   3.156  18.180  0.00  0.00    +0.000 NA
ATOM      5  C   UNL     1       4.489   4.230  18.103  0.00  0.00    +0.000 A 
ATOM      6  C   UNL     1       4.088   5.547  18.254  0.00  0.00    +0.000 A 
ATOM      7  C   UNL     1       5.275   6.423  18.140  0.00  0.00    +0.000 C 
ATOM      8  C   UNL     1       6.387   5.397  17.843  0.00  0.00    +0.000 C 
ATOM      9  C   UNL     1       7.495   5.500  18.893  0.00  0.00    +0.000 C 
ATOM     10  O   UNL     1       5.843   4.064  17.900  0.00  0.00    +0.000 OA
ENDROOT
BRANCH   1  14
ATOM     11  C   UNL     1       1.116   9.788  19.210  0.00  0.00    +0.000 A 
ATOM     12  C   UNL     1       1.309   8.889  20.256  0.00  0.00    +0.000 A 
ATOM     13  C   UNL     1       1.862   7.626  20.026  0.00  0.00    +0.000 A 
ATOM     14  C   UNL     1       2.213   7.196  18.738  0.00  0.00    +0.000 A 
ATOM     15  C   UNL     1       1.999   8.115  17.696  0.00  0.00    +0.000 A 
ATOM     16  C   UNL     1       1.468   9.392  17.923  0.00  0.00    +0.000 A 
BRANCH  11  20
ATOM     17  C   UNL     1       0.390  13.465  19.550  0.00  0.00    +0.000 C 
ATOM     18  C   UNL     1       1.200  12.265  19.153  0.00  0.00    +0.000 C 
ATOM     19  O   UNL     1       2.316  12.412  18.662  0.00  0.00    +0.000 OA
ATOM     20  N   UNL     1       0.554  11.065  19.398  0.00  0.00    +0.000 N 
ATOM     21  H   UNL     1      -0.423  11.101  19.659  0.00  0.00    +0.000 HD
ENDBRANCH  11  20
ENDBRANCH   1  14
BRANCH   8  22
ATOM     22  C   UNL     1       7.006   5.651  16.445  0.00  0.00    +0.000 C 
ATOM     23  O   UNL     1       7.767   6.594  16.225  0.00  0.00    +0.000 OA
ATOM     24  N   UNL     1       6.719   4.710  15.481  0.00  0.00    +0.000 N 
ATOM     25  H   UNL     1       6.139   3.910  15.719  0.00  0.00    +0.000 HD
BRANCH  24  26
ATOM     26  C   UNL     1       7.309   4.782  14.165  0.00  0.00    +0.000 C 
BRANCH  26  27
ATOM     27  C   UNL     1       6.481   4.057  13.171  0.00  0.00    +0.000 A 
ATOM     28  C   UNL     1       6.797   3.310  12.053  0.00  0.00    +0.000 A 
ATOM     29  C   UNL     1       5.578   2.787  11.559  0.00  0.00    +0.000 A 
ATOM     30  C   UNL     1       4.594   3.258  12.397  0.00  0.00    +0.000 A 
ATOM     31  O   UNL     1       5.131   4.033  13.377  0.00  0.00    +0.000 OA
ENDBRANCH  26  27
ENDBRANCH  24  26
ENDBRANCH   8  22
TORSDOF 5
ENDMDL
MODEL 5
REMARK VINA RESULT:      -8.6      1.019      1.019
REMARK  Name = 
REMARK  7 active torsions:
REMARK  status: ('A' for Active; 'I' for Inactive)
REMARK    1  A    between atoms: C_1  and  C_2
REMARK    2  A    between atoms: N_4  and  C_5
REMARK    3  A    between atoms: C_8  and  C_9
REMARK    4  A    between atoms: C_16  and  C_17
REMARK    5  A    between atoms: C_16  and  C_18
REMARK    6  A    between atoms: N_20  and  C_21
REMARK    7  A    between atoms: C_21  and  C_22
REMARK                            x       y       z     vdW  Elec       q    Type
REMARK                         _______ _______ _______ _____ _____    ______ ____
ROOT
ATOM      1  C   UNL     1       2.767   5.743  18.554  0.00  0.00    +0.000 A 
ATOM      2  C   UNL     1       1.938   4.610  18.659  0.00  0.00    +0.000 A 
ATOM      3  C   UNL     1       2.467   3.325  18.491  0.00  0.00    +0.000 A 
ATOM      4  N   UNL     1       3.765   3.084  18.223  0.00  0.00    +0.000 NA
ATOM      5  C   UNL     1       4.527   4.171  18.118  0.00  0.00    +0.000 A 
ATOM      6  C   UNL     1       4.106   5.483  18.264  0.00  0.00    +0.000 A 
ATOM      7  C   UNL     1       5.273   6.378  18.115  0.00  0.00    +0.000 C 
ATOM      8  C   UNL     1       6.397   5.370  17.805  0.00  0.00    +0.000 C 
ATOM      9  C   UNL     1       7.525   5.504  18.831  0.00  0.00    +0.000 C 
ATOM     10  O   UNL     1       5.880   4.028  17.887  0.00  0.00    +0.000 OA
ENDROOT
BRANCH   1  14
ATOM     11  C   UNL     1       1.208   9.748  19.141  0.00  0.00    +0.000 A 
ATOM     12  C   UNL     1       1.566   9.286  17.877  0.00  0.00    +0.000 A 
ATOM     13  C   UNL     1       2.041   7.984  17.694  0.00  0.00    +0.000 A 
ATOM     14  C   UNL     1       2.211   7.102  18.771  0.00  0.00    +0.000 A 
ATOM     15  C   UNL     1       1.854   7.593  20.039  0.00  0.00    +0.000 A 
ATOM     16  C   UNL     1       1.354   8.889  20.226  0.00  0.00    +0.000 A 
BRANCH  11  20
ATOM     17  C   UNL     1       0.709  13.461  19.500  0.00  0.00    +0.000 C 
ATOM     18  C   UNL     1       1.410  12.217  19.038  0.00  0.00    +0.000 C 
ATOM     19  O   UNL     1       2.474  12.300  18.431  0.00  0.00    +0.000 OA
ATOM     20  N   UNL     1       0.734  11.054  19.368  0.00  0.00    +0.000 N 
ATOM     21  H   UNL     1      -0.207  11.143  19.730  0.00  0.00    +0.000 HD
ENDBRANCH  11  20
ENDBRANCH   1  14
BRANCH   8  22
ATOM     22  C   UNL     1       6.981   5.620  16.392  0.00  0.00    +0.000 C 
ATOM     23  O   UNL     1       7.787   6.523  16.165  0.00  0.00    +0.000 OA
ATOM     24  N   UNL     1       6.608   4.719  15.419  0.00  0.00    +0.000 N 
ATOM     25  H   UNL     1       5.992   3.948  15.661  0.00  0.00    +0.000 HD
BRANCH  24  26
ATOM     26  C   UNL     1       7.157   4.788  14.085  0.00  0.00    +0.000 C 
BRANCH  26  27
ATOM     27  C   UNL     1       6.370   3.953  13.144  0.00  0.00    +0.000 A 
ATOM     28  C   UNL     1       5.013   3.764  12.966  0.00  0.00    +0.000 A 
ATOM     29  C   UNL     1       4.868   2.915  11.843  0.00  0.00    +0.000 A 
ATOM     30  C   UNL     1       6.143   2.628  11.414  0.00  0.00    +0.000 A 
ATOM     31  O   UNL     1       7.063   3.250  12.199  0.00  0.00    +0.000 OA
ENDBRANCH  26  27
ENDBRANCH  24  26
ENDBRANCH   8  22
TORSDOF 5
ENDMDL
MODEL 6
REMARK VINA RESULT:      -8.6      1.285      1.701
REMARK  Name = 
REMARK  7 active torsions:
REMARK  status: ('A' for Active; 'I' for Inactive)
REMARK    1  A    between atoms: C_1  and  C_2
REMARK    2  A    between atoms: N_4  and  C_5
REMARK    3  A    between atoms: C_8  and  C_9
REMARK    4  A    between atoms: C_16  and  C_17
REMARK    5  A    between atoms: C_16  and  C_18
REMARK    6  A    between atoms: N_20  and  C_21
REMARK    7  A    between atoms: C_21  and  C_22
REMARK                            x       y       z     vdW  Elec       q    Type
REMARK                         _______ _______ _______ _____ _____    ______ ____
ROOT
ATOM      1  C   UNL     1       2.926   5.686  19.102  0.00  0.00    +0.000 A 
ATOM      2  C   UNL     1       2.064   4.611  19.394  0.00  0.00    +0.000 A 
ATOM      3  C   UNL     1       2.572   3.316  19.547  0.00  0.00    +0.000 A 
ATOM      4  N   UNL     1       3.878   3.010  19.428  0.00  0.00    +0.000 NA
ATOM      5  C   UNL     1       4.672   4.040  19.141  0.00  0.00    +0.000 A 
ATOM      6  C   UNL     1       4.273   5.356  18.969  0.00  0.00    +0.000 A 
ATOM      7  C   UNL     1       5.469   6.187  18.709  0.00  0.00    +0.000 C 
ATOM      8  C   UNL     1       6.587   5.124  18.704  0.00  0.00    +0.000 C 
ATOM      9  C   UNL     1       7.648   5.469  19.751  0.00  0.00    +0.000 C 
ATOM     10  O   UNL     1       6.032   3.837  19.041  0.00  0.00    +0.000 OA
ENDROOT
BRANCH   1  14
ATOM     11  C   UNL     1       1.284   9.689  18.785  0.00  0.00    +0.000 A 
ATOM     12  C   UNL     1       1.284   8.997  19.994  0.00  0.00    +0.000 A 
ATOM     13  C   UNL     1       1.841   7.719  20.092  0.00  0.00    +0.000 A 
ATOM     14  C   UNL     1       2.389   7.065  18.979  0.00  0.00    +0.000 A 
ATOM     15  C   UNL     1       2.369   7.777  17.767  0.00  0.00    +0.000 A 
ATOM     16  C   UNL     1       1.834   9.069  17.667  0.00  0.00    +0.000 A 
BRANCH  11  20
ATOM     17  C   UNL     1      -0.909  12.699  18.240  0.00  0.00    +0.000 C 
ATOM     18  C   UNL     1      -0.621  11.244  18.474  0.00  0.00    +0.000 C 
ATOM     19  O   UNL     1      -1.542  10.432  18.501  0.00  0.00    +0.000 OA
ATOM     20  N   UNL     1       0.726  10.974  18.644  0.00  0.00    +0.000 N 
ATOM     21  H   UNL     1       1.354  11.760  18.753  0.00  0.00    +0.000 HD
ENDBRANCH  11  20
ENDBRANCH   1  14
BRANCH   8  22
ATOM     22  C   UNL     1       7.267   5.053  17.314  0.00  0.00    +0.000 C 
ATOM     23  O   UNL     1       8.144   4.229  17.053  0.00  0.00    +0.000 OA
ATOM     24  N   UNL     1       6.774   5.914  16.359  0.00  0.00    +0.000 N 
ATOM     25  H   UNL     1       6.005   6.535  16.594  0.00  0.00    +0.000 HD
BRANCH  24  26
ATOM     26  C   UNL     1       7.260   5.882  14.999  0.00  0.00    +0.000 C 
BRANCH  26  27
ATOM     27  C   UNL     1       6.535   4.864  14.200  0.00  0.00    +0.000 A 
ATOM     28  C   UNL     1       5.284   4.291  14.325  0.00  0.00    +0.000 A 
ATOM     29  C   UNL     1       5.113   3.448  13.200  0.00  0.00    +0.000 A 
ATOM     30  C   UNL     1       6.272   3.550  12.467  0.00  0.00    +0.000 A 
ATOM     31  O   UNL     1       7.144   4.404  13.067  0.00  0.00    +0.000 OA
ENDBRANCH  26  27
ENDBRANCH  24  26
ENDBRANCH   8  22
TORSDOF 5
ENDMDL
MODEL 7
REMARK VINA RESULT:      -8.4      1.296      1.652
REMARK  Name = 
REMARK  7 active torsions:
REMARK  status: ('A' for Active; 'I' for Inactive)
REMARK    1  A    between atoms: C_1  and  C_2
REMARK    2  A    between atoms: N_4  and  C_5
REMARK    3  A    between atoms: C_8  and  C_9
REMARK    4  A    between atoms: C_16  and  C_17
REMARK    5  A    between atoms: C_16  and  C_18
REMARK    6  A    between atoms: N_20  and  C_21
REMARK    7  A    between atoms: C_21  and  C_22
REMARK                            x       y       z     vdW  Elec       q    Type
REMARK                         _______ _______ _______ _____ _____    ______ ____
ROOT
ATOM      1  C   UNL     1       2.651   5.426  18.990  0.00  0.00    +0.000 A 
ATOM      2  C   UNL     1       1.917   4.261  19.286  0.00  0.00    +0.000 A 
ATOM      3  C   UNL     1       2.421   3.000  18.950  0.00  0.00    +0.000 A 
ATOM      4  N   UNL     1       3.605   2.811  18.336  0.00  0.00    +0.000 NA
ATOM      5  C   UNL     1       4.276   3.927  18.057  0.00  0.00    +0.000 A 
ATOM      6  C   UNL     1       3.869   5.219  18.345  0.00  0.00    +0.000 A 
ATOM      7  C   UNL     1       4.925   6.160  17.910  0.00  0.00    +0.000 C 
ATOM      8  C   UNL     1       5.954   5.198  17.283  0.00  0.00    +0.000 C 
ATOM      9  C   UNL     1       7.312   5.357  17.970  0.00  0.00    +0.000 C 
ATOM     10  O   UNL     1       5.520   3.836  17.467  0.00  0.00    +0.000 OA
ENDROOT
BRANCH   1  14
ATOM     11  C   UNL     1       1.062   9.285  20.174  0.00  0.00    +0.000 A 
ATOM     12  C   UNL     1       1.094   8.210  21.059  0.00  0.00    +0.000 A 
ATOM     13  C   UNL     1       1.634   6.979  20.677  0.00  0.00    +0.000 A 
ATOM     14  C   UNL     1       2.132   6.760  19.384  0.00  0.00    +0.000 A 
ATOM     15  C   UNL     1       2.080   7.854  18.504  0.00  0.00    +0.000 A 
ATOM     16  C   UNL     1       1.562   9.099  18.888  0.00  0.00    +0.000 A 
BRANCH  11  20
ATOM     17  C   UNL     1      -0.458  12.291  21.851  0.00  0.00    +0.000 C 
ATOM     18  C   UNL     1       0.210  10.948  21.803  0.00  0.00    +0.000 C 
ATOM     19  O   UNL     1       0.430  10.333  22.843  0.00  0.00    +0.000 OA
ATOM     20  N   UNL     1       0.519  10.537  20.517  0.00  0.00    +0.000 N 
ATOM     21  H   UNL     1       0.421  11.214  19.770  0.00  0.00    +0.000 HD
ENDBRANCH  11  20
ENDBRANCH   1  14
BRANCH   8  22
ATOM     22  C   UNL     1       6.127   5.492  15.771  0.00  0.00    +0.000 C 
ATOM     23  O   UNL     1       5.668   6.505  15.243  0.00  0.00    +0.000 OA
ATOM     24  N   UNL     1       6.898   4.592  15.069  0.00  0.00    +0.000 N 
ATOM     25  H   UNL     1       7.313   3.803  15.555  0.00  0.00    +0.000 HD
BRANCH  24  26
ATOM     26  C   UNL     1       7.211   4.803  13.674  0.00  0.00    +0.000 C 
BRANCH  26  27
ATOM     27  C   UNL     1       6.399   3.915  12.808  0.00  0.00    +0.000 A 
ATOM     28  C   UNL     1       6.727   2.871  11.965  0.00  0.00    +0.000 A 
ATOM     29  C   UNL     1       5.506   2.346  11.479  0.00  0.00    +0.000 A 
ATOM     30  C   UNL     1       4.511   3.109  12.044  0.00  0.00    +0.000 A 
ATOM     31  O   UNL     1       5.042   4.066  12.850  0.00  0.00    +0.000 OA
ENDBRANCH  26  27
ENDBRANCH  24  26
ENDBRANCH   8  22
TORSDOF 5
ENDMDL
MODEL 8
REMARK VINA RESULT:      -8.1      1.130      1.558
REMARK  Name = 
REMARK  7 active torsions:
REMARK  status: ('A' for Active; 'I' for Inactive)
REMARK    1  A    between atoms: C_1  and  C_2
REMARK    2  A    between atoms: N_4  and  C_5
REMARK    3  A    between atoms: C_8  and  C_9
REMARK    4  A    between atoms: C_16  and  C_17
REMARK    5  A    between atoms: C_16  and  C_18
REMARK    6  A    between atoms: N_20  and  C_21
REMARK    7  A    between atoms: C_21  and  C_22
REMARK                            x       y       z     vdW  Elec       q    Type
REMARK                         _______ _______ _______ _____ _____    ______ ____
ROOT
ATOM      1  C   UNL     1       2.864   5.159  17.883  0.00  0.00    +0.000 A 
ATOM      2  C   UNL     1       1.969   4.074  17.940  0.00  0.00    +0.000 A 
ATOM      3  C   UNL     1       2.385   2.791  17.567  0.00  0.00    +0.000 A 
ATOM      4  N   UNL     1       3.629   2.508  17.136  0.00  0.00    +0.000 NA
ATOM      5  C   UNL     1       4.455   3.552  17.081  0.00  0.00    +0.000 A 
ATOM      6  C   UNL     1       4.145   4.858  17.425  0.00  0.00    +0.000 A 
ATOM      7  C   UNL     1       5.354   5.693  17.262  0.00  0.00    +0.000 C 
ATOM      8  C   UNL     1       6.367   4.666  16.717  0.00  0.00    +0.000 C 
ATOM      9  C   UNL     1       7.596   4.603  17.626  0.00  0.00    +0.000 C 
ATOM     10  O   UNL     1       5.764   3.357  16.693  0.00  0.00    +0.000 OA
ENDROOT
BRANCH   1  14
ATOM     11  C   UNL     1       1.536   9.073  19.205  0.00  0.00    +0.000 A 
ATOM     12  C   UNL     1       1.793   8.047  20.112  0.00  0.00    +0.000 A 
ATOM     13  C   UNL     1       2.246   6.799  19.678  0.00  0.00    +0.000 A 
ATOM     14  C   UNL     1       2.431   6.511  18.318  0.00  0.00    +0.000 A 
ATOM     15  C   UNL     1       2.156   7.556  17.419  0.00  0.00    +0.000 A 
ATOM     16  C   UNL     1       1.724   8.818  17.849  0.00  0.00    +0.000 A 
BRANCH  11  20
ATOM     17  C   UNL     1       0.909  12.739  19.775  0.00  0.00    +0.000 C 
ATOM     18  C   UNL     1       1.506  11.548  19.083  0.00  0.00    +0.000 C 
ATOM     19  O   UNL     1       2.294  11.708  18.155  0.00  0.00    +0.000 OA
ATOM     20  N   UNL     1       1.070  10.340  19.600  0.00  0.00    +0.000 N 
ATOM     21  H   UNL     1       0.302  10.360  20.259  0.00  0.00    +0.000 HD
ENDBRANCH  11  20
ENDBRANCH   1  14
BRANCH   8  22
ATOM     22  C   UNL     1       6.827   5.056  15.290  0.00  0.00    +0.000 C 
ATOM     23  O   UNL     1       7.809   5.772  15.089  0.00  0.00    +0.000 OA
ATOM     24  N   UNL     1       6.121   4.485  14.254  0.00  0.00    +0.000 N 
ATOM     25  H   UNL     1       5.358   3.847  14.460  0.00  0.00    +0.000 HD
BRANCH  24  26
ATOM     26  C   UNL     1       6.509   4.695  12.878  0.00  0.00    +0.000 C 
BRANCH  26  27
ATOM     27  C   UNL     1       6.478   3.422  12.118  0.00  0.00    +0.000 A 
ATOM     28  C   UNL     1       7.470   2.635  11.565  0.00  0.00    +0.000 A 
ATOM     29  C   UNL     1       6.829   1.486  11.043  0.00  0.00    +0.000 A 
ATOM     30  C   UNL     1       5.487   1.649  11.297  0.00  0.00    +0.000 A 
ATOM     31  O   UNL     1       5.263   2.822  11.947  0.00  0.00    +0.000 OA
ENDBRANCH  26  27
ENDBRANCH  24  26
ENDBRANCH   8  22
TORSDOF 5
ENDMDL
MODEL 9
REMARK VINA RESULT:      -8.0      1.122      1.570
REMARK  Name = 
REMARK  7 active torsions:
REMARK  status: ('A' for Active; 'I' for Inactive)
REMARK    1  A    between atoms: C_1  and  C_2
REMARK    2  A    between atoms: N_4  and  C_5
REMARK    3  A    between atoms: C_8  and  C_9
REMARK    4  A    between atoms: C_16  and  C_17
REMARK    5  A    between atoms: C_16  and  C_18
REMARK    6  A    between atoms: N_20  and  C_21
REMARK    7  A    between atoms: C_21  and  C_22
REMARK                            x       y       z     vdW  Elec       q    Type
REMARK                         _______ _______ _______ _____ _____    ______ ____
ROOT
ATOM      1  C   UNL     1       2.737   5.039  18.296  0.00  0.00    +0.000 A 
ATOM      2  C   UNL     1       1.923   3.935  18.613  0.00  0.00    +0.000 A 
ATOM      3  C   UNL     1       2.299   2.642  18.232  0.00  0.00    +0.000 A 
ATOM      4  N   UNL     1       3.430   2.366  17.553  0.00  0.00    +0.000 NA
ATOM      5  C   UNL     1       4.178   3.427  17.255  0.00  0.00    +0.000 A 
ATOM      6  C   UNL     1       3.897   4.744  17.583  0.00  0.00    +0.000 A 
ATOM      7  C   UNL     1       5.005   5.600  17.106  0.00  0.00    +0.000 C 
ATOM      8  C   UNL     1       5.915   4.568  16.411  0.00  0.00    +0.000 C 
ATOM      9  C   UNL     1       7.315   4.599  17.027  0.00  0.00    +0.000 C 
ATOM     10  O   UNL     1       5.377   3.244  16.599  0.00  0.00    +0.000 OA
ENDROOT
BRANCH   1  14
ATOM     11  C   UNL     1       1.548   8.993  19.626  0.00  0.00    +0.000 A 
ATOM     12  C   UNL     1       1.649   7.927  20.517  0.00  0.00    +0.000 A 
ATOM     13  C   UNL     1       2.059   6.663  20.083  0.00  0.00    +0.000 A 
ATOM     14  C   UNL     1       2.354   6.404  18.736  0.00  0.00    +0.000 A 
ATOM     15  C   UNL     1       2.235   7.492  17.854  0.00  0.00    +0.000 A 
ATOM     16  C   UNL     1       1.848   8.767  18.286  0.00  0.00    +0.000 A 
BRANCH  11  20
ATOM     17  C   UNL     1      -0.150  12.005  21.113  0.00  0.00    +0.000 C 
ATOM     18  C   UNL     1       0.167  10.544  20.981  0.00  0.00    +0.000 C 
ATOM     19  O   UNL     1      -0.410   9.723  21.689  0.00  0.00    +0.000 OA
ATOM     20  N   UNL     1       1.130  10.278  20.022  0.00  0.00    +0.000 N 
ATOM     21  H   UNL     1       1.630  11.064  19.626  0.00  0.00    +0.000 HD
ENDBRANCH  11  20
ENDBRANCH   1  14
BRANCH   8  22
ATOM     22  C   UNL     1       6.034   4.875  14.897  0.00  0.00    +0.000 C 
ATOM     23  O   UNL     1       6.858   5.674  14.452  0.00  0.00    +0.000 OA
ATOM     24  N   UNL     1       5.216   4.138  14.069  0.00  0.00    +0.000 N 
ATOM     25  H   UNL     1       4.595   3.441  14.469  0.00  0.00    +0.000 HD
BRANCH  24  26
ATOM     26  C   UNL     1       5.297   4.264  12.632  0.00  0.00    +0.000 C 
BRANCH  26  27
ATOM     27  C   UNL     1       5.904   3.054  12.026  0.00  0.00    +0.000 A 
ATOM     28  C   UNL     1       5.369   1.868  11.563  0.00  0.00    +0.000 A 
ATOM     29  C   UNL     1       6.442   1.131  11.007  0.00  0.00    +0.000 A 
ATOM     30  C   UNL     1       7.565   1.906  11.177  0.00  0.00    +0.000 A 
ATOM     31  O   UNL     1       7.251   3.074  11.798  0.00  0.00    +0.000 OA
ENDBRANCH  26  27
ENDBRANCH  24  26
ENDBRANCH   8  22
TORSDOF 5
ENDMDL
