MODEL 1
REMARK VINA RESULT:      -9.1      0.000      0.000
REMARK  Name = 
REMARK  7 active torsions:
REMARK  status: ('A' for Active; 'I' for Inactive)
REMARK    1  A    between atoms: C_1  and  O_2
REMARK    2  A    between atoms: O_2  and  C_3
REMARK    3  A    between atoms: C_5  and  C_6
REMARK    4  A    between atoms: C_6  and  C_7
REMARK    5  A    between atoms: C_12  and  C_13
REMARK    6  A    between atoms: C_13  and  C_14
REMARK    7  A    between atoms: C_25  and  O_26
REMARK                            x       y       z     vdW  Elec       q    Type
REMARK                         _______ _______ _______ _____ _____    ______ ____
ROOT
ATOM      1  C   UNL     1       2.420   4.268  20.044  0.00  0.00    +0.000 C 
ATOM      2  C   UNL     1       2.259   3.019  20.881  0.00  0.00    +0.000 C 
ATOM      3  O   UNL     1       2.806   2.795  21.950  0.00  0.00    +0.000 OA
ATOM      4  O   UNL     1       1.424   2.132  20.278  0.00  0.00    +0.000 OA
ATOM      5  C   UNL     1       0.858   2.718  19.111  0.00  0.00    +0.000 C 
ATOM      6  C   UNL     1       1.779   3.855  18.715  0.00  0.00    +0.000 C 
ENDROOT
BRANCH   1   7
ATOM      7  C   UNL     1       1.759   5.492  20.692  0.00  0.00    +0.000 C 
BRANCH   7  10
ATOM      8  C   UNL     1       1.463   9.146  19.552  0.00  0.00    +0.000 A 
ATOM      9  C   UNL     1       1.435   7.987  20.344  0.00  0.00    +0.000 A 
ATOM     10  C   UNL     1       1.929   6.758  19.879  0.00  0.00    +0.000 A 
ATOM     11  C   UNL     1       2.532   6.718  18.619  0.00  0.00    +0.000 A 
ATOM     12  C   UNL     1       2.585   7.867  17.825  0.00  0.00    +0.000 A 
ATOM     13  C   UNL     1       2.039   9.072  18.282  0.00  0.00    +0.000 A 
BRANCH   8  15
ATOM     14  C   UNL     1      -0.524  10.406  20.002  0.00  0.00    +0.000 C 
ATOM     15  O   UNL     1       0.874  10.221  20.164  0.00  0.00    +0.000 OA
ENDBRANCH   8  15
BRANCH  13  16
ATOM     16  O   UNL     1       2.087  10.157  17.449  0.00  0.00    +0.000 OA
ATOM     17  H   UNL     1       2.993  10.257  17.118  0.00  0.00    +0.000 HD
ENDBRANCH  13  16
ENDBRANCH   7  10
ENDBRANCH   1   7
BRANCH   6  18
ATOM     18  C   UNL     1       2.837   3.360  17.700  0.00  0.00    +0.000 C 
BRANCH  18  19
ATOM     19  C   UNL     1       4.106   4.185  17.689  0.00  0.00    +0.000 A 
ATOM     20  C   UNL     1       4.448   4.953  16.551  0.00  0.00    +0.000 A 
ATOM     21  C   UNL     1       5.614   5.727  16.522  0.00  0.00    +0.000 A 
ATOM     22  C   UNL     1       6.414   5.723  17.645  0.00  0.00    +0.000 A 
ATOM     23  C   UNL     1       6.087   4.990  18.760  0.00  0.00    +0.000 A 
ATOM     24  C   UNL     1       4.946   4.216  18.816  0.00  0.00    +0.000 A 
ATOM     25  O   UNL     1       6.999   5.131  19.758  0.00  0.00    +0.000 OA
ATOM     26  C   UNL     1       7.941   6.033  19.140  0.00  0.00    +0.000 C 
ATOM     27  O   UNL     1       7.574   6.416  17.799  0.00  0.00    +0.000 OA
ENDBRANCH  18  19
ENDBRANCH   6  18
TORSDOF 6
ENDMDL
MODEL 2
REMARK VINA RESULT:      -8.8      1.536      2.151
REMARK  Name = 
REMARK  7 active torsions:
REMARK  status: ('A' for Active; 'I' for Inactive)
REMARK    1  A    between atoms: C_1  and  O_2
REMARK    2  A    between atoms: O_2  and  C_3
REMARK    3  A    between atoms: C_5  and  C_6
REMARK    4  A    between atoms: C_6  and  C_7
REMARK    5  A    between atoms: C_12  and  C_13
REMARK    6  A    between atoms: C_13  and  C_14
REMARK    7  A    between atoms: C_25  and  O_26
REMARK                            x       y       z     vdW  Elec       q    Type
REMARK                         _______ _______ _______ _____ _____    ______ ____
ROOT
ATOM      1  C   UNL     1       2.725   4.599  20.618  0.00  0.00    +0.000 C 
ATOM      2  C   UNL     1       2.403   3.251  21.222  0.00  0.00    +0.000 C 
ATOM      3  O   UNL     1       2.065   3.044  22.378  0.00  0.00    +0.000 OA
ATOM      4  O   UNL     1       2.555   2.257  20.308  0.00  0.00    +0.000 OA
ATOM      5  C   UNL     1       2.841   2.817  19.030  0.00  0.00    +0.000 C 
ATOM      6  C   UNL     1       3.375   4.213  19.285  0.00  0.00    +0.000 C 
ENDROOT
BRANCH   1   7
ATOM      7  C   UNL     1       1.478   5.480  20.463  0.00  0.00    +0.000 C 
BRANCH   7  10
ATOM      8  C   UNL     1       1.470   9.207  19.540  0.00  0.00    +0.000 A 
ATOM      9  C   UNL     1       1.343   8.009  20.261  0.00  0.00    +0.000 A 
ATOM     10  C   UNL     1       1.756   6.776  19.730  0.00  0.00    +0.000 A 
ATOM     11  C   UNL     1       2.379   6.766  18.479  0.00  0.00    +0.000 A 
ATOM     12  C   UNL     1       2.530   7.953  17.757  0.00  0.00    +0.000 A 
ATOM     13  C   UNL     1       2.064   9.166  18.276  0.00  0.00    +0.000 A 
BRANCH   8  15
ATOM     14  C   UNL     1      -0.388  10.669  19.925  0.00  0.00    +0.000 C 
ATOM     15  O   UNL     1       0.949  10.284  20.207  0.00  0.00    +0.000 OA
ENDBRANCH   8  15
BRANCH  13  16
ATOM     16  O   UNL     1       2.206  10.292  17.511  0.00  0.00    +0.000 OA
ATOM     17  H   UNL     1       1.351  10.749  17.466  0.00  0.00    +0.000 HD
ENDBRANCH  13  16
ENDBRANCH   7  10
ENDBRANCH   1   7
BRANCH   6  18
ATOM     18  C   UNL     1       4.919   4.187  19.389  0.00  0.00    +0.000 C 
BRANCH  18  19
ATOM     19  C   UNL     1       5.623   4.603  18.114  0.00  0.00    +0.000 A 
ATOM     20  C   UNL     1       6.507   5.709  18.116  0.00  0.00    +0.000 A 
ATOM     21  C   UNL     1       7.171   6.107  16.951  0.00  0.00    +0.000 A 
ATOM     22  C   UNL     1       6.943   5.380  15.802  0.00  0.00    +0.000 A 
ATOM     23  C   UNL     1       6.096   4.298  15.791  0.00  0.00    +0.000 A 
ATOM     24  C   UNL     1       5.425   3.885  16.923  0.00  0.00    +0.000 A 
ATOM     25  O   UNL     1       6.017   3.715  14.565  0.00  0.00    +0.000 OA
ATOM     26  C   UNL     1       6.909   4.558  13.806  0.00  0.00    +0.000 C 
ATOM     27  O   UNL     1       7.503   5.616  14.586  0.00  0.00    +0.000 OA
ENDBRANCH  18  19
ENDBRANCH   6  18
TORSDOF 6
ENDMDL
MODEL 3
REMARK VINA RESULT:      -8.8      1.537      2.160
REMARK  Name = 
REMARK  7 active torsions:
REMARK  status: ('A' for Active; 'I' for Inactive)
REMARK    1  A    between atoms: C_1  and  O_2
REMARK    2  A    between atoms: O_2  and  C_3
REMARK    3  A    between atoms: C_5  and  C_6
REMARK    4  A    between atoms: C_6  and  C_7
REMARK    5  A    between atoms: C_12  and  C_13
REMARK    6  A    between atoms: C_13  and  C_14
REMARK    7  A    between atoms: C_25  and  O_26
REMARK                            x       y       z     vdW  Elec       q    Type
REMARK                         _______ _______ _______ _____ _____    ______ ____
ROOT
ATOM      1  C   UNL     1       3.760   3.922  19.028  0.00  0.00    +0.000 C 
ATOM      2  C   UNL     1       4.141   2.533  19.486  0.00  0.00    +0.000 C 
ATOM      3  O   UNL     1       4.738   2.254  20.516  0.00  0.00    +0.000 OA
ATOM      4  O   UNL     1       3.751   1.596  18.583  0.00  0.00    +0.000 OA
ATOM      5  C   UNL     1       2.985   2.210  17.552  0.00  0.00    +0.000 C 
ATOM      6  C   UNL     1       3.343   3.683  17.573  0.00  0.00    +0.000 C 
ENDROOT
BRANCH   1   7
ATOM      7  C   UNL     1       2.651   4.536  19.893  0.00  0.00    +0.000 C 
BRANCH   7  10
ATOM      8  C   UNL     1       1.618   8.208  20.330  0.00  0.00    +0.000 A 
ATOM      9  C   UNL     1       1.970   6.877  20.606  0.00  0.00    +0.000 A 
ATOM     10  C   UNL     1       2.414   6.003  19.601  0.00  0.00    +0.000 A 
ATOM     11  C   UNL     1       2.579   6.506  18.307  0.00  0.00    +0.000 A 
ATOM     12  C   UNL     1       2.250   7.833  18.020  0.00  0.00    +0.000 A 
ATOM     13  C   UNL     1       1.756   8.677  19.021  0.00  0.00    +0.000 A 
BRANCH   8  15
ATOM     14  C   UNL     1      -0.246   8.837  21.696  0.00  0.00    +0.000 C 
ATOM     15  O   UNL     1       1.148   8.872  21.432  0.00  0.00    +0.000 OA
ENDBRANCH   8  15
BRANCH  13  16
ATOM     16  O   UNL     1       1.418   9.957  18.677  0.00  0.00    +0.000 OA
ATOM     17  H   UNL     1       1.751  10.139  17.783  0.00  0.00    +0.000 HD
ENDBRANCH  13  16
ENDBRANCH   7  10
ENDBRANCH   1   7
BRANCH   6  18
ATOM     18  C   UNL     1       4.505   3.967  16.592  0.00  0.00    +0.000 C 
BRANCH  18  19
ATOM     19  C   UNL     1       5.570   4.884  17.156  0.00  0.00    +0.000 A 
ATOM     20  C   UNL     1       6.528   4.386  18.070  0.00  0.00    +0.000 A 
ATOM     21  C   UNL     1       7.524   5.215  18.600  0.00  0.00    +0.000 A 
ATOM     22  C   UNL     1       7.545   6.532  18.193  0.00  0.00    +0.000 A 
ATOM     23  C   UNL     1       6.627   7.024  17.297  0.00  0.00    +0.000 A 
ATOM     24  C   UNL     1       5.632   6.231  16.761  0.00  0.00    +0.000 A 
ATOM     25  O   UNL     1       6.827   8.340  17.020  0.00  0.00    +0.000 OA
ATOM     26  C   UNL     1       7.975   8.620  17.850  0.00  0.00    +0.000 C 
ATOM     27  O   UNL     1       8.438   7.475  18.595  0.00  0.00    +0.000 OA
ENDBRANCH  18  19
ENDBRANCH   6  18
TORSDOF 6
ENDMDL
MODEL 4
REMARK VINA RESULT:      -8.8      0.774      1.412
REMARK  Name = 
REMARK  7 active torsions:
REMARK  status: ('A' for Active; 'I' for Inactive)
REMARK    1  A    between atoms: C_1  and  O_2
REMARK    2  A    between atoms: O_2  and  C_3
REMARK    3  A    between atoms: C_5  and  C_6
REMARK    4  A    between atoms: C_6  and  C_7
REMARK    5  A    between atoms: C_12  and  C_13
REMARK    6  A    between atoms: C_13  and  C_14
REMARK    7  A    between atoms: C_25  and  O_26
REMARK                            x       y       z     vdW  Elec       q    Type
REMARK                         _______ _______ _______ _____ _____    ______ ____
ROOT
ATOM      1  C   UNL     1       2.475   4.429  20.065  0.00  0.00    +0.000 C 
ATOM      2  C   UNL     1       2.285   3.148  20.845  0.00  0.00    +0.000 C 
ATOM      3  O   UNL     1       2.712   2.919  21.967  0.00  0.00    +0.000 OA
ATOM      4  O   UNL     1       1.578   2.238  20.125  0.00  0.00    +0.000 OA
ATOM      5  C   UNL     1       1.123   2.831  18.913  0.00  0.00    +0.000 C 
ATOM      6  C   UNL     1       2.021   4.026  18.659  0.00  0.00    +0.000 C 
ENDROOT
BRANCH   1   7
ATOM      7  C   UNL     1       1.674   5.596  20.660  0.00  0.00    +0.000 C 
BRANCH   7  10
ATOM      8  C   UNL     1       1.395   9.287  19.640  0.00  0.00    +0.000 A 
ATOM      9  C   UNL     1       1.375   8.105  20.398  0.00  0.00    +0.000 A 
ATOM     10  C   UNL     1       1.837   6.884  19.880  0.00  0.00    +0.000 A 
ATOM     11  C   UNL     1       2.400   6.875  18.600  0.00  0.00    +0.000 A 
ATOM     12  C   UNL     1       2.443   8.047  17.841  0.00  0.00    +0.000 A 
ATOM     13  C   UNL     1       1.929   9.245  18.350  0.00  0.00    +0.000 A 
BRANCH   8  15
ATOM     14  C   UNL     1       0.078  10.092  21.472  0.00  0.00    +0.000 C 
ATOM     15  O   UNL     1       0.840  10.350  20.303  0.00  0.00    +0.000 OA
ENDBRANCH   8  15
BRANCH  13  16
ATOM     16  O   UNL     1       1.966  10.354  17.550  0.00  0.00    +0.000 OA
ATOM     17  H   UNL     1       2.551  11.013  17.957  0.00  0.00    +0.000 HD
ENDBRANCH  13  16
ENDBRANCH   7  10
ENDBRANCH   1   7
BRANCH   6  18
ATOM     18  C   UNL     1       3.218   3.618  17.766  0.00  0.00    +0.000 C 
BRANCH  18  19
ATOM     19  C   UNL     1       4.453   4.469  17.976  0.00  0.00    +0.000 A 
ATOM     20  C   UNL     1       5.262   4.280  19.122  0.00  0.00    +0.000 A 
ATOM     21  C   UNL     1       6.410   5.051  19.333  0.00  0.00    +0.000 A 
ATOM     22  C   UNL     1       6.732   5.996  18.382  0.00  0.00    +0.000 A 
ATOM     23  C   UNL     1       5.960   6.181  17.260  0.00  0.00    +0.000 A 
ATOM     24  C   UNL     1       4.821   5.437  17.027  0.00  0.00    +0.000 A 
ATOM     25  O   UNL     1       6.454   7.151  16.445  0.00  0.00    +0.000 OA
ATOM     26  C   UNL     1       7.623   7.558  17.187  0.00  0.00    +0.000 C 
ATOM     27  O   UNL     1       7.808   6.827  18.416  0.00  0.00    +0.000 OA
ENDBRANCH  18  19
ENDBRANCH   6  18
TORSDOF 6
ENDMDL
MODEL 5
REMARK VINA RESULT:      -8.5      1.547      6.054
REMARK  Name = 
REMARK  7 active torsions:
REMARK  status: ('A' for Active; 'I' for Inactive)
REMARK    1  A    between atoms: C_1  and  O_2
REMARK    2  A    between atoms: O_2  and  C_3
REMARK    3  A    between atoms: C_5  and  C_6
REMARK    4  A    between atoms: C_6  and  C_7
REMARK    5  A    between atoms: C_12  and  C_13
REMARK    6  A    between atoms: C_13  and  C_14
REMARK    7  A    between atoms: C_25  and  O_26
REMARK                            x       y       z     vdW  Elec       q    Type
REMARK                         _______ _______ _______ _____ _____    ______ ____
ROOT
ATOM      1  C   UNL     1       5.678   4.641  17.017  0.00  0.00    +0.000 C 
ATOM      2  C   UNL     1       7.097   4.637  16.497  0.00  0.00    +0.000 C 
ATOM      3  O   UNL     1       8.077   4.206  17.086  0.00  0.00    +0.000 OA
ATOM      4  O   UNL     1       7.167   5.206  15.265  0.00  0.00    +0.000 OA
ATOM      5  C   UNL     1       5.857   5.505  14.796  0.00  0.00    +0.000 C 
ATOM      6  C   UNL     1       4.968   5.566  16.024  0.00  0.00    +0.000 C 
ENDROOT
BRANCH   1   7
ATOM      7  C   UNL     1       5.078   3.230  17.082  0.00  0.00    +0.000 C 
BRANCH   7  10
ATOM      8  C   UNL     1       2.418   2.663  19.791  0.00  0.00    +0.000 A 
ATOM      9  C   UNL     1       3.653   2.838  19.148  0.00  0.00    +0.000 A 
ATOM     10  C   UNL     1       3.740   3.187  17.790  0.00  0.00    +0.000 A 
ATOM     11  C   UNL     1       2.556   3.436  17.091  0.00  0.00    +0.000 A 
ATOM     12  C   UNL     1       1.319   3.283  17.722  0.00  0.00    +0.000 A 
ATOM     13  C   UNL     1       1.247   2.882  19.061  0.00  0.00    +0.000 A 
BRANCH   8  15
ATOM     14  C   UNL     1       2.161   3.162  22.120  0.00  0.00    +0.000 C 
ATOM     15  O   UNL     1       2.551   2.262  21.094  0.00  0.00    +0.000 OA
ENDBRANCH   8  15
BRANCH  13  16
ATOM     16  O   UNL     1       0.009   2.715  19.619  0.00  0.00    +0.000 OA
ATOM     17  H   UNL     1       0.095   2.159  20.410  0.00  0.00    +0.000 HD
ENDBRANCH  13  16
ENDBRANCH   7  10
ENDBRANCH   1   7
BRANCH   6  18
ATOM     18  C   UNL     1       4.884   7.018  16.554  0.00  0.00    +0.000 C 
BRANCH  18  19
ATOM     19  C   UNL     1       3.877   7.203  17.669  0.00  0.00    +0.000 A 
ATOM     20  C   UNL     1       3.818   6.276  18.736  0.00  0.00    +0.000 A 
ATOM     21  C   UNL     1       2.898   6.430  19.780  0.00  0.00    +0.000 A 
ATOM     22  C   UNL     1       2.058   7.523  19.738  0.00  0.00    +0.000 A 
ATOM     23  C   UNL     1       2.114   8.435  18.712  0.00  0.00    +0.000 A 
ATOM     24  C   UNL     1       3.008   8.307  17.669  0.00  0.00    +0.000 A 
ATOM     25  O   UNL     1       1.211   9.441  18.863  0.00  0.00    +0.000 OA
ATOM     26  C   UNL     1       0.577   9.051  20.100  0.00  0.00    +0.000 C 
ATOM     27  O   UNL     1       1.112   7.836  20.662  0.00  0.00    +0.000 OA
ENDBRANCH  18  19
ENDBRANCH   6  18
TORSDOF 6
ENDMDL
MODEL 6
REMARK VINA RESULT:      -8.4      1.330      5.229
REMARK  Name = 
REMARK  7 active torsions:
REMARK  status: ('A' for Active; 'I' for Inactive)
REMARK    1  A    between atoms: C_1  and  O_2
REMARK    2  A    between atoms: O_2  and  C_3
REMARK    3  A    between atoms: C_5  and  C_6
REMARK    4  A    between atoms: C_6  and  C_7
REMARK    5  A    between atoms: C_12  and  C_13
REMARK    6  A    between atoms: C_13  and  C_14
REMARK    7  A    between atoms: C_25  and  O_26
REMARK                            x       y       z     vdW  Elec       q    Type
REMARK                         _______ _______ _______ _____ _____    ______ ____
ROOT
ATOM      1  C   UNL     1       3.093   3.951  19.515  0.00  0.00    +0.000 C 
ATOM      2  C   UNL     1       2.369   2.629  19.403  0.00  0.00    +0.000 C 
ATOM      3  O   UNL     1       2.246   1.961  18.388  0.00  0.00    +0.000 OA
ATOM      4  O   UNL     1       1.834   2.263  20.598  0.00  0.00    +0.000 OA
ATOM      5  C   UNL     1       2.242   3.179  21.609  0.00  0.00    +0.000 C 
ATOM      6  C   UNL     1       2.651   4.451  20.894  0.00  0.00    +0.000 C 
ENDROOT
BRANCH   1   7
ATOM      7  C   UNL     1       4.614   3.796  19.375  0.00  0.00    +0.000 C 
BRANCH   7  10
ATOM      8  C   UNL     1       6.194   6.099  16.741  0.00  0.00    +0.000 A 
ATOM      9  C   UNL     1       5.812   5.542  17.971  0.00  0.00    +0.000 A 
ATOM     10  C   UNL     1       5.143   4.310  18.052  0.00  0.00    +0.000 A 
ATOM     11  C   UNL     1       4.923   3.594  16.872  0.00  0.00    +0.000 A 
ATOM     12  C   UNL     1       5.313   4.128  15.640  0.00  0.00    +0.000 A 
ATOM     13  C   UNL     1       5.931   5.382  15.572  0.00  0.00    +0.000 A 
BRANCH   8  15
ATOM     14  C   UNL     1       7.752   7.511  17.889  0.00  0.00    +0.000 C 
ATOM     15  O   UNL     1       6.774   7.333  16.875  0.00  0.00    +0.000 OA
ENDBRANCH   8  15
BRANCH  13  16
ATOM     16  O   UNL     1       6.260   5.871  14.337  0.00  0.00    +0.000 OA
ATOM     17  H   UNL     1       5.703   6.643  14.148  0.00  0.00    +0.000 HD
ENDBRANCH  13  16
ENDBRANCH   7  10
ENDBRANCH   1   7
BRANCH   6  18
ATOM     18  C   UNL     1       1.449   5.421  20.792  0.00  0.00    +0.000 C 
BRANCH  18  19
ATOM     19  C   UNL     1       1.707   6.621  19.906  0.00  0.00    +0.000 A 
ATOM     20  C   UNL     1       2.369   6.461  18.665  0.00  0.00    +0.000 A 
ATOM     21  C   UNL     1       2.612   7.556  17.828  0.00  0.00    +0.000 A 
ATOM     22  C   UNL     1       2.177   8.794  18.248  0.00  0.00    +0.000 A 
ATOM     23  C   UNL     1       1.523   8.959  19.446  0.00  0.00    +0.000 A 
ATOM     24  C   UNL     1       1.272   7.900  20.293  0.00  0.00    +0.000 A 
ATOM     25  O   UNL     1       1.169  10.253  19.669  0.00  0.00    +0.000 OA
ATOM     26  C   UNL     1       1.680  10.884  18.475  0.00  0.00    +0.000 C 
ATOM     27  O   UNL     1       2.319   9.962  17.567  0.00  0.00    +0.000 OA
ENDBRANCH  18  19
ENDBRANCH   6  18
TORSDOF 6
ENDMDL
MODEL 7
REMARK VINA RESULT:      -8.4      1.000      5.421
REMARK  Name = 
REMARK  7 active torsions:
REMARK  status: ('A' for Active; 'I' for Inactive)
REMARK    1  A    between atoms: C_1  and  O_2
REMARK    2  A    between atoms: O_2  and  C_3
REMARK    3  A    between atoms: C_5  and  C_6
REMARK    4  A    between atoms: C_6  and  C_7
REMARK    5  A    between atoms: C_12  and  C_13
REMARK    6  A    between atoms: C_13  and  C_14
REMARK    7  A    between atoms: C_25  and  O_26
REMARK                            x       y       z     vdW  Elec       q    Type
REMARK                         _______ _______ _______ _____ _____    ______ ____
ROOT
ATOM      1  C   UNL     1       2.121   3.731  18.906  0.00  0.00    +0.000 C 
ATOM      2  C   UNL     1       1.138   2.642  19.268  0.00  0.00    +0.000 C 
ATOM      3  O   UNL     1       0.310   2.143  18.520  0.00  0.00    +0.000 OA
ATOM      4  O   UNL     1       1.267   2.281  20.572  0.00  0.00    +0.000 OA
ATOM      5  C   UNL     1       2.382   2.951  21.150  0.00  0.00    +0.000 C 
ATOM      6  C   UNL     1       2.652   4.161  20.277  0.00  0.00    +0.000 C 
ENDROOT
BRANCH   1   7
ATOM      7  C   UNL     1       3.215   3.234  17.951  0.00  0.00    +0.000 C 
BRANCH   7  10
ATOM      8  C   UNL     1       6.013   5.437  16.519  0.00  0.00    +0.000 A 
ATOM      9  C   UNL     1       4.839   4.676  16.635  0.00  0.00    +0.000 A 
ATOM     10  C   UNL     1       4.402   4.171  17.870  0.00  0.00    +0.000 A 
ATOM     11  C   UNL     1       5.124   4.505  19.019  0.00  0.00    +0.000 A 
ATOM     12  C   UNL     1       6.285   5.277  18.922  0.00  0.00    +0.000 A 
ATOM     13  C   UNL     1       6.738   5.728  17.677  0.00  0.00    +0.000 A 
BRANCH   8  15
ATOM     14  C   UNL     1       6.602   4.740  14.304  0.00  0.00    +0.000 C 
ATOM     15  O   UNL     1       6.298   5.779  15.223  0.00  0.00    +0.000 OA
ENDBRANCH   8  15
BRANCH  13  16
ATOM     16  O   UNL     1       7.899   6.451  17.637  0.00  0.00    +0.000 OA
ATOM     17  H   UNL     1       8.421   6.162  16.871  0.00  0.00    +0.000 HD
ENDBRANCH  13  16
ENDBRANCH   7  10
ENDBRANCH   1   7
BRANCH   6  18
ATOM     18  C   UNL     1       1.894   5.395  20.823  0.00  0.00    +0.000 C 
BRANCH  18  19
ATOM     19  C   UNL     1       1.978   6.610  19.922  0.00  0.00    +0.000 A 
ATOM     20  C   UNL     1       2.549   6.502  18.632  0.00  0.00    +0.000 A 
ATOM     21  C   UNL     1       2.632   7.610  17.781  0.00  0.00    +0.000 A 
ATOM     22  C   UNL     1       2.129   8.809  18.240  0.00  0.00    +0.000 A 
ATOM     23  C   UNL     1       1.563   8.923  19.486  0.00  0.00    +0.000 A 
ATOM     24  C   UNL     1       1.471   7.849  20.347  0.00  0.00    +0.000 A 
ATOM     25  O   UNL     1       1.121  10.184  19.741  0.00  0.00    +0.000 OA
ATOM     26  C   UNL     1       1.480  10.851  18.512  0.00  0.00    +0.000 C 
ATOM     27  O   UNL     1       2.118   9.983  17.553  0.00  0.00    +0.000 OA
ENDBRANCH  18  19
ENDBRANCH   6  18
TORSDOF 6
ENDMDL
MODEL 8
REMARK VINA RESULT:      -8.4      1.305      6.334
REMARK  Name = 
REMARK  7 active torsions:
REMARK  status: ('A' for Active; 'I' for Inactive)
REMARK    1  A    between atoms: C_1  and  O_2
REMARK    2  A    between atoms: O_2  and  C_3
REMARK    3  A    between atoms: C_5  and  C_6
REMARK    4  A    between atoms: C_6  and  C_7
REMARK    5  A    between atoms: C_12  and  C_13
REMARK    6  A    between atoms: C_13  and  C_14
REMARK    7  A    between atoms: C_25  and  O_26
REMARK                            x       y       z     vdW  Elec       q    Type
REMARK                         _______ _______ _______ _____ _____    ______ ____
ROOT
ATOM      1  C   UNL     1       5.601   6.167  18.127  0.00  0.00    +0.000 C 
ATOM      2  C   UNL     1       6.818   6.271  17.237  0.00  0.00    +0.000 C 
ATOM      3  O   UNL     1       7.965   6.473  17.609  0.00  0.00    +0.000 OA
ATOM      4  O   UNL     1       6.480   6.130  15.929  0.00  0.00    +0.000 OA
ATOM      5  C   UNL     1       5.101   5.794  15.820  0.00  0.00    +0.000 C 
ATOM      6  C   UNL     1       4.451   6.235  17.117  0.00  0.00    +0.000 C 
ENDROOT
BRANCH   1   7
ATOM      7  C   UNL     1       5.604   4.884  18.970  0.00  0.00    +0.000 C 
BRANCH   7  10
ATOM      8  C   UNL     1       2.191   3.293  19.717  0.00  0.00    +0.000 A 
ATOM      9  C   UNL     1       3.312   4.136  19.771  0.00  0.00    +0.000 A 
ATOM     10  C   UNL     1       4.338   4.068  18.814  0.00  0.00    +0.000 A 
ATOM     11  C   UNL     1       4.189   3.185  17.741  0.00  0.00    +0.000 A 
ATOM     12  C   UNL     1       3.069   2.352  17.663  0.00  0.00    +0.000 A 
ATOM     13  C   UNL     1       2.082   2.393  18.655  0.00  0.00    +0.000 A 
BRANCH   8  15
ATOM     14  C   UNL     1       1.464   2.605  21.893  0.00  0.00    +0.000 C 
ATOM     15  O   UNL     1       1.342   3.473  20.777  0.00  0.00    +0.000 OA
ENDBRANCH   8  15
BRANCH  13  16
ATOM     16  O   UNL     1       1.024   1.532  18.547  0.00  0.00    +0.000 OA
ATOM     17  H   UNL     1       1.363   0.644  18.348  0.00  0.00    +0.000 HD
ENDBRANCH  13  16
ENDBRANCH   7  10
ENDBRANCH   1   7
BRANCH   6  18
ATOM     18  C   UNL     1       3.897   7.673  16.978  0.00  0.00    +0.000 C 
BRANCH  18  19
ATOM     19  C   UNL     1       2.880   8.040  18.038  0.00  0.00    +0.000 A 
ATOM     20  C   UNL     1       2.711   7.219  19.178  0.00  0.00    +0.000 A 
ATOM     21  C   UNL     1       1.780   7.542  20.172  0.00  0.00    +0.000 A 
ATOM     22  C   UNL     1       1.040   8.694  20.008  0.00  0.00    +0.000 A 
ATOM     23  C   UNL     1       1.204   9.505  18.910  0.00  0.00    +0.000 A 
ATOM     24  C   UNL     1       2.111   9.210  17.913  0.00  0.00    +0.000 A 
ATOM     25  O   UNL     1       0.389  10.593  18.944  0.00  0.00    +0.000 OA
ATOM     26  C   UNL     1      -0.310  10.369  20.187  0.00  0.00    +0.000 C 
ATOM     27  O   UNL     1       0.101   9.167  20.869  0.00  0.00    +0.000 OA
ENDBRANCH  18  19
ENDBRANCH   6  18
TORSDOF 6
ENDMDL
MODEL 9
REMARK VINA RESULT:      -8.3      1.599      4.974
REMARK  Name = 
REMARK  7 active torsions:
REMARK  status: ('A' for Active; 'I' for Inactive)
REMARK    1  A    between atoms: C_1  and  O_2
REMARK    2  A    between atoms: O_2  and  C_3
REMARK    3  A    between atoms: C_5  and  C_6
REMARK    4  A    between atoms: C_6  and  C_7
REMARK    5  A    between atoms: C_12  and  C_13
REMARK    6  A    between atoms: C_13  and  C_14
REMARK    7  A    between atoms: C_25  and  O_26
REMARK                            x       y       z     vdW  Elec       q    Type
REMARK                         _______ _______ _______ _____ _____    ______ ____
ROOT
ATOM      1  C   UNL     1       5.285   5.398  16.177  0.00  0.00    +0.000 C 
ATOM      2  C   UNL     1       6.433   5.184  15.217  0.00  0.00    +0.000 C 
ATOM      3  O   UNL     1       6.446   5.485  14.033  0.00  0.00    +0.000 OA
ATOM      4  O   UNL     1       7.481   4.579  15.837  0.00  0.00    +0.000 OA
ATOM      5  C   UNL     1       7.214   4.461  17.230  0.00  0.00    +0.000 C 
ATOM      6  C   UNL     1       5.709   4.560  17.387  0.00  0.00    +0.000 C 
ENDROOT
BRANCH   1   7
ATOM      7  C   UNL     1       5.068   6.883  16.502  0.00  0.00    +0.000 C 
BRANCH   7  10
ATOM      8  C   UNL     1       2.240   8.563  18.481  0.00  0.00    +0.000 A 
ATOM      9  C   UNL     1       3.171   8.265  17.474  0.00  0.00    +0.000 A 
ATOM     10  C   UNL     1       3.971   7.112  17.521  0.00  0.00    +0.000 A 
ATOM     11  C   UNL     1       3.771   6.206  18.566  0.00  0.00    +0.000 A 
ATOM     12  C   UNL     1       2.835   6.479  19.567  0.00  0.00    +0.000 A 
ATOM     13  C   UNL     1       2.084   7.660  19.535  0.00  0.00    +0.000 A 
BRANCH   8  15
ATOM     14  C   UNL     1       0.215   9.756  18.015  0.00  0.00    +0.000 C 
ATOM     15  O   UNL     1       1.610   9.763  18.282  0.00  0.00    +0.000 OA
ENDBRANCH   8  15
BRANCH  13  16
ATOM     16  O   UNL     1       1.206   7.893  20.559  0.00  0.00    +0.000 OA
ATOM     17  H   UNL     1       0.874   8.802  20.485  0.00  0.00    +0.000 HD
ENDBRANCH  13  16
ENDBRANCH   7  10
ENDBRANCH   1   7
BRANCH   6  18
ATOM     18  C   UNL     1       5.072   3.150  17.357  0.00  0.00    +0.000 C 
BRANCH  18  19
ATOM     19  C   UNL     1       3.871   3.003  18.267  0.00  0.00    +0.000 A 
ATOM     20  C   UNL     1       2.564   2.977  17.724  0.00  0.00    +0.000 A 
ATOM     21  C   UNL     1       1.441   2.838  18.547  0.00  0.00    +0.000 A 
ATOM     22  C   UNL     1       1.651   2.717  19.904  0.00  0.00    +0.000 A 
ATOM     23  C   UNL     1       2.915   2.730  20.441  0.00  0.00    +0.000 A 
ATOM     24  C   UNL     1       4.041   2.869  19.655  0.00  0.00    +0.000 A 
ATOM     25  O   UNL     1       2.906   2.587  21.794  0.00  0.00    +0.000 OA
ATOM     26  C   UNL     1       1.488   2.489  22.045  0.00  0.00    +0.000 C 
ATOM     27  O   UNL     1       0.685   2.567  20.849  0.00  0.00    +0.000 OA
ENDBRANCH  18  19
ENDBRANCH   6  18
TORSDOF 6
ENDMDL
