MODEL 1
REMARK VINA RESULT:      -7.4      0.000      0.000
REMARK  Name = 
REMARK  2 active torsions:
REMARK  status: ('A' for Active; 'I' for Inactive)
REMARK    1  A    between atoms: C_1  and  C_2
REMARK    2  A    between atoms: C_3  and  C_4
REMARK                            x       y       z     vdW  Elec       q    Type
REMARK                         _______ _______ _______ _____ _____    ______ ____
ROOT
ATOM      1  C   UNL     1       5.928   5.510  19.405  0.00  0.00    +0.000 C 
ATOM      2  C   UNL     1       5.290   4.811  18.242  0.00  0.00    +0.000 A 
ATOM      3  C   UNL     1       4.117   4.041  18.252  0.00  0.00    +0.000 A 
ATOM      4  S   UNL     1       3.780   3.412  16.664  0.00  0.00    +0.000 S 
ATOM      5  C   UNL     1       5.151   4.119  16.038  0.00  0.00    +0.000 A 
ATOM      6  N   UNL     1       5.463   3.934  14.722  0.00  0.00    +0.000 N 
ATOM      7  C   UNL     1       6.593   4.532  14.226  0.00  0.00    +0.000 A 
ATOM      8  S   UNL     1       7.040   4.346  12.635  0.00  0.00    +0.000 S 
ATOM      9  N   UNL     1       7.340   5.293  15.092  0.00  0.00    +0.000 N 
ATOM     10  C   UNL     1       7.077   5.518  16.432  0.00  0.00    +0.000 A 
ATOM     11  O   UNL     1       7.802   6.221  17.124  0.00  0.00    +0.000 OA
ATOM     12  C   UNL     1       5.879   4.854  16.922  0.00  0.00    +0.000 A 
ATOM     13  H   UNL     1       4.877   3.360  14.127  0.00  0.00    +0.000 HD
ATOM     14  H   UNL     1       8.169   5.744  14.730  0.00  0.00    +0.000 HD
ENDROOT
BRANCH   3  15
ATOM     15  C   UNL     1       3.169   3.714  19.348  0.00  0.00    +0.000 A 
ATOM     16  C   UNL     1       1.888   4.284  19.390  0.00  0.00    +0.000 A 
ATOM     17  C   UNL     1       1.005   4.012  20.442  0.00  0.00    +0.000 A 
ATOM     18  C   UNL     1       1.368   3.124  21.448  0.00  0.00    +0.000 A 
ATOM     19  C   UNL     1       2.617   2.516  21.410  0.00  0.00    +0.000 A 
ATOM     20  C   UNL     1       3.514   2.820  20.379  0.00  0.00    +0.000 A 
ENDBRANCH   3  15
TORSDOF 1
ENDMDL
MODEL 2
REMARK VINA RESULT:      -7.4      0.023      1.133
REMARK  Name = 
REMARK  2 active torsions:
REMARK  status: ('A' for Active; 'I' for Inactive)
REMARK    1  A    between atoms: C_1  and  C_2
REMARK    2  A    between atoms: C_3  and  C_4
REMARK                            x       y       z     vdW  Elec       q    Type
REMARK                         _______ _______ _______ _____ _____    ______ ____
ROOT
ATOM      1  C   UNL     1       5.934   5.517  19.390  0.00  0.00    +0.000 C 
ATOM      2  C   UNL     1       5.289   4.815  18.232  0.00  0.00    +0.000 A 
ATOM      3  C   UNL     1       4.113   4.050  18.250  0.00  0.00    +0.000 A 
ATOM      4  S   UNL     1       3.769   3.415  16.665  0.00  0.00    +0.000 S 
ATOM      5  C   UNL     1       5.141   4.114  16.033  0.00  0.00    +0.000 A 
ATOM      6  N   UNL     1       5.449   3.921  14.716  0.00  0.00    +0.000 N 
ATOM      7  C   UNL     1       6.579   4.512  14.215  0.00  0.00    +0.000 A 
ATOM      8  S   UNL     1       7.020   4.317  12.623  0.00  0.00    +0.000 S 
ATOM      9  N   UNL     1       7.332   5.274  15.075  0.00  0.00    +0.000 N 
ATOM     10  C   UNL     1       7.074   5.507  16.414  0.00  0.00    +0.000 A 
ATOM     11  O   UNL     1       7.804   6.210  17.101  0.00  0.00    +0.000 OA
ATOM     12  C   UNL     1       5.874   4.850  16.911  0.00  0.00    +0.000 A 
ATOM     13  H   UNL     1       4.858   3.347  14.126  0.00  0.00    +0.000 HD
ATOM     14  H   UNL     1       8.162   5.720  14.708  0.00  0.00    +0.000 HD
ENDROOT
BRANCH   3  15
ATOM     15  C   UNL     1       3.167   3.733  19.350  0.00  0.00    +0.000 A 
ATOM     16  C   UNL     1       3.521   2.843  20.375  0.00  0.00    +0.000 A 
ATOM     17  C   UNL     1       2.620   2.509  21.392  0.00  0.00    +0.000 A 
ATOM     18  C   UNL     1       1.361   3.098  21.432  0.00  0.00    +0.000 A 
ATOM     19  C   UNL     1       0.998   4.012  20.451  0.00  0.00    +0.000 A 
ATOM     20  C   UNL     1       1.887   4.315  19.412  0.00  0.00    +0.000 A 
ENDBRANCH   3  15
TORSDOF 1
ENDMDL
MODEL 3
REMARK VINA RESULT:      -6.8      3.724      4.672
REMARK  Name = 
REMARK  2 active torsions:
REMARK  status: ('A' for Active; 'I' for Inactive)
REMARK    1  A    between atoms: C_1  and  C_2
REMARK    2  A    between atoms: C_3  and  C_4
REMARK                            x       y       z     vdW  Elec       q    Type
REMARK                         _______ _______ _______ _____ _____    ______ ____
ROOT
ATOM      1  C   UNL     1       1.705   4.848  20.271  0.00  0.00    +0.000 C 
ATOM      2  C   UNL     1       2.484   5.649  19.270  0.00  0.00    +0.000 A 
ATOM      3  C   UNL     1       2.443   7.038  19.076  0.00  0.00    +0.000 A 
ATOM      4  S   UNL     1       3.508   7.509  17.782  0.00  0.00    +0.000 S 
ATOM      5  C   UNL     1       3.952   5.929  17.505  0.00  0.00    +0.000 A 
ATOM      6  N   UNL     1       4.825   5.643  16.494  0.00  0.00    +0.000 N 
ATOM      7  C   UNL     1       5.183   4.336  16.289  0.00  0.00    +0.000 A 
ATOM      8  S   UNL     1       6.235   3.912  15.073  0.00  0.00    +0.000 S 
ATOM      9  N   UNL     1       4.642   3.391  17.127  0.00  0.00    +0.000 N 
ATOM     10  C   UNL     1       3.757   3.617  18.165  0.00  0.00    +0.000 A 
ATOM     11  O   UNL     1       3.334   2.706  18.864  0.00  0.00    +0.000 OA
ATOM     12  C   UNL     1       3.390   5.015  18.340  0.00  0.00    +0.000 A 
ATOM     13  H   UNL     1       5.192   6.380  15.904  0.00  0.00    +0.000 HD
ATOM     14  H   UNL     1       4.911   2.426  16.985  0.00  0.00    +0.000 HD
ENDROOT
BRANCH   3  15
ATOM     15  C   UNL     1       1.683   8.103  19.779  0.00  0.00    +0.000 A 
ATOM     16  C   UNL     1       1.405   8.009  21.151  0.00  0.00    +0.000 A 
ATOM     17  C   UNL     1       0.654   8.990  21.810  0.00  0.00    +0.000 A 
ATOM     18  C   UNL     1       0.209  10.111  21.119  0.00  0.00    +0.000 A 
ATOM     19  C   UNL     1       0.503  10.248  19.768  0.00  0.00    +0.000 A 
ATOM     20  C   UNL     1       1.219   9.247  19.102  0.00  0.00    +0.000 A 
ENDBRANCH   3  15
TORSDOF 1
ENDMDL
MODEL 4
REMARK VINA RESULT:      -6.8      3.690      4.500
REMARK  Name = 
REMARK  2 active torsions:
REMARK  status: ('A' for Active; 'I' for Inactive)
REMARK    1  A    between atoms: C_1  and  C_2
REMARK    2  A    between atoms: C_3  and  C_4
REMARK                            x       y       z     vdW  Elec       q    Type
REMARK                         _______ _______ _______ _____ _____    ______ ____
ROOT
ATOM      1  C   UNL     1       2.028   4.870  20.472  0.00  0.00    +0.000 C 
ATOM      2  C   UNL     1       2.673   5.664  19.375  0.00  0.00    +0.000 A 
ATOM      3  C   UNL     1       2.517   7.033  19.111  0.00  0.00    +0.000 A 
ATOM      4  S   UNL     1       3.450   7.501  17.718  0.00  0.00    +0.000 S 
ATOM      5  C   UNL     1       3.988   5.942  17.492  0.00  0.00    +0.000 A 
ATOM      6  N   UNL     1       4.806   5.659  16.435  0.00  0.00    +0.000 N 
ATOM      7  C   UNL     1       5.242   4.370  16.273  0.00  0.00    +0.000 A 
ATOM      8  S   UNL     1       6.234   3.949  15.006  0.00  0.00    +0.000 S 
ATOM      9  N   UNL     1       4.833   3.439  17.198  0.00  0.00    +0.000 N 
ATOM     10  C   UNL     1       4.009   3.664  18.286  0.00  0.00    +0.000 A 
ATOM     11  O   UNL     1       3.704   2.768  19.062  0.00  0.00    +0.000 OA
ATOM     12  C   UNL     1       3.555   5.041  18.414  0.00  0.00    +0.000 A 
ATOM     13  H   UNL     1       5.075   6.384  15.782  0.00  0.00    +0.000 HD
ATOM     14  H   UNL     1       5.160   2.489  17.088  0.00  0.00    +0.000 HD
ENDROOT
BRANCH   3  15
ATOM     15  C   UNL     1       1.733   8.082  19.812  0.00  0.00    +0.000 A 
ATOM     16  C   UNL     1       1.247   9.203  19.123  0.00  0.00    +0.000 A 
ATOM     17  C   UNL     1       0.542  10.216  19.785  0.00  0.00    +0.000 A 
ATOM     18  C   UNL     1       0.266  10.102  21.143  0.00  0.00    +0.000 A 
ATOM     19  C   UNL     1       0.703   8.983  21.842  0.00  0.00    +0.000 A 
ATOM     20  C   UNL     1       1.442   7.991  21.186  0.00  0.00    +0.000 A 
ENDBRANCH   3  15
TORSDOF 1
ENDMDL
MODEL 5
REMARK VINA RESULT:      -6.5      2.985      6.367
REMARK  Name = 
REMARK  2 active torsions:
REMARK  status: ('A' for Active; 'I' for Inactive)
REMARK    1  A    between atoms: C_1  and  C_2
REMARK    2  A    between atoms: C_3  and  C_4
REMARK                            x       y       z     vdW  Elec       q    Type
REMARK                         _______ _______ _______ _____ _____    ______ ____
ROOT
ATOM      1  C   UNL     1       4.395   7.002  16.807  0.00  0.00    +0.000 C 
ATOM      2  C   UNL     1       4.295   5.542  17.134  0.00  0.00    +0.000 A 
ATOM      3  C   UNL     1       4.804   4.467  16.390  0.00  0.00    +0.000 A 
ATOM      4  S   UNL     1       4.422   2.951  17.158  0.00  0.00    +0.000 S 
ATOM      5  C   UNL     1       3.602   3.722  18.384  0.00  0.00    +0.000 A 
ATOM      6  N   UNL     1       2.999   2.981  19.360  0.00  0.00    +0.000 N 
ATOM      7  C   UNL     1       2.336   3.637  20.364  0.00  0.00    +0.000 A 
ATOM      8  S   UNL     1       1.573   2.801  21.583  0.00  0.00    +0.000 S 
ATOM      9  N   UNL     1       2.328   5.011  20.329  0.00  0.00    +0.000 N 
ATOM     10  C   UNL     1       2.918   5.815  19.371  0.00  0.00    +0.000 A 
ATOM     11  O   UNL     1       2.862   7.037  19.428  0.00  0.00    +0.000 OA
ATOM     12  C   UNL     1       3.598   5.081  18.314  0.00  0.00    +0.000 A 
ATOM     13  H   UNL     1       3.035   1.969  19.337  0.00  0.00    +0.000 HD
ATOM     14  H   UNL     1       1.848   5.500  21.073  0.00  0.00    +0.000 HD
ENDROOT
BRANCH   3  15
ATOM     15  C   UNL     1       5.588   4.433  15.129  0.00  0.00    +0.000 A 
ATOM     16  C   UNL     1       5.101   3.770  13.992  0.00  0.00    +0.000 A 
ATOM     17  C   UNL     1       5.852   3.700  12.813  0.00  0.00    +0.000 A 
ATOM     18  C   UNL     1       7.087   4.336  12.731  0.00  0.00    +0.000 A 
ATOM     19  C   UNL     1       7.575   5.032  13.830  0.00  0.00    +0.000 A 
ATOM     20  C   UNL     1       6.840   5.068  15.022  0.00  0.00    +0.000 A 
ENDBRANCH   3  15
TORSDOF 1
ENDMDL
MODEL 6
REMARK VINA RESULT:      -6.5      2.969      6.400
REMARK  Name = 
REMARK  2 active torsions:
REMARK  status: ('A' for Active; 'I' for Inactive)
REMARK    1  A    between atoms: C_1  and  C_2
REMARK    2  A    between atoms: C_3  and  C_4
REMARK                            x       y       z     vdW  Elec       q    Type
REMARK                         _______ _______ _______ _____ _____    ______ ____
ROOT
ATOM      1  C   UNL     1       4.431   6.976  16.781  0.00  0.00    +0.000 C 
ATOM      2  C   UNL     1       4.329   5.516  17.111  0.00  0.00    +0.000 A 
ATOM      3  C   UNL     1       4.838   4.439  16.371  0.00  0.00    +0.000 A 
ATOM      4  S   UNL     1       4.452   2.926  17.141  0.00  0.00    +0.000 S 
ATOM      5  C   UNL     1       3.631   3.701  18.365  0.00  0.00    +0.000 A 
ATOM      6  N   UNL     1       3.027   2.963  19.342  0.00  0.00    +0.000 N 
ATOM      7  C   UNL     1       2.363   3.622  20.344  0.00  0.00    +0.000 A 
ATOM      8  S   UNL     1       1.597   2.790  21.563  0.00  0.00    +0.000 S 
ATOM      9  N   UNL     1       2.357   4.996  20.305  0.00  0.00    +0.000 N 
ATOM     10  C   UNL     1       2.949   5.797  19.345  0.00  0.00    +0.000 A 
ATOM     11  O   UNL     1       2.895   7.019  19.400  0.00  0.00    +0.000 OA
ATOM     12  C   UNL     1       3.630   5.059  18.292  0.00  0.00    +0.000 A 
ATOM     13  H   UNL     1       3.061   1.951  19.321  0.00  0.00    +0.000 HD
ATOM     14  H   UNL     1       1.877   5.487  21.047  0.00  0.00    +0.000 HD
ENDROOT
BRANCH   3  15
ATOM     15  C   UNL     1       5.623   4.401  15.110  0.00  0.00    +0.000 A 
ATOM     16  C   UNL     1       6.874   5.027  15.018  0.00  0.00    +0.000 A 
ATOM     17  C   UNL     1       7.601   5.029  13.821  0.00  0.00    +0.000 A 
ATOM     18  C   UNL     1       7.111   4.361  12.705  0.00  0.00    +0.000 A 
ATOM     19  C   UNL     1       5.891   3.700  12.780  0.00  0.00    +0.000 A 
ATOM     20  C   UNL     1       5.147   3.733  13.966  0.00  0.00    +0.000 A 
ENDBRANCH   3  15
TORSDOF 1
ENDMDL
MODEL 7
REMARK VINA RESULT:      -6.5      3.893      6.575
REMARK  Name = 
REMARK  2 active torsions:
REMARK  status: ('A' for Active; 'I' for Inactive)
REMARK    1  A    between atoms: C_1  and  C_2
REMARK    2  A    between atoms: C_3  and  C_4
REMARK                            x       y       z     vdW  Elec       q    Type
REMARK                         _______ _______ _______ _____ _____    ______ ____
ROOT
ATOM      1  C   UNL     1       4.109   3.331  18.836  0.00  0.00    +0.000 C 
ATOM      2  C   UNL     1       3.825   4.769  18.521  0.00  0.00    +0.000 A 
ATOM      3  C   UNL     1       4.328   5.521  17.449  0.00  0.00    +0.000 A 
ATOM      4  S   UNL     1       3.733   7.156  17.510  0.00  0.00    +0.000 S 
ATOM      5  C   UNL     1       2.885   6.848  18.910  0.00  0.00    +0.000 A 
ATOM      6  N   UNL     1       2.180   7.855  19.505  0.00  0.00    +0.000 N 
ATOM      7  C   UNL     1       1.484   7.577  20.652  0.00  0.00    +0.000 A 
ATOM      8  S   UNL     1       0.608   8.754  21.435  0.00  0.00    +0.000 S 
ATOM      9  N   UNL     1       1.533   6.289  21.129  0.00  0.00    +0.000 N 
ATOM     10  C   UNL     1       2.227   5.229  20.573  0.00  0.00    +0.000 A 
ATOM     11  O   UNL     1       2.205   4.110  21.069  0.00  0.00    +0.000 OA
ATOM     12  C   UNL     1       2.965   5.569  19.366  0.00  0.00    +0.000 A 
ATOM     13  H   UNL     1       2.180   8.788  19.111  0.00  0.00    +0.000 HD
ATOM     14  H   UNL     1       1.014   6.076  21.970  0.00  0.00    +0.000 HD
ENDROOT
BRANCH   3  15
ATOM     15  C   UNL     1       5.228   5.147  16.328  0.00  0.00    +0.000 A 
ATOM     16  C   UNL     1       4.740   4.464  15.205  0.00  0.00    +0.000 A 
ATOM     17  C   UNL     1       5.590   4.073  14.164  0.00  0.00    +0.000 A 
ATOM     18  C   UNL     1       6.941   4.402  14.203  0.00  0.00    +0.000 A 
ATOM     19  C   UNL     1       7.443   5.112  15.286  0.00  0.00    +0.000 A 
ATOM     20  C   UNL     1       6.599   5.467  16.345  0.00  0.00    +0.000 A 
ENDBRANCH   3  15
TORSDOF 1
ENDMDL
MODEL 8
REMARK VINA RESULT:      -6.5      3.896      6.619
REMARK  Name = 
REMARK  2 active torsions:
REMARK  status: ('A' for Active; 'I' for Inactive)
REMARK    1  A    between atoms: C_1  and  C_2
REMARK    2  A    between atoms: C_3  and  C_4
REMARK                            x       y       z     vdW  Elec       q    Type
REMARK                         _______ _______ _______ _____ _____    ______ ____
ROOT
ATOM      1  C   UNL     1       4.094   3.335  18.861  0.00  0.00    +0.000 C 
ATOM      2  C   UNL     1       3.817   4.773  18.535  0.00  0.00    +0.000 A 
ATOM      3  C   UNL     1       4.330   5.515  17.461  0.00  0.00    +0.000 A 
ATOM      4  S   UNL     1       3.740   7.153  17.508  0.00  0.00    +0.000 S 
ATOM      5  C   UNL     1       2.883   6.857  18.904  0.00  0.00    +0.000 A 
ATOM      6  N   UNL     1       2.178   7.871  19.488  0.00  0.00    +0.000 N 
ATOM      7  C   UNL     1       1.474   7.603  20.633  0.00  0.00    +0.000 A 
ATOM      8  S   UNL     1       0.598   8.788  21.403  0.00  0.00    +0.000 S 
ATOM      9  N   UNL     1       1.516   6.318  21.118  0.00  0.00    +0.000 N 
ATOM     10  C   UNL     1       2.209   5.252  20.573  0.00  0.00    +0.000 A 
ATOM     11  O   UNL     1       2.179   4.136  21.077  0.00  0.00    +0.000 OA
ATOM     12  C   UNL     1       2.956   5.581  19.369  0.00  0.00    +0.000 A 
ATOM     13  H   UNL     1       2.183   8.801  19.088  0.00  0.00    +0.000 HD
ATOM     14  H   UNL     1       0.990   6.112  21.957  0.00  0.00    +0.000 HD
ENDROOT
BRANCH   3  15
ATOM     15  C   UNL     1       5.235   5.131  16.348  0.00  0.00    +0.000 A 
ATOM     16  C   UNL     1       6.604   5.436  16.390  0.00  0.00    +0.000 A 
ATOM     17  C   UNL     1       7.455   5.112  15.326  0.00  0.00    +0.000 A 
ATOM     18  C   UNL     1       6.962   4.430  14.219  0.00  0.00    +0.000 A 
ATOM     19  C   UNL     1       5.618   4.082  14.169  0.00  0.00    +0.000 A 
ATOM     20  C   UNL     1       4.760   4.442  15.216  0.00  0.00    +0.000 A 
ENDBRANCH   3  15
TORSDOF 1
ENDMDL
MODEL 9
REMARK VINA RESULT:      -6.3      1.270      1.695
REMARK  Name = 
REMARK  2 active torsions:
REMARK  status: ('A' for Active; 'I' for Inactive)
REMARK    1  A    between atoms: C_1  and  C_2
REMARK    2  A    between atoms: C_3  and  C_4
REMARK                            x       y       z     vdW  Elec       q    Type
REMARK                         _______ _______ _______ _____ _____    ______ ____
ROOT
ATOM      1  C   UNL     1       3.682   6.577  18.332  0.00  0.00    +0.000 C 
ATOM      2  C   UNL     1       4.004   5.253  17.704  0.00  0.00    +0.000 A 
ATOM      3  C   UNL     1       3.642   3.981  18.171  0.00  0.00    +0.000 A 
ATOM      4  S   UNL     1       4.261   2.740  17.118  0.00  0.00    +0.000 S 
ATOM      5  C   UNL     1       4.984   3.869  16.131  0.00  0.00    +0.000 A 
ATOM      6  N   UNL     1       5.710   3.452  15.052  0.00  0.00    +0.000 N 
ATOM      7  C   UNL     1       6.291   4.399  14.249  0.00  0.00    +0.000 A 
ATOM      8  S   UNL     1       7.195   3.967  12.922  0.00  0.00    +0.000 S 
ATOM      9  N   UNL     1       6.096   5.718  14.580  0.00  0.00    +0.000 N 
ATOM     10  C   UNL     1       5.373   6.201  15.656  0.00  0.00    +0.000 A 
ATOM     11  O   UNL     1       5.249   7.401  15.865  0.00  0.00    +0.000 OA
ATOM     12  C   UNL     1       4.786   5.165  16.492  0.00  0.00    +0.000 A 
ATOM     13  H   UNL     1       5.824   2.465  14.855  0.00  0.00    +0.000 HD
ATOM     14  H   UNL     1       6.514   6.421  13.985  0.00  0.00    +0.000 HD
ENDROOT
BRANCH   3  15
ATOM     15  C   UNL     1       2.845   3.561  19.352  0.00  0.00    +0.000 A 
ATOM     16  C   UNL     1       3.455   2.943  20.454  0.00  0.00    +0.000 A 
ATOM     17  C   UNL     1       2.704   2.508  21.553  0.00  0.00    +0.000 A 
ATOM     18  C   UNL     1       1.331   2.729  21.593  0.00  0.00    +0.000 A 
ATOM     19  C   UNL     1       0.708   3.373  20.532  0.00  0.00    +0.000 A 
ATOM     20  C   UNL     1       1.455   3.772  19.416  0.00  0.00    +0.000 A 
ENDBRANCH   3  15
TORSDOF 1
ENDMDL
