MODEL 1
REMARK VINA RESULT:      -8.5      0.000      0.000
REMARK  Name = 
REMARK  10 active torsions:
REMARK  status: ('A' for Active; 'I' for Inactive)
REMARK    1  A    between atoms: C_2  and  C_4
REMARK    2  A    between atoms: N_7  and  C_8
REMARK    3  A    between atoms: C_10  and  C_11
REMARK    4  A    between atoms: C_11  and  N_12
REMARK    5  A    between atoms: N_12  and  C_13
REMARK    6  A    between atoms: C_13  and  C_14
REMARK    7  A    between atoms: C_19  and  C_20
REMARK    8  A    between atoms: C_21  and  C_22
REMARK    9  A    between atoms: C_28  and  O_29
REMARK   10  A    between atoms: C_30  and  O_31
REMARK                            x       y       z     vdW  Elec       q    Type
REMARK                         _______ _______ _______ _____ _____    ______ ____
ROOT
ATOM      1  C   UNL     1       4.369   4.081  17.619  0.00  0.00    +0.000 C 
ATOM      2  O   UNL     1       3.309   5.032  17.351  0.00  0.00    +0.000 OA
ATOM      3  C   UNL     1       2.730   5.445  18.610  0.00  0.00    +0.000 C 
ATOM      4  C   UNL     1       3.363   4.562  19.694  0.00  0.00    +0.000 C 
ATOM      5  C   UNL     1       4.709   4.184  19.100  0.00  0.00    +0.000 C 
ENDROOT
BRANCH   1   9
ATOM      6  C   UNL     1       6.630   4.491  14.988  0.00  0.00    +0.000 A 
ATOM      7  N   UNL     1       7.540   4.609  16.025  0.00  0.00    +0.000 NA
ATOM      8  C   UNL     1       6.791   4.564  17.102  0.00  0.00    +0.000 A 
ATOM      9  N   UNL     1       5.497   4.346  16.745  0.00  0.00    +0.000 N 
ATOM     10  N   UNL     1       5.355   4.344  15.403  0.00  0.00    +0.000 NA
BRANCH   6  12
ATOM     11  N   UNL     1       6.432   3.547  12.787  0.00  0.00    +0.000 N 
ATOM     12  C   UNL     1       6.993   4.530  13.562  0.00  0.00    +0.000 C 
ATOM     13  O   UNL     1       7.733   5.366  13.051  0.00  0.00    +0.000 OA
ATOM     14  H   UNL     1       6.575   3.598  11.791  0.00  0.00    +0.000 HD
ATOM     15  H   UNL     1       5.722   2.940  13.177  0.00  0.00    +0.000 HD
ENDBRANCH   6  12
ENDBRANCH   1   9
BRANCH   4  16
ATOM     16  O   UNL     1       2.615   3.346  19.910  0.00  0.00    +0.000 OA
ATOM     17  H   UNL     1       1.691   3.566  20.135  0.00  0.00    +0.000 HD
ENDBRANCH   4  16
BRANCH   5  18
ATOM     18  O   UNL     1       5.206   2.961  19.641  0.00  0.00    +0.000 OA
ATOM     19  H   UNL     1       5.333   3.114  20.601  0.00  0.00    +0.000 HD
ENDBRANCH   5  18
BRANCH   3  20
ATOM     20  C   UNL     1       2.968   6.957  18.803  0.00  0.00    +0.000 C 
BRANCH  20  21
ATOM     21  N   UNL     1       2.303   7.450  20.012  0.00  0.00    +0.000 NA
ATOM     22  H   UNL     1       2.992   7.895  20.628  0.00  0.00    +0.000 HD
BRANCH  21  23
ATOM     23  C   UNL     1       1.274   8.446  19.705  0.00  0.00    +0.000 C 
BRANCH  23  24
ATOM     24  C   UNL     1       0.681   9.066  20.956  0.00  0.00    +0.000 A 
ATOM     25  C   UNL     1       1.237   8.835  22.229  0.00  0.00    +0.000 A 
ATOM     26  C   UNL     1       0.696   9.427  23.373  0.00  0.00    +0.000 A 
ATOM     27  C   UNL     1      -0.429  10.236  23.271  0.00  0.00    +0.000 A 
ATOM     28  C   UNL     1      -1.020  10.447  22.027  0.00  0.00    +0.000 A 
ATOM     29  C   UNL     1      -0.478   9.861  20.876  0.00  0.00    +0.000 A 
BRANCH  29  30
ATOM     30  C   UNL     1      -1.145  10.088  19.622  0.00  0.00    +0.000 C 
ATOM     31  C   UNL     1      -1.701  10.251  18.579  0.00  0.00    +0.000 C 
BRANCH  31  32
ATOM     32  C   UNL     1      -2.395  10.422  17.338  0.00  0.00    +0.000 A 
ATOM     33  C   UNL     1      -3.501  11.274  17.277  0.00  0.00    +0.000 A 
ATOM     34  C   UNL     1      -4.198  11.429  16.079  0.00  0.00    +0.000 A 
ATOM     35  C   UNL     1      -3.789  10.736  14.940  0.00  0.00    +0.000 A 
ATOM     36  C   UNL     1      -2.682   9.889  14.997  0.00  0.00    +0.000 A 
ATOM     37  C   UNL     1      -1.984   9.730  16.197  0.00  0.00    +0.000 A 
ENDBRANCH  31  32
ENDBRANCH  29  30
ENDBRANCH  23  24
ENDBRANCH  21  23
ENDBRANCH  20  21
ENDBRANCH   3  20
TORSDOF 10
ENDMDL
MODEL 2
REMARK VINA RESULT:      -8.3      3.062      5.001
REMARK  Name = 
REMARK  10 active torsions:
REMARK  status: ('A' for Active; 'I' for Inactive)
REMARK    1  A    between atoms: C_2  and  C_4
REMARK    2  A    between atoms: N_7  and  C_8
REMARK    3  A    between atoms: C_10  and  C_11
REMARK    4  A    between atoms: C_11  and  N_12
REMARK    5  A    between atoms: N_12  and  C_13
REMARK    6  A    between atoms: C_13  and  C_14
REMARK    7  A    between atoms: C_19  and  C_20
REMARK    8  A    between atoms: C_21  and  C_22
REMARK    9  A    between atoms: C_28  and  O_29
REMARK   10  A    between atoms: C_30  and  O_31
REMARK                            x       y       z     vdW  Elec       q    Type
REMARK                         _______ _______ _______ _____ _____    ______ ____
ROOT
ATOM      1  C   UNL     1       6.796   4.832  16.103  0.00  0.00    +0.000 C 
ATOM      2  O   UNL     1       5.689   4.195  16.787  0.00  0.00    +0.000 OA
ATOM      3  C   UNL     1       5.209   5.089  17.818  0.00  0.00    +0.000 C 
ATOM      4  C   UNL     1       6.194   6.263  17.874  0.00  0.00    +0.000 C 
ATOM      5  C   UNL     1       6.768   6.310  16.468  0.00  0.00    +0.000 C 
ENDROOT
BRANCH   1   9
ATOM      6  C   UNL     1       6.122   3.688  12.872  0.00  0.00    +0.000 A 
ATOM      7  N   UNL     1       7.183   4.517  12.550  0.00  0.00    +0.000 NA
ATOM      8  C   UNL     1       7.483   5.095  13.689  0.00  0.00    +0.000 A 
ATOM      9  N   UNL     1       6.698   4.584  14.676  0.00  0.00    +0.000 N 
ATOM     10  N   UNL     1       5.788   3.722  14.179  0.00  0.00    +0.000 NA
BRANCH   6  12
ATOM     11  N   UNL     1       6.002   1.651  11.603  0.00  0.00    +0.000 N 
ATOM     12  C   UNL     1       5.403   2.849  11.899  0.00  0.00    +0.000 C 
ATOM     13  O   UNL     1       4.337   3.149  11.369  0.00  0.00    +0.000 OA
ATOM     14  H   UNL     1       5.494   1.006  11.019  0.00  0.00    +0.000 HD
ATOM     15  H   UNL     1       6.807   1.343  12.134  0.00  0.00    +0.000 HD
ENDBRANCH   6  12
ENDBRANCH   1   9
BRANCH   4  16
ATOM     16  O   UNL     1       7.282   6.018  18.791  0.00  0.00    +0.000 OA
ATOM     17  H   UNL     1       7.545   6.854  19.218  0.00  0.00    +0.000 HD
ENDBRANCH   4  16
BRANCH   5  18
ATOM     18  O   UNL     1       8.061   6.913  16.440  0.00  0.00    +0.000 OA
ATOM     19  H   UNL     1       8.323   6.962  15.496  0.00  0.00    +0.000 HD
ENDBRANCH   5  18
BRANCH   3  20
ATOM     20  C   UNL     1       3.755   5.493  17.498  0.00  0.00    +0.000 C 
BRANCH  20  21
ATOM     21  N   UNL     1       2.933   4.321  17.182  0.00  0.00    +0.000 NA
ATOM     22  H   UNL     1       3.447   3.465  17.417  0.00  0.00    +0.000 HD
BRANCH  21  23
ATOM     23  C   UNL     1       1.681   4.309  17.942  0.00  0.00    +0.000 C 
BRANCH  23  24
ATOM     24  C   UNL     1       1.846   3.684  19.315  0.00  0.00    +0.000 A 
ATOM     25  C   UNL     1       1.954   2.290  19.484  0.00  0.00    +0.000 A 
ATOM     26  C   UNL     1       2.126   1.726  20.749  0.00  0.00    +0.000 A 
ATOM     27  C   UNL     1       2.164   2.541  21.875  0.00  0.00    +0.000 A 
ATOM     28  C   UNL     1       2.019   3.920  21.735  0.00  0.00    +0.000 A 
ATOM     29  C   UNL     1       1.853   4.491  20.468  0.00  0.00    +0.000 A 
BRANCH  29  30
ATOM     30  C   UNL     1       1.679   5.916  20.384  0.00  0.00    +0.000 C 
ATOM     31  C   UNL     1       1.542   7.098  20.290  0.00  0.00    +0.000 C 
BRANCH  31  32
ATOM     32  C   UNL     1       1.359   8.511  20.146  0.00  0.00    +0.000 A 
ATOM     33  C   UNL     1       1.025   9.282  21.262  0.00  0.00    +0.000 A 
ATOM     34  C   UNL     1       0.821  10.655  21.128  0.00  0.00    +0.000 A 
ATOM     35  C   UNL     1       0.954  11.260  19.878  0.00  0.00    +0.000 A 
ATOM     36  C   UNL     1       1.292  10.494  18.763  0.00  0.00    +0.000 A 
ATOM     37  C   UNL     1       1.495   9.118  18.895  0.00  0.00    +0.000 A 
ENDBRANCH  31  32
ENDBRANCH  29  30
ENDBRANCH  23  24
ENDBRANCH  21  23
ENDBRANCH  20  21
ENDBRANCH   3  20
TORSDOF 10
ENDMDL
MODEL 3
REMARK VINA RESULT:      -8.3      3.792      6.200
REMARK  Name = 
REMARK  10 active torsions:
REMARK  status: ('A' for Active; 'I' for Inactive)
REMARK    1  A    between atoms: C_2  and  C_4
REMARK    2  A    between atoms: N_7  and  C_8
REMARK    3  A    between atoms: C_10  and  C_11
REMARK    4  A    between atoms: C_11  and  N_12
REMARK    5  A    between atoms: N_12  and  C_13
REMARK    6  A    between atoms: C_13  and  C_14
REMARK    7  A    between atoms: C_19  and  C_20
REMARK    8  A    between atoms: C_21  and  C_22
REMARK    9  A    between atoms: C_28  and  O_29
REMARK   10  A    between atoms: C_30  and  O_31
REMARK                            x       y       z     vdW  Elec       q    Type
REMARK                         _______ _______ _______ _____ _____    ______ ____
ROOT
ATOM      1  C   UNL     1       7.929   6.920  17.768  0.00  0.00    +0.000 C 
ATOM      2  O   UNL     1       7.130   6.828  16.562  0.00  0.00    +0.000 OA
ATOM      3  C   UNL     1       6.109   5.824  16.760  0.00  0.00    +0.000 C 
ATOM      4  C   UNL     1       6.415   5.146  18.102  0.00  0.00    +0.000 C 
ATOM      5  C   UNL     1       7.157   6.220  18.879  0.00  0.00    +0.000 C 
ENDROOT
BRANCH   1   9
ATOM      6  C   UNL     1       8.909  10.003  19.084  0.00  0.00    +0.000 A 
ATOM      7  N   UNL     1       8.129  10.491  18.049  0.00  0.00    +0.000 NA
ATOM      8  C   UNL     1       7.763   9.411  17.400  0.00  0.00    +0.000 A 
ATOM      9  N   UNL     1       8.226   8.311  18.054  0.00  0.00    +0.000 N 
ATOM     10  N   UNL     1       9.001   8.657  19.102  0.00  0.00    +0.000 NA
BRANCH   6  12
ATOM     11  N   UNL     1      10.849  11.269  19.725  0.00  0.00    +0.000 N 
ATOM     12  C   UNL     1       9.591  10.851  20.076  0.00  0.00    +0.000 C 
ATOM     13  O   UNL     1       9.108  11.197  21.151  0.00  0.00    +0.000 OA
ATOM     14  H   UNL     1      11.308  11.931  20.330  0.00  0.00    +0.000 HD
ATOM     15  H   UNL     1      11.196  11.097  18.789  0.00  0.00    +0.000 HD
ENDBRANCH   6  12
ENDBRANCH   1   9
BRANCH   4  16
ATOM     16  O   UNL     1       7.299   4.015  17.951  0.00  0.00    +0.000 OA
ATOM     17  H   UNL     1       6.774   3.205  17.810  0.00  0.00    +0.000 HD
ENDBRANCH   4  16
BRANCH   5  18
ATOM     18  O   UNL     1       8.009   5.663  19.879  0.00  0.00    +0.000 OA
ATOM     19  H   UNL     1       7.494   5.665  20.714  0.00  0.00    +0.000 HD
ENDBRANCH   5  18
BRANCH   3  20
ATOM     20  C   UNL     1       4.721   6.494  16.688  0.00  0.00    +0.000 C 
BRANCH  20  21
ATOM     21  N   UNL     1       4.154   6.688  18.025  0.00  0.00    +0.000 NA
ATOM     22  H   UNL     1       4.140   7.688  18.253  0.00  0.00    +0.000 HD
BRANCH  21  23
ATOM     23  C   UNL     1       2.777   6.195  18.114  0.00  0.00    +0.000 C 
BRANCH  23  24
ATOM     24  C   UNL     1       2.636   5.058  19.110  0.00  0.00    +0.000 A 
ATOM     25  C   UNL     1       3.050   3.748  18.799  0.00  0.00    +0.000 A 
ATOM     26  C   UNL     1       2.935   2.713  19.729  0.00  0.00    +0.000 A 
ATOM     27  C   UNL     1       2.376   2.960  20.978  0.00  0.00    +0.000 A 
ATOM     28  C   UNL     1       1.923   4.240  21.293  0.00  0.00    +0.000 A 
ATOM     29  C   UNL     1       2.043   5.282  20.366  0.00  0.00    +0.000 A 
BRANCH  29  30
ATOM     30  C   UNL     1       1.533   6.576  20.732  0.00  0.00    +0.000 C 
ATOM     31  C   UNL     1       1.086   7.639  21.042  0.00  0.00    +0.000 C 
BRANCH  31  32
ATOM     32  C   UNL     1       0.537   8.899  21.445  0.00  0.00    +0.000 A 
ATOM     33  C   UNL     1      -0.098   9.011  22.684  0.00  0.00    +0.000 A 
ATOM     34  C   UNL     1      -0.657  10.228  23.075  0.00  0.00    +0.000 A 
ATOM     35  C   UNL     1      -0.580  11.334  22.229  0.00  0.00    +0.000 A 
ATOM     36  C   UNL     1       0.058  11.226  20.994  0.00  0.00    +0.000 A 
ATOM     37  C   UNL     1       0.617  10.008  20.599  0.00  0.00    +0.000 A 
ENDBRANCH  31  32
ENDBRANCH  29  30
ENDBRANCH  23  24
ENDBRANCH  21  23
ENDBRANCH  20  21
ENDBRANCH   3  20
TORSDOF 10
ENDMDL
MODEL 4
REMARK VINA RESULT:      -8.2      4.014      9.413
REMARK  Name = 
REMARK  10 active torsions:
REMARK  status: ('A' for Active; 'I' for Inactive)
REMARK    1  A    between atoms: C_2  and  C_4
REMARK    2  A    between atoms: N_7  and  C_8
REMARK    3  A    between atoms: C_10  and  C_11
REMARK    4  A    between atoms: C_11  and  N_12
REMARK    5  A    between atoms: N_12  and  C_13
REMARK    6  A    between atoms: C_13  and  C_14
REMARK    7  A    between atoms: C_19  and  C_20
REMARK    8  A    between atoms: C_21  and  C_22
REMARK    9  A    between atoms: C_28  and  O_29
REMARK   10  A    between atoms: C_30  and  O_31
REMARK                            x       y       z     vdW  Elec       q    Type
REMARK                         _______ _______ _______ _____ _____    ______ ____
ROOT
ATOM      1  C   UNL     1      -0.019  10.681  21.067  0.00  0.00    +0.000 C 
ATOM      2  O   UNL     1       1.129  10.383  20.234  0.00  0.00    +0.000 OA
ATOM      3  C   UNL     1       1.757   9.177  20.727  0.00  0.00    +0.000 C 
ATOM      4  C   UNL     1       1.048   8.819  22.040  0.00  0.00    +0.000 C 
ATOM      5  C   UNL     1      -0.334   9.427  21.872  0.00  0.00    +0.000 C 
ENDROOT
BRANCH   1   9
ATOM      6  C   UNL     1      -2.384  11.316  18.576  0.00  0.00    +0.000 A 
ATOM      7  N   UNL     1      -2.713  12.373  19.408  0.00  0.00    +0.000 NA
ATOM      8  C   UNL     1      -1.942  12.196  20.455  0.00  0.00    +0.000 A 
ATOM      9  N   UNL     1      -1.122  11.132  20.239  0.00  0.00    +0.000 N 
ATOM     10  N   UNL     1      -1.414  10.521  19.072  0.00  0.00    +0.000 NA
BRANCH   6  12
ATOM     11  N   UNL     1      -2.384  11.597  16.189  0.00  0.00    +0.000 N 
ATOM     12  C   UNL     1      -3.024  11.057  17.276  0.00  0.00    +0.000 C 
ATOM     13  O   UNL     1      -4.051  10.404  17.119  0.00  0.00    +0.000 OA
ATOM     14  H   UNL     1      -2.734  11.360  15.275  0.00  0.00    +0.000 HD
ATOM     15  H   UNL     1      -1.471  12.021  16.300  0.00  0.00    +0.000 HD
ENDBRANCH   6  12
ENDBRANCH   1   9
BRANCH   4  16
ATOM     16  O   UNL     1       1.672   9.442  23.183  0.00  0.00    +0.000 OA
ATOM     17  H   UNL     1       1.606   8.849  23.955  0.00  0.00    +0.000 HD
ENDBRANCH   4  16
BRANCH   5  18
ATOM     18  O   UNL     1      -0.947   9.714  23.128  0.00  0.00    +0.000 OA
ATOM     19  H   UNL     1      -0.886   8.892  23.660  0.00  0.00    +0.000 HD
ENDBRANCH   5  18
BRANCH   3  20
ATOM     20  C   UNL     1       1.674   8.085  19.641  0.00  0.00    +0.000 C 
BRANCH  20  21
ATOM     21  N   UNL     1       2.440   6.896  20.022  0.00  0.00    +0.000 NA
ATOM     22  H   UNL     1       1.889   6.322  20.669  0.00  0.00    +0.000 HD
BRANCH  21  23
ATOM     23  C   UNL     1       2.772   6.063  18.863  0.00  0.00    +0.000 C 
BRANCH  23  24
ATOM     24  C   UNL     1       2.271   4.639  19.016  0.00  0.00    +0.000 A 
ATOM     25  C   UNL     1       1.372   4.278  20.038  0.00  0.00    +0.000 A 
ATOM     26  C   UNL     1       0.901   2.969  20.158  0.00  0.00    +0.000 A 
ATOM     27  C   UNL     1       1.342   1.988  19.277  0.00  0.00    +0.000 A 
ATOM     28  C   UNL     1       2.263   2.313  18.283  0.00  0.00    +0.000 A 
ATOM     29  C   UNL     1       2.733   3.626  18.154  0.00  0.00    +0.000 A 
BRANCH  29  30
ATOM     30  C   UNL     1       3.704   3.901  17.129  0.00  0.00    +0.000 C 
ATOM     31  C   UNL     1       4.516   4.103  16.279  0.00  0.00    +0.000 C 
BRANCH  31  32
ATOM     32  C   UNL     1       5.478   4.317  15.240  0.00  0.00    +0.000 A 
ATOM     33  C   UNL     1       5.327   3.664  14.013  0.00  0.00    +0.000 A 
ATOM     34  C   UNL     1       6.271   3.847  13.004  0.00  0.00    +0.000 A 
ATOM     35  C   UNL     1       7.367   4.684  13.217  0.00  0.00    +0.000 A 
ATOM     36  C   UNL     1       7.518   5.340  14.439  0.00  0.00    +0.000 A 
ATOM     37  C   UNL     1       6.574   5.157  15.452  0.00  0.00    +0.000 A 
ENDBRANCH  31  32
ENDBRANCH  29  30
ENDBRANCH  23  24
ENDBRANCH  21  23
ENDBRANCH  20  21
ENDBRANCH   3  20
TORSDOF 10
ENDMDL
MODEL 5
REMARK VINA RESULT:      -8.1      0.850      1.226
REMARK  Name = 
REMARK  10 active torsions:
REMARK  status: ('A' for Active; 'I' for Inactive)
REMARK    1  A    between atoms: C_2  and  C_4
REMARK    2  A    between atoms: N_7  and  C_8
REMARK    3  A    between atoms: C_10  and  C_11
REMARK    4  A    between atoms: C_11  and  N_12
REMARK    5  A    between atoms: N_12  and  C_13
REMARK    6  A    between atoms: C_13  and  C_14
REMARK    7  A    between atoms: C_19  and  C_20
REMARK    8  A    between atoms: C_21  and  C_22
REMARK    9  A    between atoms: C_28  and  O_29
REMARK   10  A    between atoms: C_30  and  O_31
REMARK                            x       y       z     vdW  Elec       q    Type
REMARK                         _______ _______ _______ _____ _____    ______ ____
ROOT
ATOM      1  C   UNL     1       3.829   4.399  17.811  0.00  0.00    +0.000 C 
ATOM      2  O   UNL     1       2.625   5.187  17.991  0.00  0.00    +0.000 OA
ATOM      3  C   UNL     1       2.352   5.293  19.407  0.00  0.00    +0.000 C 
ATOM      4  C   UNL     1       3.352   4.372  20.118  0.00  0.00    +0.000 C 
ATOM      5  C   UNL     1       4.531   4.326  19.160  0.00  0.00    +0.000 C 
ENDROOT
BRANCH   1   9
ATOM      6  C   UNL     1       5.961   5.113  15.138  0.00  0.00    +0.000 A 
ATOM      7  N   UNL     1       5.869   6.400  15.641  0.00  0.00    +0.000 NA
ATOM      8  C   UNL     1       5.002   6.290  16.620  0.00  0.00    +0.000 A 
ATOM      9  N   UNL     1       4.644   4.985  16.763  0.00  0.00    +0.000 N 
ATOM     10  N   UNL     1       5.200   4.219  15.802  0.00  0.00    +0.000 NA
BRANCH   6  12
ATOM     11  N   UNL     1       6.482   3.531  13.405  0.00  0.00    +0.000 N 
ATOM     12  C   UNL     1       6.794   4.735  13.985  0.00  0.00    +0.000 C 
ATOM     13  O   UNL     1       7.707   5.416  13.527  0.00  0.00    +0.000 OA
ATOM     14  H   UNL     1       6.961   3.283  12.555  0.00  0.00    +0.000 HD
ATOM     15  H   UNL     1       5.649   3.032  13.694  0.00  0.00    +0.000 HD
ENDBRANCH   6  12
ENDBRANCH   1   9
BRANCH   4  16
ATOM     16  O   UNL     1       2.845   3.029  20.265  0.00  0.00    +0.000 OA
ATOM     17  H   UNL     1       3.403   2.536  20.896  0.00  0.00    +0.000 HD
ENDBRANCH   4  16
BRANCH   5  18
ATOM     18  O   UNL     1       5.301   3.135  19.320  0.00  0.00    +0.000 OA
ATOM     19  H   UNL     1       5.804   3.240  20.156  0.00  0.00    +0.000 HD
ENDBRANCH   5  18
BRANCH   3  20
ATOM     20  C   UNL     1       2.442   6.774  19.828  0.00  0.00    +0.000 C 
BRANCH  20  21
ATOM     21  N   UNL     1       1.763   7.644  18.864  0.00  0.00    +0.000 NA
ATOM     22  H   UNL     1       0.782   7.357  18.770  0.00  0.00    +0.000 HD
BRANCH  21  23
ATOM     23  C   UNL     1       1.775   9.047  19.287  0.00  0.00    +0.000 C 
BRANCH  23  24
ATOM     24  C   UNL     1       1.122   9.245  20.642  0.00  0.00    +0.000 A 
ATOM     25  C   UNL     1       1.799   8.942  21.839  0.00  0.00    +0.000 A 
ATOM     26  C   UNL     1       1.197   9.147  23.083  0.00  0.00    +0.000 A 
ATOM     27  C   UNL     1      -0.104   9.631  23.154  0.00  0.00    +0.000 A 
ATOM     28  C   UNL     1      -0.808   9.900  21.981  0.00  0.00    +0.000 A 
ATOM     29  C   UNL     1      -0.205   9.702  20.732  0.00  0.00    +0.000 A 
BRANCH  29  30
ATOM     30  C   UNL     1      -0.987   9.969  19.554  0.00  0.00    +0.000 C 
ATOM     31  C   UNL     1      -1.644  10.165  18.577  0.00  0.00    +0.000 C 
BRANCH  31  32
ATOM     32  C   UNL     1      -2.461  10.385  17.422  0.00  0.00    +0.000 A 
ATOM     33  C   UNL     1      -2.097   9.814  16.200  0.00  0.00    +0.000 A 
ATOM     34  C   UNL     1      -2.874  10.042  15.064  0.00  0.00    +0.000 A 
ATOM     35  C   UNL     1      -4.015  10.838  15.148  0.00  0.00    +0.000 A 
ATOM     36  C   UNL     1      -4.384  11.405  16.368  0.00  0.00    +0.000 A 
ATOM     37  C   UNL     1      -3.606  11.180  17.507  0.00  0.00    +0.000 A 
ENDBRANCH  31  32
ENDBRANCH  29  30
ENDBRANCH  23  24
ENDBRANCH  21  23
ENDBRANCH  20  21
ENDBRANCH   3  20
TORSDOF 10
ENDMDL
MODEL 6
REMARK VINA RESULT:      -8.1      2.305      4.108
REMARK  Name = 
REMARK  10 active torsions:
REMARK  status: ('A' for Active; 'I' for Inactive)
REMARK    1  A    between atoms: C_2  and  C_4
REMARK    2  A    between atoms: N_7  and  C_8
REMARK    3  A    between atoms: C_10  and  C_11
REMARK    4  A    between atoms: C_11  and  N_12
REMARK    5  A    between atoms: N_12  and  C_13
REMARK    6  A    between atoms: C_13  and  C_14
REMARK    7  A    between atoms: C_19  and  C_20
REMARK    8  A    between atoms: C_21  and  C_22
REMARK    9  A    between atoms: C_28  and  O_29
REMARK   10  A    between atoms: C_30  and  O_31
REMARK                            x       y       z     vdW  Elec       q    Type
REMARK                         _______ _______ _______ _____ _____    ______ ____
ROOT
ATOM      1  C   UNL     1       4.980   4.828  18.282  0.00  0.00    +0.000 C 
ATOM      2  O   UNL     1       4.667   6.164  18.747  0.00  0.00    +0.000 OA
ATOM      3  C   UNL     1       4.533   7.032  17.599  0.00  0.00    +0.000 C 
ATOM      4  C   UNL     1       4.960   6.211  16.376  0.00  0.00    +0.000 C 
ATOM      5  C   UNL     1       4.668   4.779  16.793  0.00  0.00    +0.000 C 
ENDROOT
BRANCH   1   9
ATOM      6  C   UNL     1       2.768   3.045  20.314  0.00  0.00    +0.000 A 
ATOM      7  N   UNL     1       3.768   2.089  20.258  0.00  0.00    +0.000 NA
ATOM      8  C   UNL     1       4.645   2.605  19.430  0.00  0.00    +0.000 A 
ATOM      9  N   UNL     1       4.242   3.852  19.062  0.00  0.00    +0.000 N 
ATOM     10  N   UNL     1       3.025   4.140  19.570  0.00  0.00    +0.000 NA
BRANCH   6  12
ATOM     11  N   UNL     1       0.366   3.079  20.390  0.00  0.00    +0.000 N 
ATOM     12  C   UNL     1       1.528   2.899  21.095  0.00  0.00    +0.000 C 
ATOM     13  O   UNL     1       1.483   2.627  22.292  0.00  0.00    +0.000 OA
ATOM     14  H   UNL     1      -0.503   2.890  20.864  0.00  0.00    +0.000 HD
ATOM     15  H   UNL     1       0.395   3.171  19.382  0.00  0.00    +0.000 HD
ENDBRANCH   6  12
ENDBRANCH   1   9
BRANCH   4  16
ATOM     16  O   UNL     1       6.375   6.318  16.115  0.00  0.00    +0.000 OA
ATOM     17  H   UNL     1       6.536   7.032  15.469  0.00  0.00    +0.000 HD
ENDBRANCH   4  16
BRANCH   5  18
ATOM     18  O   UNL     1       5.480   3.842  16.086  0.00  0.00    +0.000 OA
ATOM     19  H   UNL     1       4.997   2.988  16.105  0.00  0.00    +0.000 HD
ENDBRANCH   5  18
BRANCH   3  20
ATOM     20  C   UNL     1       3.086   7.564  17.534  0.00  0.00    +0.000 C 
BRANCH  20  21
ATOM     21  N   UNL     1       2.531   7.762  18.876  0.00  0.00    +0.000 NA
ATOM     22  H   UNL     1       3.289   7.959  19.538  0.00  0.00    +0.000 HD
BRANCH  21  23
ATOM     23  C   UNL     1       1.597   8.890  18.922  0.00  0.00    +0.000 C 
BRANCH  23  24
ATOM     24  C   UNL     1       1.073   9.146  20.323  0.00  0.00    +0.000 A 
ATOM     25  C   UNL     1       1.811   8.780  21.466  0.00  0.00    +0.000 A 
ATOM     26  C   UNL     1       1.330   9.038  22.751  0.00  0.00    +0.000 A 
ATOM     27  C   UNL     1       0.088   9.639  22.921  0.00  0.00    +0.000 A 
ATOM     28  C   UNL     1      -0.677   9.974  21.805  0.00  0.00    +0.000 A 
ATOM     29  C   UNL     1      -0.196   9.723  20.514  0.00  0.00    +0.000 A 
BRANCH  29  30
ATOM     30  C   UNL     1      -1.039  10.062  19.399  0.00  0.00    +0.000 C 
ATOM     31  C   UNL     1      -1.744  10.318  18.471  0.00  0.00    +0.000 C 
BRANCH  31  32
ATOM     32  C   UNL     1      -2.617  10.603  17.372  0.00  0.00    +0.000 A 
ATOM     33  C   UNL     1      -3.753  11.389  17.579  0.00  0.00    +0.000 A 
ATOM     34  C   UNL     1      -4.622  11.653  16.520  0.00  0.00    +0.000 A 
ATOM     35  C   UNL     1      -4.355  11.134  15.253  0.00  0.00    +0.000 A 
ATOM     36  C   UNL     1      -3.218  10.353  15.043  0.00  0.00    +0.000 A 
ATOM     37  C   UNL     1      -2.348  10.086  16.103  0.00  0.00    +0.000 A 
ENDBRANCH  31  32
ENDBRANCH  29  30
ENDBRANCH  23  24
ENDBRANCH  21  23
ENDBRANCH  20  21
ENDBRANCH   3  20
TORSDOF 10
ENDMDL
MODEL 7
REMARK VINA RESULT:      -8.1      3.860      6.157
REMARK  Name = 
REMARK  10 active torsions:
REMARK  status: ('A' for Active; 'I' for Inactive)
REMARK    1  A    between atoms: C_2  and  C_4
REMARK    2  A    between atoms: N_7  and  C_8
REMARK    3  A    between atoms: C_10  and  C_11
REMARK    4  A    between atoms: C_11  and  N_12
REMARK    5  A    between atoms: N_12  and  C_13
REMARK    6  A    between atoms: C_13  and  C_14
REMARK    7  A    between atoms: C_19  and  C_20
REMARK    8  A    between atoms: C_21  and  C_22
REMARK    9  A    between atoms: C_28  and  O_29
REMARK   10  A    between atoms: C_30  and  O_31
REMARK                            x       y       z     vdW  Elec       q    Type
REMARK                         _______ _______ _______ _____ _____    ______ ____
ROOT
ATOM      1  C   UNL     1       7.865   7.174  17.728  0.00  0.00    +0.000 C 
ATOM      2  O   UNL     1       6.881   7.283  16.671  0.00  0.00    +0.000 OA
ATOM      3  C   UNL     1       5.866   6.274  16.879  0.00  0.00    +0.000 C 
ATOM      4  C   UNL     1       6.357   5.390  18.033  0.00  0.00    +0.000 C 
ATOM      5  C   UNL     1       7.255   6.320  18.831  0.00  0.00    +0.000 C 
ENDROOT
BRANCH   1   9
ATOM      6  C   UNL     1       8.607  10.564  18.121  0.00  0.00    +0.000 A 
ATOM      7  N   UNL     1       9.268  10.106  19.248  0.00  0.00    +0.000 NA
ATOM      8  C   UNL     1       8.986   8.824  19.273  0.00  0.00    +0.000 A 
ATOM      9  N   UNL     1       8.259   8.499  18.170  0.00  0.00    +0.000 N 
ATOM     10  N   UNL     1       7.959   9.595  17.443  0.00  0.00    +0.000 NA
BRANCH   6  12
ATOM     11  N   UNL     1       9.703  12.701  18.022  0.00  0.00    +0.000 N 
ATOM     12  C   UNL     1       8.590  11.971  17.689  0.00  0.00    +0.000 C 
ATOM     13  O   UNL     1       7.676  12.501  17.064  0.00  0.00    +0.000 OA
ATOM     14  H   UNL     1       9.774  13.638  17.659  0.00  0.00    +0.000 HD
ATOM     15  H   UNL     1      10.512  12.237  18.418  0.00  0.00    +0.000 HD
ENDBRANCH   6  12
ENDBRANCH   1   9
BRANCH   4  16
ATOM     16  O   UNL     1       7.160   4.285  17.568  0.00  0.00    +0.000 OA
ATOM     17  H   UNL     1       7.682   3.925  18.310  0.00  0.00    +0.000 HD
ENDBRANCH   4  16
BRANCH   5  18
ATOM     18  O   UNL     1       8.233   5.601  19.581  0.00  0.00    +0.000 OA
ATOM     19  H   UNL     1       9.108   5.881  19.237  0.00  0.00    +0.000 HD
ENDBRANCH   5  18
BRANCH   3  20
ATOM     20  C   UNL     1       4.512   6.966  17.138  0.00  0.00    +0.000 C 
BRANCH  20  21
ATOM     21  N   UNL     1       3.861   6.430  18.337  0.00  0.00    +0.000 NA
ATOM     22  H   UNL     1       3.635   7.197  18.980  0.00  0.00    +0.000 HD
BRANCH  21  23
ATOM     23  C   UNL     1       2.612   5.735  18.019  0.00  0.00    +0.000 C 
BRANCH  23  24
ATOM     24  C   UNL     1       2.323   4.600  18.984  0.00  0.00    +0.000 A 
ATOM     25  C   UNL     1       2.600   3.260  18.652  0.00  0.00    +0.000 A 
ATOM     26  C   UNL     1       2.350   2.225  19.554  0.00  0.00    +0.000 A 
ATOM     27  C   UNL     1       1.788   2.504  20.795  0.00  0.00    +0.000 A 
ATOM     28  C   UNL     1       1.467   3.819  21.129  0.00  0.00    +0.000 A 
ATOM     29  C   UNL     1       1.724   4.861  20.230  0.00  0.00    +0.000 A 
BRANCH  29  30
ATOM     30  C   UNL     1       1.346   6.195  20.614  0.00  0.00    +0.000 C 
ATOM     31  C   UNL     1       1.009   7.296  20.927  0.00  0.00    +0.000 C 
BRANCH  31  32
ATOM     32  C   UNL     1       0.576   8.603  21.320  0.00  0.00    +0.000 A 
ATOM     33  C   UNL     1       0.848   9.698  20.496  0.00  0.00    +0.000 A 
ATOM     34  C   UNL     1       0.451  10.979  20.882  0.00  0.00    +0.000 A 
ATOM     35  C   UNL     1      -0.221  11.166  22.090  0.00  0.00    +0.000 A 
ATOM     36  C   UNL     1      -0.498  10.074  22.912  0.00  0.00    +0.000 A 
ATOM     37  C   UNL     1      -0.100   8.791  22.528  0.00  0.00    +0.000 A 
ENDBRANCH  31  32
ENDBRANCH  29  30
ENDBRANCH  23  24
ENDBRANCH  21  23
ENDBRANCH  20  21
ENDBRANCH   3  20
TORSDOF 10
ENDMDL
MODEL 8
REMARK VINA RESULT:      -8.0      5.253      8.123
REMARK  Name = 
REMARK  10 active torsions:
REMARK  status: ('A' for Active; 'I' for Inactive)
REMARK    1  A    between atoms: C_2  and  C_4
REMARK    2  A    between atoms: N_7  and  C_8
REMARK    3  A    between atoms: C_10  and  C_11
REMARK    4  A    between atoms: C_11  and  N_12
REMARK    5  A    between atoms: N_12  and  C_13
REMARK    6  A    between atoms: C_13  and  C_14
REMARK    7  A    between atoms: C_19  and  C_20
REMARK    8  A    between atoms: C_21  and  C_22
REMARK    9  A    between atoms: C_28  and  O_29
REMARK   10  A    between atoms: C_30  and  O_31
REMARK                            x       y       z     vdW  Elec       q    Type
REMARK                         _______ _______ _______ _____ _____    ______ ____
ROOT
ATOM      1  C   UNL     1       7.975   7.319  17.914  0.00  0.00    +0.000 C 
ATOM      2  O   UNL     1       6.951   7.359  16.889  0.00  0.00    +0.000 OA
ATOM      3  C   UNL     1       5.926   6.396  17.224  0.00  0.00    +0.000 C 
ATOM      4  C   UNL     1       6.444   5.605  18.432  0.00  0.00    +0.000 C 
ATOM      5  C   UNL     1       7.392   6.579  19.111  0.00  0.00    +0.000 C 
ENDROOT
BRANCH   1   9
ATOM      6  C   UNL     1       9.196  10.280  19.307  0.00  0.00    +0.000 A 
ATOM      7  N   UNL     1       8.588  10.842  18.198  0.00  0.00    +0.000 NA
ATOM      8  C   UNL     1       8.155   9.805  17.521  0.00  0.00    +0.000 A 
ATOM      9  N   UNL     1       8.413   8.667  18.222  0.00  0.00    +0.000 N 
ATOM     10  N   UNL     1       9.119   8.933  19.340  0.00  0.00    +0.000 NA
BRANCH   6  12
ATOM     11  N   UNL     1       9.235  11.092  21.569  0.00  0.00    +0.000 N 
ATOM     12  C   UNL     1       9.877  11.054  20.358  0.00  0.00    +0.000 C 
ATOM     13  O   UNL     1      10.950  11.635  20.215  0.00  0.00    +0.000 OA
ATOM     14  H   UNL     1       9.715  11.527  22.340  0.00  0.00    +0.000 HD
ATOM     15  H   UNL     1       8.422  10.509  21.728  0.00  0.00    +0.000 HD
ENDBRANCH   6  12
ENDBRANCH   1   9
BRANCH   4  16
ATOM     16  O   UNL     1       7.206   4.444  18.037  0.00  0.00    +0.000 OA
ATOM     17  H   UNL     1       7.501   3.960  18.831  0.00  0.00    +0.000 HD
ENDBRANCH   4  16
BRANCH   5  18
ATOM     18  O   UNL     1       8.385   5.905  19.883  0.00  0.00    +0.000 OA
ATOM     19  H   UNL     1       8.030   5.840  20.795  0.00  0.00    +0.000 HD
ENDBRANCH   5  18
BRANCH   3  20
ATOM     20  C   UNL     1       4.597   7.140  17.473  0.00  0.00    +0.000 C 
BRANCH  20  21
ATOM     21  N   UNL     1       3.764   6.430  18.448  0.00  0.00    +0.000 NA
ATOM     22  H   UNL     1       3.414   7.091  19.150  0.00  0.00    +0.000 HD
BRANCH  21  23
ATOM     23  C   UNL     1       2.603   5.795  17.818  0.00  0.00    +0.000 C 
BRANCH  23  24
ATOM     24  C   UNL     1       2.423   4.356  18.263  0.00  0.00    +0.000 A 
ATOM     25  C   UNL     1       1.641   4.022  19.386  0.00  0.00    +0.000 A 
ATOM     26  C   UNL     1       1.464   2.693  19.775  0.00  0.00    +0.000 A 
ATOM     27  C   UNL     1       2.090   1.672  19.069  0.00  0.00    +0.000 A 
ATOM     28  C   UNL     1       2.901   1.982  17.978  0.00  0.00    +0.000 A 
ATOM     29  C   UNL     1       3.075   3.313  17.580  0.00  0.00    +0.000 A 
BRANCH  29  30
ATOM     30  C   UNL     1       3.946   3.578  16.466  0.00  0.00    +0.000 C 
ATOM     31  C   UNL     1       4.686   3.781  15.552  0.00  0.00    +0.000 C 
BRANCH  31  32
ATOM     32  C   UNL     1       5.580   3.989  14.453  0.00  0.00    +0.000 A 
ATOM     33  C   UNL     1       6.732   4.759  14.636  0.00  0.00    +0.000 A 
ATOM     34  C   UNL     1       7.596   4.988  13.565  0.00  0.00    +0.000 A 
ATOM     35  C   UNL     1       7.314   4.444  12.313  0.00  0.00    +0.000 A 
ATOM     36  C   UNL     1       6.168   3.671  12.129  0.00  0.00    +0.000 A 
ATOM     37  C   UNL     1       5.299   3.442  13.199  0.00  0.00    +0.000 A 
ENDBRANCH  31  32
ENDBRANCH  29  30
ENDBRANCH  23  24
ENDBRANCH  21  23
ENDBRANCH  20  21
ENDBRANCH   3  20
TORSDOF 10
ENDMDL
MODEL 9
REMARK VINA RESULT:      -8.0      3.949      6.167
REMARK  Name = 
REMARK  10 active torsions:
REMARK  status: ('A' for Active; 'I' for Inactive)
REMARK    1  A    between atoms: C_2  and  C_4
REMARK    2  A    between atoms: N_7  and  C_8
REMARK    3  A    between atoms: C_10  and  C_11
REMARK    4  A    between atoms: C_11  and  N_12
REMARK    5  A    between atoms: N_12  and  C_13
REMARK    6  A    between atoms: C_13  and  C_14
REMARK    7  A    between atoms: C_19  and  C_20
REMARK    8  A    between atoms: C_21  and  C_22
REMARK    9  A    between atoms: C_28  and  O_29
REMARK   10  A    between atoms: C_30  and  O_31
REMARK                            x       y       z     vdW  Elec       q    Type
REMARK                         _______ _______ _______ _____ _____    ______ ____
ROOT
ATOM      1  C   UNL     1       8.118   7.347  17.886  0.00  0.00    +0.000 C 
ATOM      2  O   UNL     1       7.169   7.366  16.791  0.00  0.00    +0.000 OA
ATOM      3  C   UNL     1       6.208   6.305  16.996  0.00  0.00    +0.000 C 
ATOM      4  C   UNL     1       6.705   5.489  18.196  0.00  0.00    +0.000 C 
ATOM      5  C   UNL     1       7.517   6.494  18.994  0.00  0.00    +0.000 C 
ENDROOT
BRANCH   1   9
ATOM      6  C   UNL     1       8.728  10.775  18.171  0.00  0.00    +0.000 A 
ATOM      7  N   UNL     1       9.230  10.401  19.406  0.00  0.00    +0.000 NA
ATOM      8  C   UNL     1       8.974   9.116  19.470  0.00  0.00    +0.000 A 
ATOM      9  N   UNL     1       8.418   8.706  18.297  0.00  0.00    +0.000 N 
ATOM     10  N   UNL     1       8.203   9.749  17.469  0.00  0.00    +0.000 NA
BRANCH   6  12
ATOM     11  N   UNL     1       7.605  12.550  17.002  0.00  0.00    +0.000 N 
ATOM     12  C   UNL     1       8.744  12.153  17.655  0.00  0.00    +0.000 C 
ATOM     13  O   UNL     1       9.681  12.937  17.782  0.00  0.00    +0.000 OA
ATOM     14  H   UNL     1       7.537  13.515  16.722  0.00  0.00    +0.000 HD
ATOM     15  H   UNL     1       6.785  11.955  17.012  0.00  0.00    +0.000 HD
ENDBRANCH   6  12
ENDBRANCH   1   9
BRANCH   4  16
ATOM     16  O   UNL     1       7.588   4.419  17.797  0.00  0.00    +0.000 OA
ATOM     17  H   UNL     1       8.445   4.516  18.252  0.00  0.00    +0.000 HD
ENDBRANCH   4  16
BRANCH   5  18
ATOM     18  O   UNL     1       8.507   5.858  19.802  0.00  0.00    +0.000 OA
ATOM     19  H   UNL     1       8.823   6.534  20.438  0.00  0.00    +0.000 HD
ENDBRANCH   5  18
BRANCH   3  20
ATOM     20  C   UNL     1       4.807   6.924  17.184  0.00  0.00    +0.000 C 
BRANCH  20  21
ATOM     21  N   UNL     1       3.763   5.896  17.164  0.00  0.00    +0.000 NA
ATOM     22  H   UNL     1       4.180   4.977  17.348  0.00  0.00    +0.000 HD
BRANCH  21  23
ATOM     23  C   UNL     1       2.740   6.132  18.185  0.00  0.00    +0.000 C 
BRANCH  23  24
ATOM     24  C   UNL     1       2.652   4.995  19.186  0.00  0.00    +0.000 A 
ATOM     25  C   UNL     1       3.085   3.694  18.864  0.00  0.00    +0.000 A 
ATOM     26  C   UNL     1       3.019   2.658  19.798  0.00  0.00    +0.000 A 
ATOM     27  C   UNL     1       2.490   2.894  21.062  0.00  0.00    +0.000 A 
ATOM     28  C   UNL     1       2.019   4.164  21.389  0.00  0.00    +0.000 A 
ATOM     29  C   UNL     1       2.090   5.208  20.458  0.00  0.00    +0.000 A 
BRANCH  29  30
ATOM     30  C   UNL     1       1.562   6.491  20.837  0.00  0.00    +0.000 C 
ATOM     31  C   UNL     1       1.129   7.564  21.128  0.00  0.00    +0.000 C 
BRANCH  31  32
ATOM     32  C   UNL     1       0.589   8.852  21.446  0.00  0.00    +0.000 A 
ATOM     33  C   UNL     1      -0.102   9.034  22.647  0.00  0.00    +0.000 A 
ATOM     34  C   UNL     1      -0.652  10.278  22.955  0.00  0.00    +0.000 A 
ATOM     35  C   UNL     1      -0.509  11.342  22.065  0.00  0.00    +0.000 A 
ATOM     36  C   UNL     1       0.185  11.165  20.868  0.00  0.00    +0.000 A 
ATOM     37  C   UNL     1       0.734   9.919  20.557  0.00  0.00    +0.000 A 
ENDBRANCH  31  32
ENDBRANCH  29  30
ENDBRANCH  23  24
ENDBRANCH  21  23
ENDBRANCH  20  21
ENDBRANCH   3  20
TORSDOF 10
ENDMDL
