MODEL 1
REMARK VINA RESULT:      -8.1      0.000      0.000
REMARK  Name = 
REMARK  6 active torsions:
REMARK  status: ('A' for Active; 'I' for Inactive)
REMARK    1  A    between atoms: C_1  and  C_2
REMARK    2  A    between atoms: C_4  and  C_5
REMARK    3  A    between atoms: C_6  and  S_7
REMARK    4  A    between atoms: S_7  and  N_10
REMARK    5  A    between atoms: C_14  and  C_16
REMARK    6  A    between atoms: C_27  and  C_28
REMARK                            x       y       z     vdW  Elec       q    Type
REMARK                         _______ _______ _______ _____ _____    ______ ____
ROOT
ATOM      1  N   UNL     1       0.028  11.028  19.634  0.00  0.00    +0.000 NA
ATOM      2  C   UNL     1       0.631  10.995  18.288  0.00  0.00    +0.000 C 
ATOM      3  C   UNL     1       1.922  10.180  18.317  0.00  0.00    +0.000 C 
ATOM      4  N   UNL     1       1.683   8.816  18.802  0.00  0.00    +0.000 N 
ATOM      5  C   UNL     1       2.555   7.822  18.323  0.00  0.00    +0.000 C 
ATOM      6  O   UNL     1       3.446   8.117  17.524  0.00  0.00    +0.000 OA
ATOM      7  C   UNL     1       1.022   8.751  20.115  0.00  0.00    +0.000 C 
ATOM      8  C   UNL     1      -0.180   9.707  20.267  0.00  0.00    +0.000 C 
ENDROOT
BRANCH   5   9
ATOM      9  C   UNL     1       2.406   6.447  18.764  0.00  0.00    +0.000 A 
ATOM     10  C   UNL     1       2.069   5.327  18.023  0.00  0.00    +0.000 A 
ATOM     11  C   UNL     1       1.937   4.247  18.929  0.00  0.00    +0.000 A 
ATOM     12  C   UNL     1       1.621   2.882  18.821  0.00  0.00    +0.000 A 
ATOM     13  C   UNL     1       1.564   2.112  19.993  0.00  0.00    +0.000 A 
ATOM     14  C   UNL     1       1.813   2.687  21.243  0.00  0.00    +0.000 A 
ATOM     15  C   UNL     1       2.129   4.045  21.368  0.00  0.00    +0.000 A 
ATOM     16  C   UNL     1       2.182   4.782  20.187  0.00  0.00    +0.000 A 
ATOM     17  O   UNL     1       2.466   6.112  20.092  0.00  0.00    +0.000 OA
ENDBRANCH   5   9
BRANCH   1  18
ATOM     18  S   UNL     1       0.010  12.468  20.486  0.00  0.00    +0.000 S 
ATOM     19  O   UNL     1       0.424  13.473  19.534  0.00  0.00    +0.000 OA
ATOM     20  O   UNL     1       0.733  12.303  21.732  0.00  0.00    +0.000 OA
BRANCH  18  26
ATOM     21  C   UNL     1      -5.912  13.045  22.085  0.00  0.00    +0.000 C 
ATOM     22  C   UNL     1      -4.469  12.917  21.697  0.00  0.00    +0.000 A 
ATOM     23  C   UNL     1      -3.446  13.271  22.570  0.00  0.00    +0.000 A 
ATOM     24  C   UNL     1      -2.090  13.174  22.195  0.00  0.00    +0.000 A 
ATOM     25  C   UNL     1      -1.089  13.616  23.232  0.00  0.00    +0.000 C 
ATOM     26  C   UNL     1      -1.746  12.681  20.903  0.00  0.00    +0.000 A 
ATOM     27  C   UNL     1      -2.784  12.382  19.987  0.00  0.00    +0.000 A 
ATOM     28  C   UNL     1      -2.646  12.002  18.538  0.00  0.00    +0.000 C 
ATOM     29  C   UNL     1      -4.127  12.469  20.423  0.00  0.00    +0.000 A 
ENDBRANCH  18  26
ENDBRANCH   1  18
TORSDOF 3
ENDMDL
MODEL 2
REMARK VINA RESULT:      -8.0      3.625      9.829
REMARK  Name = 
REMARK  6 active torsions:
REMARK  status: ('A' for Active; 'I' for Inactive)
REMARK    1  A    between atoms: C_1  and  C_2
REMARK    2  A    between atoms: C_4  and  C_5
REMARK    3  A    between atoms: C_6  and  S_7
REMARK    4  A    between atoms: S_7  and  N_10
REMARK    5  A    between atoms: C_14  and  C_16
REMARK    6  A    between atoms: C_27  and  C_28
REMARK                            x       y       z     vdW  Elec       q    Type
REMARK                         _______ _______ _______ _____ _____    ______ ____
ROOT
ATOM      1  N   UNL     1       3.312   5.584  18.952  0.00  0.00    +0.000 NA
ATOM      2  C   UNL     1       2.177   5.178  19.802  0.00  0.00    +0.000 C 
ATOM      3  C   UNL     1       1.892   6.261  20.841  0.00  0.00    +0.000 C 
ATOM      4  N   UNL     1       1.615   7.554  20.203  0.00  0.00    +0.000 N 
ATOM      5  C   UNL     1       0.772   8.429  20.910  0.00  0.00    +0.000 C 
ATOM      6  O   UNL     1       0.293   8.083  21.992  0.00  0.00    +0.000 OA
ATOM      7  C   UNL     1       2.670   8.010  19.284  0.00  0.00    +0.000 C 
ATOM      8  C   UNL     1       3.188   6.918  18.324  0.00  0.00    +0.000 C 
ENDROOT
BRANCH   5   9
ATOM      9  C   UNL     1       0.459   9.738  20.367  0.00  0.00    +0.000 A 
ATOM     10  C   UNL     1      -0.454  10.075  19.382  0.00  0.00    +0.000 A 
ATOM     11  C   UNL     1      -0.302  11.459  19.124  0.00  0.00    +0.000 A 
ATOM     12  C   UNL     1      -0.908  12.390  18.262  0.00  0.00    +0.000 A 
ATOM     13  C   UNL     1      -0.452  13.716  18.281  0.00  0.00    +0.000 A 
ATOM     14  C   UNL     1       0.585  14.108  19.133  0.00  0.00    +0.000 A 
ATOM     15  C   UNL     1       1.199  13.194  19.997  0.00  0.00    +0.000 A 
ATOM     16  C   UNL     1       0.722  11.885  19.959  0.00  0.00    +0.000 A 
ATOM     17  O   UNL     1       1.185  10.848  20.712  0.00  0.00    +0.000 OA
ENDBRANCH   5   9
BRANCH   1  18
ATOM     18  S   UNL     1       4.764   4.761  19.080  0.00  0.00    +0.000 S 
ATOM     19  O   UNL     1       4.410   3.451  19.576  0.00  0.00    +0.000 OA
ATOM     20  O   UNL     1       5.723   5.577  19.798  0.00  0.00    +0.000 OA
BRANCH  18  26
ATOM     21  C   UNL     1       6.688   4.148  13.259  0.00  0.00    +0.000 C 
ATOM     22  C   UNL     1       6.210   4.304  14.672  0.00  0.00    +0.000 A 
ATOM     23  C   UNL     1       5.022   3.724  15.106  0.00  0.00    +0.000 A 
ATOM     24  C   UNL     1       4.561   3.892  16.429  0.00  0.00    +0.000 A 
ATOM     25  C   UNL     1       3.246   3.228  16.753  0.00  0.00    +0.000 C 
ATOM     26  C   UNL     1       5.330   4.650  17.356  0.00  0.00    +0.000 A 
ATOM     27  C   UNL     1       6.506   5.297  16.902  0.00  0.00    +0.000 A 
ATOM     28  C   UNL     1       7.373   6.262  17.664  0.00  0.00    +0.000 C 
ATOM     29  C   UNL     1       6.940   5.072  15.575  0.00  0.00    +0.000 A 
ENDBRANCH  18  26
ENDBRANCH   1  18
TORSDOF 3
ENDMDL
MODEL 3
REMARK VINA RESULT:      -8.0      3.615      9.772
REMARK  Name = 
REMARK  6 active torsions:
REMARK  status: ('A' for Active; 'I' for Inactive)
REMARK    1  A    between atoms: C_1  and  C_2
REMARK    2  A    between atoms: C_4  and  C_5
REMARK    3  A    between atoms: C_6  and  S_7
REMARK    4  A    between atoms: S_7  and  N_10
REMARK    5  A    between atoms: C_14  and  C_16
REMARK    6  A    between atoms: C_27  and  C_28
REMARK                            x       y       z     vdW  Elec       q    Type
REMARK                         _______ _______ _______ _____ _____    ______ ____
ROOT
ATOM      1  N   UNL     1       3.264   5.501  19.033  0.00  0.00    +0.000 NA
ATOM      2  C   UNL     1       2.104   5.104  19.854  0.00  0.00    +0.000 C 
ATOM      3  C   UNL     1       1.804   6.189  20.887  0.00  0.00    +0.000 C 
ATOM      4  N   UNL     1       1.556   7.485  20.245  0.00  0.00    +0.000 N 
ATOM      5  C   UNL     1       0.703   8.368  20.932  0.00  0.00    +0.000 C 
ATOM      6  O   UNL     1       0.195   8.025  22.001  0.00  0.00    +0.000 OA
ATOM      7  C   UNL     1       2.637   7.932  19.352  0.00  0.00    +0.000 C 
ATOM      8  C   UNL     1       3.168   6.836  18.404  0.00  0.00    +0.000 C 
ENDROOT
BRANCH   5   9
ATOM      9  C   UNL     1       0.417   9.680  20.382  0.00  0.00    +0.000 A 
ATOM     10  C   UNL     1      -0.460  10.026  19.368  0.00  0.00    +0.000 A 
ATOM     11  C   UNL     1      -0.292  11.409  19.120  0.00  0.00    +0.000 A 
ATOM     12  C   UNL     1      -0.862  12.347  18.241  0.00  0.00    +0.000 A 
ATOM     13  C   UNL     1      -0.400  13.671  18.280  0.00  0.00    +0.000 A 
ATOM     14  C   UNL     1       0.609  14.054  19.169  0.00  0.00    +0.000 A 
ATOM     15  C   UNL     1       1.188  13.133  20.050  0.00  0.00    +0.000 A 
ATOM     16  C   UNL     1       0.705  11.827  19.992  0.00  0.00    +0.000 A 
ATOM     17  O   UNL     1       1.137  10.785  20.756  0.00  0.00    +0.000 OA
ENDBRANCH   5   9
BRANCH   1  18
ATOM     18  S   UNL     1       4.704   4.664  19.196  0.00  0.00    +0.000 S 
ATOM     19  O   UNL     1       4.340   3.407  19.807  0.00  0.00    +0.000 OA
ATOM     20  O   UNL     1       5.694   5.518  19.822  0.00  0.00    +0.000 OA
BRANCH  18  26
ATOM     21  C   UNL     1       6.539   3.999  13.352  0.00  0.00    +0.000 C 
ATOM     22  C   UNL     1       6.101   4.151  14.778  0.00  0.00    +0.000 A 
ATOM     23  C   UNL     1       6.979   4.580  15.768  0.00  0.00    +0.000 A 
ATOM     24  C   UNL     1       6.572   4.700  17.113  0.00  0.00    +0.000 A 
ATOM     25  C   UNL     1       7.635   5.151  18.082  0.00  0.00    +0.000 C 
ATOM     26  C   UNL     1       5.227   4.400  17.475  0.00  0.00    +0.000 A 
ATOM     27  C   UNL     1       4.347   3.900  16.484  0.00  0.00    +0.000 A 
ATOM     28  C   UNL     1       2.950   3.379  16.679  0.00  0.00    +0.000 C 
ATOM     29  C   UNL     1       4.797   3.827  15.145  0.00  0.00    +0.000 A 
ENDBRANCH  18  26
ENDBRANCH   1  18
TORSDOF 3
ENDMDL
MODEL 4
REMARK VINA RESULT:      -7.9      0.215      1.641
REMARK  Name = 
REMARK  6 active torsions:
REMARK  status: ('A' for Active; 'I' for Inactive)
REMARK    1  A    between atoms: C_1  and  C_2
REMARK    2  A    between atoms: C_4  and  C_5
REMARK    3  A    between atoms: C_6  and  S_7
REMARK    4  A    between atoms: S_7  and  N_10
REMARK    5  A    between atoms: C_14  and  C_16
REMARK    6  A    between atoms: C_27  and  C_28
REMARK                            x       y       z     vdW  Elec       q    Type
REMARK                         _______ _______ _______ _____ _____    ______ ____
ROOT
ATOM      1  N   UNL     1      -0.064  10.999  19.552  0.00  0.00    +0.000 NA
ATOM      2  C   UNL     1       0.578  10.960  18.224  0.00  0.00    +0.000 C 
ATOM      3  C   UNL     1       1.880  10.165  18.302  0.00  0.00    +0.000 C 
ATOM      4  N   UNL     1       1.648   8.804  18.797  0.00  0.00    +0.000 N 
ATOM      5  C   UNL     1       2.549   7.818  18.357  0.00  0.00    +0.000 C 
ATOM      6  O   UNL     1       3.457   8.117  17.579  0.00  0.00    +0.000 OA
ATOM      7  C   UNL     1       0.950   8.745  20.092  0.00  0.00    +0.000 C 
ATOM      8  C   UNL     1      -0.270   9.684  20.196  0.00  0.00    +0.000 C 
ENDROOT
BRANCH   5   9
ATOM      9  C   UNL     1       2.409   6.447  18.812  0.00  0.00    +0.000 A 
ATOM     10  C   UNL     1       2.041   5.324  18.090  0.00  0.00    +0.000 A 
ATOM     11  C   UNL     1       1.936   4.250  19.006  0.00  0.00    +0.000 A 
ATOM     12  C   UNL     1       1.609   2.886  18.918  0.00  0.00    +0.000 A 
ATOM     13  C   UNL     1       1.589   2.124  20.096  0.00  0.00    +0.000 A 
ATOM     14  C   UNL     1       1.883   2.705  21.333  0.00  0.00    +0.000 A 
ATOM     15  C   UNL     1       2.209   4.062  21.438  0.00  0.00    +0.000 A 
ATOM     16  C   UNL     1       2.226   4.792  20.252  0.00  0.00    +0.000 A 
ATOM     17  O   UNL     1       2.512   6.120  20.139  0.00  0.00    +0.000 OA
ENDBRANCH   5   9
BRANCH   1  18
ATOM     18  S   UNL     1      -0.129  12.450  20.385  0.00  0.00    +0.000 S 
ATOM     19  O   UNL     1       0.202  13.460  19.406  0.00  0.00    +0.000 OA
ATOM     20  O   UNL     1       0.640  12.342  21.609  0.00  0.00    +0.000 OA
BRANCH  18  26
ATOM     21  C   UNL     1      -6.091  13.058  21.816  0.00  0.00    +0.000 C 
ATOM     22  C   UNL     1      -4.642  12.897  21.466  0.00  0.00    +0.000 A 
ATOM     23  C   UNL     1      -4.238  12.541  20.183  0.00  0.00    +0.000 A 
ATOM     24  C   UNL     1      -2.876  12.367  19.860  0.00  0.00    +0.000 A 
ATOM     25  C   UNL     1      -2.586  11.956  18.439  0.00  0.00    +0.000 C 
ATOM     26  C   UNL     1      -1.880  12.580  20.856  0.00  0.00    +0.000 A 
ATOM     27  C   UNL     1      -2.288  12.878  22.180  0.00  0.00    +0.000 A 
ATOM     28  C   UNL     1      -1.420  12.985  23.403  0.00  0.00    +0.000 C 
ATOM     29  C   UNL     1      -3.665  13.070  22.443  0.00  0.00    +0.000 A 
ENDBRANCH  18  26
ENDBRANCH   1  18
TORSDOF 3
ENDMDL
MODEL 5
REMARK VINA RESULT:      -7.9      2.868      4.249
REMARK  Name = 
REMARK  6 active torsions:
REMARK  status: ('A' for Active; 'I' for Inactive)
REMARK    1  A    between atoms: C_1  and  C_2
REMARK    2  A    between atoms: C_4  and  C_5
REMARK    3  A    between atoms: C_6  and  S_7
REMARK    4  A    between atoms: S_7  and  N_10
REMARK    5  A    between atoms: C_14  and  C_16
REMARK    6  A    between atoms: C_27  and  C_28
REMARK                            x       y       z     vdW  Elec       q    Type
REMARK                         _______ _______ _______ _____ _____    ______ ____
ROOT
ATOM      1  N   UNL     1       1.154   9.608  19.840  0.00  0.00    +0.000 NA
ATOM      2  C   UNL     1       1.357   8.833  21.079  0.00  0.00    +0.000 C 
ATOM      3  C   UNL     1       1.365   7.339  20.760  0.00  0.00    +0.000 C 
ATOM      4  N   UNL     1       2.402   7.008  19.775  0.00  0.00    +0.000 N 
ATOM      5  C   UNL     1       2.935   5.709  19.846  0.00  0.00    +0.000 C 
ATOM      6  O   UNL     1       2.544   4.928  20.716  0.00  0.00    +0.000 OA
ATOM      7  C   UNL     1       2.316   7.783  18.528  0.00  0.00    +0.000 C 
ATOM      8  C   UNL     1       2.088   9.295  18.737  0.00  0.00    +0.000 C 
ENDROOT
BRANCH   5   9
ATOM      9  C   UNL     1       3.951   5.286  18.899  0.00  0.00    +0.000 A 
ATOM     10  C   UNL     1       5.329   5.319  19.029  0.00  0.00    +0.000 A 
ATOM     11  C   UNL     1       5.878   4.909  17.791  0.00  0.00    +0.000 A 
ATOM     12  C   UNL     1       7.175   4.733  17.278  0.00  0.00    +0.000 A 
ATOM     13  C   UNL     1       7.320   4.321  15.945  0.00  0.00    +0.000 A 
ATOM     14  C   UNL     1       6.202   4.092  15.138  0.00  0.00    +0.000 A 
ATOM     15  C   UNL     1       4.903   4.264  15.632  0.00  0.00    +0.000 A 
ATOM     16  C   UNL     1       4.791   4.668  16.960  0.00  0.00    +0.000 A 
ATOM     17  O   UNL     1       3.624   4.895  17.627  0.00  0.00    +0.000 OA
ENDBRANCH   5   9
BRANCH   1  18
ATOM     18  S   UNL     1      -0.286  10.433  19.618  0.00  0.00    +0.000 S 
ATOM     19  O   UNL     1      -1.265   9.685  20.372  0.00  0.00    +0.000 OA
ATOM     20  O   UNL     1      -0.489  10.682  18.204  0.00  0.00    +0.000 OA
BRANCH  18  26
ATOM     21  C   UNL     1       0.546  15.900  22.333  0.00  0.00    +0.000 C 
ATOM     22  C   UNL     1       0.352  14.564  21.681  0.00  0.00    +0.000 A 
ATOM     23  C   UNL     1      -0.296  13.521  22.336  0.00  0.00    +0.000 A 
ATOM     24  C   UNL     1      -0.458  12.257  21.731  0.00  0.00    +0.000 A 
ATOM     25  C   UNL     1      -1.156  11.215  22.567  0.00  0.00    +0.000 C 
ATOM     26  C   UNL     1       0.029  12.038  20.411  0.00  0.00    +0.000 A 
ATOM     27  C   UNL     1       0.747  13.074  19.764  0.00  0.00    +0.000 A 
ATOM     28  C   UNL     1       1.473  13.003  18.449  0.00  0.00    +0.000 C 
ATOM     29  C   UNL     1       0.855  14.331  20.403  0.00  0.00    +0.000 A 
ENDBRANCH  18  26
ENDBRANCH   1  18
TORSDOF 3
ENDMDL
MODEL 6
REMARK VINA RESULT:      -7.8      2.797      4.157
REMARK  Name = 
REMARK  6 active torsions:
REMARK  status: ('A' for Active; 'I' for Inactive)
REMARK    1  A    between atoms: C_1  and  C_2
REMARK    2  A    between atoms: C_4  and  C_5
REMARK    3  A    between atoms: C_6  and  S_7
REMARK    4  A    between atoms: S_7  and  N_10
REMARK    5  A    between atoms: C_14  and  C_16
REMARK    6  A    between atoms: C_27  and  C_28
REMARK                            x       y       z     vdW  Elec       q    Type
REMARK                         _______ _______ _______ _____ _____    ______ ____
ROOT
ATOM      1  N   UNL     1       1.051   9.949  19.620  0.00  0.00    +0.000 NA
ATOM      2  C   UNL     1       1.500   9.212  20.816  0.00  0.00    +0.000 C 
ATOM      3  C   UNL     1       1.507   7.712  20.528  0.00  0.00    +0.000 C 
ATOM      4  N   UNL     1       2.364   7.392  19.380  0.00  0.00    +0.000 N 
ATOM      5  C   UNL     1       2.950   6.114  19.378  0.00  0.00    +0.000 C 
ATOM      6  O   UNL     1       2.750   5.342  20.318  0.00  0.00    +0.000 OA
ATOM      7  C   UNL     1       2.028   8.133  18.154  0.00  0.00    +0.000 C 
ATOM      8  C   UNL     1       1.784   9.641  18.373  0.00  0.00    +0.000 C 
ENDROOT
BRANCH   5   9
ATOM      9  C   UNL     1       3.796   5.702  18.272  0.00  0.00    +0.000 A 
ATOM     10  C   UNL     1       3.589   4.693  17.347  0.00  0.00    +0.000 A 
ATOM     11  C   UNL     1       4.753   4.610  16.547  0.00  0.00    +0.000 A 
ATOM     12  C   UNL     1       5.171   3.817  15.465  0.00  0.00    +0.000 A 
ATOM     13  C   UNL     1       6.453   4.026  14.935  0.00  0.00    +0.000 A 
ATOM     14  C   UNL     1       7.302   4.998  15.471  0.00  0.00    +0.000 A 
ATOM     15  C   UNL     1       6.902   5.797  16.549  0.00  0.00    +0.000 A 
ATOM     16  C   UNL     1       5.622   5.570  17.050  0.00  0.00    +0.000 A 
ATOM     17  O   UNL     1       5.048   6.232  18.094  0.00  0.00    +0.000 OA
ENDBRANCH   5   9
BRANCH   1  18
ATOM     18  S   UNL     1      -0.436  10.719  19.645  0.00  0.00    +0.000 S 
ATOM     19  O   UNL     1      -1.277   9.883  20.470  0.00  0.00    +0.000 OA
ATOM     20  O   UNL     1      -0.837  11.043  18.290  0.00  0.00    +0.000 OA
BRANCH  18  26
ATOM     21  C   UNL     1       0.545  16.058  22.559  0.00  0.00    +0.000 C 
ATOM     22  C   UNL     1       0.314  14.752  21.858  0.00  0.00    +0.000 A 
ATOM     23  C   UNL     1      -0.312  13.685  22.493  0.00  0.00    +0.000 A 
ATOM     24  C   UNL     1      -0.507  12.450  21.841  0.00  0.00    +0.000 A 
ATOM     25  C   UNL     1      -1.177  11.375  22.659  0.00  0.00    +0.000 C 
ATOM     26  C   UNL     1      -0.078  12.286  20.493  0.00  0.00    +0.000 A 
ATOM     27  C   UNL     1       0.619  13.346  19.863  0.00  0.00    +0.000 A 
ATOM     28  C   UNL     1       1.289  13.329  18.517  0.00  0.00    +0.000 C 
ATOM     29  C   UNL     1       0.762  14.574  20.551  0.00  0.00    +0.000 A 
ENDBRANCH  18  26
ENDBRANCH   1  18
TORSDOF 3
ENDMDL
MODEL 7
REMARK VINA RESULT:      -7.8      0.690      1.198
REMARK  Name = 
REMARK  6 active torsions:
REMARK  status: ('A' for Active; 'I' for Inactive)
REMARK    1  A    between atoms: C_1  and  C_2
REMARK    2  A    between atoms: C_4  and  C_5
REMARK    3  A    between atoms: C_6  and  S_7
REMARK    4  A    between atoms: S_7  and  N_10
REMARK    5  A    between atoms: C_14  and  C_16
REMARK    6  A    between atoms: C_27  and  C_28
REMARK                            x       y       z     vdW  Elec       q    Type
REMARK                         _______ _______ _______ _____ _____    ______ ____
ROOT
ATOM      1  N   UNL     1      -0.291  11.342  19.833  0.00  0.00    +0.000 NA
ATOM      2  C   UNL     1       0.312  11.254  18.490  0.00  0.00    +0.000 C 
ATOM      3  C   UNL     1       1.600  10.435  18.551  0.00  0.00    +0.000 C 
ATOM      4  N   UNL     1       1.355   9.092  19.089  0.00  0.00    +0.000 N 
ATOM      5  C   UNL     1       2.223   8.077  18.649  0.00  0.00    +0.000 C 
ATOM      6  O   UNL     1       3.114   8.337  17.839  0.00  0.00    +0.000 OA
ATOM      7  C   UNL     1       0.694   9.082  20.404  0.00  0.00    +0.000 C 
ATOM      8  C   UNL     1      -0.504  10.048  20.518  0.00  0.00    +0.000 C 
ENDROOT
BRANCH   5   9
ATOM      9  C   UNL     1       2.069   6.721  19.144  0.00  0.00    +0.000 A 
ATOM     10  C   UNL     1       2.150   6.256  20.446  0.00  0.00    +0.000 A 
ATOM     11  C   UNL     1       2.045   4.845  20.396  0.00  0.00    +0.000 A 
ATOM     12  C   UNL     1       2.055   3.805  21.341  0.00  0.00    +0.000 A 
ATOM     13  C   UNL     1       1.946   2.483  20.885  0.00  0.00    +0.000 A 
ATOM     14  C   UNL     1       1.834   2.200  19.521  0.00  0.00    +0.000 A 
ATOM     15  C   UNL     1       1.823   3.224  18.566  0.00  0.00    +0.000 A 
ATOM     16  C   UNL     1       1.928   4.527  19.049  0.00  0.00    +0.000 A 
ATOM     17  O   UNL     1       1.942   5.658  18.289  0.00  0.00    +0.000 OA
ENDBRANCH   5   9
BRANCH   1  18
ATOM     18  S   UNL     1      -0.303  12.815  20.629  0.00  0.00    +0.000 S 
ATOM     19  O   UNL     1      -0.085  13.801  19.596  0.00  0.00    +0.000 OA
ATOM     20  O   UNL     1       0.582  12.754  21.776  0.00  0.00    +0.000 OA
BRANCH  18  26
ATOM     21  C   UNL     1      -6.002  13.067  22.955  0.00  0.00    +0.000 C 
ATOM     22  C   UNL     1      -4.614  13.018  22.389  0.00  0.00    +0.000 A 
ATOM     23  C   UNL     1      -3.512  13.442  23.125  0.00  0.00    +0.000 A 
ATOM     24  C   UNL     1      -2.210  13.419  22.583  0.00  0.00    +0.000 A 
ATOM     25  C   UNL     1      -1.116  13.931  23.485  0.00  0.00    +0.000 C 
ATOM     26  C   UNL     1      -2.002  12.931  21.262  0.00  0.00    +0.000 A 
ATOM     27  C   UNL     1      -3.127  12.560  20.484  0.00  0.00    +0.000 A 
ATOM     28  C   UNL     1      -3.148  12.171  19.032  0.00  0.00    +0.000 C 
ATOM     29  C   UNL     1      -4.408  12.574  21.085  0.00  0.00    +0.000 A 
ENDBRANCH  18  26
ENDBRANCH   1  18
TORSDOF 3
ENDMDL
MODEL 8
REMARK VINA RESULT:      -7.8      1.057      1.320
REMARK  Name = 
REMARK  6 active torsions:
REMARK  status: ('A' for Active; 'I' for Inactive)
REMARK    1  A    between atoms: C_1  and  C_2
REMARK    2  A    between atoms: C_4  and  C_5
REMARK    3  A    between atoms: C_6  and  S_7
REMARK    4  A    between atoms: S_7  and  N_10
REMARK    5  A    between atoms: C_14  and  C_16
REMARK    6  A    between atoms: C_27  and  C_28
REMARK                            x       y       z     vdW  Elec       q    Type
REMARK                         _______ _______ _______ _____ _____    ______ ____
ROOT
ATOM      1  N   UNL     1       0.066  10.605  19.768  0.00  0.00    +0.000 NA
ATOM      2  C   UNL     1       0.426  10.670  18.339  0.00  0.00    +0.000 C 
ATOM      3  C   UNL     1       1.801  10.042  18.121  0.00  0.00    +0.000 C 
ATOM      4  N   UNL     1       1.836   8.653  18.593  0.00  0.00    +0.000 N 
ATOM      5  C   UNL     1       2.739   7.796  17.939  0.00  0.00    +0.000 C 
ATOM      6  O   UNL     1       3.429   8.220  17.011  0.00  0.00    +0.000 OA
ATOM      7  C   UNL     1       1.428   8.484  19.997  0.00  0.00    +0.000 C 
ATOM      8  C   UNL     1       0.152   9.262  20.383  0.00  0.00    +0.000 C 
ENDROOT
BRANCH   5   9
ATOM      9  C   UNL     1       2.857   6.409  18.353  0.00  0.00    +0.000 A 
ATOM     10  C   UNL     1       3.910   5.779  18.992  0.00  0.00    +0.000 A 
ATOM     11  C   UNL     1       3.592   4.402  19.071  0.00  0.00    +0.000 A 
ATOM     12  C   UNL     1       4.221   3.255  19.585  0.00  0.00    +0.000 A 
ATOM     13  C   UNL     1       3.577   2.017  19.447  0.00  0.00    +0.000 A 
ATOM     14  C   UNL     1       2.337   1.920  18.809  0.00  0.00    +0.000 A 
ATOM     15  C   UNL     1       1.696   3.051  18.290  0.00  0.00    +0.000 A 
ATOM     16  C   UNL     1       2.358   4.267  18.447  0.00  0.00    +0.000 A 
ATOM     17  O   UNL     1       1.910   5.478  18.011  0.00  0.00    +0.000 OA
ENDBRANCH   5   9
BRANCH   1  18
ATOM     18  S   UNL     1       0.001  12.020  20.660  0.00  0.00    +0.000 S 
ATOM     19  O   UNL     1       0.615  13.022  19.819  0.00  0.00    +0.000 OA
ATOM     20  O   UNL     1       0.513  11.776  21.995  0.00  0.00    +0.000 OA
BRANCH  18  26
ATOM     21  C   UNL     1      -6.056  12.915  21.346  0.00  0.00    +0.000 C 
ATOM     22  C   UNL     1      -4.580  12.710  21.181  0.00  0.00    +0.000 A 
ATOM     23  C   UNL     1      -3.696  12.891  22.241  0.00  0.00    +0.000 A 
ATOM     24  C   UNL     1      -2.305  12.721  22.079  0.00  0.00    +0.000 A 
ATOM     25  C   UNL     1      -1.467  12.976  23.305  0.00  0.00    +0.000 C 
ATOM     26  C   UNL     1      -1.783  12.333  20.812  0.00  0.00    +0.000 A 
ATOM     27  C   UNL     1      -2.669  12.211  19.714  0.00  0.00    +0.000 A 
ATOM     28  C   UNL     1      -2.315  11.967  18.273  0.00  0.00    +0.000 C 
ATOM     29  C   UNL     1      -4.058  12.363  19.938  0.00  0.00    +0.000 A 
ENDBRANCH  18  26
ENDBRANCH   1  18
TORSDOF 3
ENDMDL
MODEL 9
REMARK VINA RESULT:      -7.7      0.897      2.017
REMARK  Name = 
REMARK  6 active torsions:
REMARK  status: ('A' for Active; 'I' for Inactive)
REMARK    1  A    between atoms: C_1  and  C_2
REMARK    2  A    between atoms: C_4  and  C_5
REMARK    3  A    between atoms: C_6  and  S_7
REMARK    4  A    between atoms: S_7  and  N_10
REMARK    5  A    between atoms: C_14  and  C_16
REMARK    6  A    between atoms: C_27  and  C_28
REMARK                            x       y       z     vdW  Elec       q    Type
REMARK                         _______ _______ _______ _____ _____    ______ ____
ROOT
ATOM      1  N   UNL     1      -0.142  10.813  19.611  0.00  0.00    +0.000 NA
ATOM      2  C   UNL     1       0.330  10.632  18.225  0.00  0.00    +0.000 C 
ATOM      3  C   UNL     1       1.697   9.951  18.227  0.00  0.00    +0.000 C 
ATOM      4  N   UNL     1       1.650   8.660  18.923  0.00  0.00    +0.000 N 
ATOM      5  C   UNL     1       2.572   7.688  18.495  0.00  0.00    +0.000 C 
ATOM      6  O   UNL     1       3.346   7.938  17.569  0.00  0.00    +0.000 OA
ATOM      7  C   UNL     1       1.128   8.735  20.297  0.00  0.00    +0.000 C 
ATOM      8  C   UNL     1      -0.147   9.590  20.443  0.00  0.00    +0.000 C 
ENDROOT
BRANCH   5   9
ATOM      9  C   UNL     1       2.613   6.388  19.140  0.00  0.00    +0.000 A 
ATOM     10  C   UNL     1       1.898   5.939  20.237  0.00  0.00    +0.000 A 
ATOM     11  C   UNL     1       2.378   4.644  20.550  0.00  0.00    +0.000 A 
ATOM     12  C   UNL     1       2.082   3.674  21.523  0.00  0.00    +0.000 A 
ATOM     13  C   UNL     1       2.817   2.479  21.524  0.00  0.00    +0.000 A 
ATOM     14  C   UNL     1       3.826   2.255  20.583  0.00  0.00    +0.000 A 
ATOM     15  C   UNL     1       4.135   3.212  19.608  0.00  0.00    +0.000 A 
ATOM     16  C   UNL     1       3.385   4.385  19.629  0.00  0.00    +0.000 A 
ATOM     17  O   UNL     1       3.530   5.437  18.775  0.00  0.00    +0.000 OA
ENDBRANCH   5   9
BRANCH   1  18
ATOM     18  S   UNL     1      -0.230  12.358  20.249  0.00  0.00    +0.000 S 
ATOM     19  O   UNL     1       0.025  13.240  19.134  0.00  0.00    +0.000 OA
ATOM     20  O   UNL     1       0.589  12.438  21.443  0.00  0.00    +0.000 OA
BRANCH  18  26
ATOM     21  C   UNL     1      -6.142  12.984  21.868  0.00  0.00    +0.000 C 
ATOM     22  C   UNL     1      -4.705  12.819  21.471  0.00  0.00    +0.000 A 
ATOM     23  C   UNL     1      -4.342  12.498  20.167  0.00  0.00    +0.000 A 
ATOM     24  C   UNL     1      -2.991  12.319  19.801  0.00  0.00    +0.000 A 
ATOM     25  C   UNL     1      -2.747  11.949  18.361  0.00  0.00    +0.000 C 
ATOM     26  C   UNL     1      -1.965  12.492  20.774  0.00  0.00    +0.000 A 
ATOM     27  C   UNL     1      -2.332  12.753  22.117  0.00  0.00    +0.000 A 
ATOM     28  C   UNL     1      -1.430  12.815  23.318  0.00  0.00    +0.000 C 
ATOM     29  C   UNL     1      -3.699  12.952  22.425  0.00  0.00    +0.000 A 
ENDBRANCH  18  26
ENDBRANCH   1  18
TORSDOF 3
ENDMDL
