MODEL 1
REMARK VINA RESULT:      -6.9      0.000      0.000
REMARK  Name = 
REMARK  7 active torsions:
REMARK  status: ('A' for Active; 'I' for Inactive)
REMARK    1  A    between atoms: C_2  and  C_3
REMARK    2  A    between atoms: C_18  and  O_19
REMARK    3  A    between atoms: O_19  and  C_20
REMARK    4  A    between atoms: C_20  and  C_21
REMARK    5  A    between atoms: C_21  and  C_22
REMARK    6  A    between atoms: C_22  and  C_23
REMARK    7  A    between atoms: C_23  and  N_24
REMARK                            x       y       z     vdW  Elec       q    Type
REMARK                         _______ _______ _______ _____ _____    ______ ____
ROOT
ATOM      1  C   UNL     1      -5.398  12.973  20.623  0.00  0.00    +0.000 A 
ATOM      2  N   UNL     1      -5.489  12.354  21.829  0.00  0.00    +0.000 NA
ATOM      3  C   UNL     1      -4.622  12.784  22.804  0.00  0.00    +0.000 A 
ATOM      4  C   UNL     1      -3.507  13.554  22.520  0.00  0.00    +0.000 A 
ATOM      5  N   UNL     1      -3.623  14.275  21.415  0.00  0.00    +0.000 NA
ATOM      6  C   UNL     1      -4.662  14.149  20.584  0.00  0.00    +0.000 A 
ATOM      7  O   UNL     1      -5.347  15.321  20.244  0.00  0.00    +0.000 OA
ATOM      8  C   UNL     1      -4.932  16.585  20.847  0.00  0.00    +0.000 C 
ATOM      9  C   UNL     1      -3.807  17.260  20.038  0.00  0.00    +0.000 C 
ATOM     10  C   UNL     1      -2.503  17.247  20.447  0.00  0.00    +0.000 C 
ATOM     11  C   UNL     1      -1.959  15.828  20.399  0.00  0.00    +0.000 C 
ATOM     12  O   UNL     1      -0.647  15.322  20.289  0.00  0.00    +0.000 OA
ATOM     13  C   UNL     1      -0.762  13.916  20.384  0.00  0.00    +0.000 A 
ATOM     14  C   UNL     1      -1.324  13.143  19.367  0.00  0.00    +0.000 A 
ATOM     15  C   UNL     1      -1.237  11.743  19.409  0.00  0.00    +0.000 A 
ATOM     16  C   UNL     1      -0.472  11.101  20.382  0.00  0.00    +0.000 A 
ATOM     17  C   UNL     1       0.044  11.863  21.431  0.00  0.00    +0.000 A 
ATOM     18  C   UNL     1      -0.275  13.233  21.499  0.00  0.00    +0.000 A 
ATOM     19  N   UNL     1      -0.228  13.874  22.734  0.00  0.00    +0.000 N 
ATOM     20  C   UNL     1      -1.245  14.289  23.542  0.00  0.00    +0.000 C 
ATOM     21  O   UNL     1      -0.912  14.911  24.564  0.00  0.00    +0.000 OA
ATOM     22  N   UNL     1      -2.551  13.894  23.493  0.00  0.00    +0.000 N 
ATOM     23  H   UNL     1       0.666  13.876  23.212  0.00  0.00    +0.000 HD
ATOM     24  H   UNL     1      -2.970  14.143  24.369  0.00  0.00    +0.000 HD
ENDROOT
BRANCH   1  26
ATOM     25  N   UNL     1      -5.383  11.337  18.560  0.00  0.00    +0.000 NA
ATOM     26  C   UNL     1      -5.363  12.118  19.464  0.00  0.00    +0.000 C 
ENDBRANCH   1  26
BRANCH  16  27
ATOM     27  O   UNL     1      -0.331   9.752  20.198  0.00  0.00    +0.000 OA
BRANCH  27  28
ATOM     28  C   UNL     1       1.003   9.276  20.065  0.00  0.00    +0.000 C 
BRANCH  28  29
ATOM     29  C   UNL     1       1.247   8.077  20.977  0.00  0.00    +0.000 C 
BRANCH  29  30
ATOM     30  C   UNL     1       2.003   6.967  20.227  0.00  0.00    +0.000 C 
BRANCH  30  31
ATOM     31  C   UNL     1       1.779   5.516  20.708  0.00  0.00    +0.000 C 
BRANCH  31  32
ATOM     32  N   UNL     1       2.659   4.558  20.003  0.00  0.00    +0.000 NA
ATOM     33  C   UNL     1       2.784   4.766  18.542  0.00  0.00    +0.000 C 
ATOM     34  C   UNL     1       1.573   4.320  17.699  0.00  0.00    +0.000 C 
ATOM     35  O   UNL     1       1.103   3.010  18.028  0.00  0.00    +0.000 OA
ATOM     36  C   UNL     1       0.940   2.814  19.438  0.00  0.00    +0.000 C 
ATOM     37  C   UNL     1       2.233   3.154  20.195  0.00  0.00    +0.000 C 
ENDBRANCH  31  32
ENDBRANCH  30  31
ENDBRANCH  29  30
ENDBRANCH  28  29
ENDBRANCH  27  28
ENDBRANCH  16  27
TORSDOF 7
ENDMDL
MODEL 2
REMARK VINA RESULT:      -6.7      7.801      9.697
REMARK  Name = 
REMARK  7 active torsions:
REMARK  status: ('A' for Active; 'I' for Inactive)
REMARK    1  A    between atoms: C_2  and  C_3
REMARK    2  A    between atoms: C_18  and  O_19
REMARK    3  A    between atoms: O_19  and  C_20
REMARK    4  A    between atoms: C_20  and  C_21
REMARK    5  A    between atoms: C_21  and  C_22
REMARK    6  A    between atoms: C_22  and  C_23
REMARK    7  A    between atoms: C_23  and  N_24
REMARK                            x       y       z     vdW  Elec       q    Type
REMARK                         _______ _______ _______ _____ _____    ______ ____
ROOT
ATOM      1  C   UNL     1       6.930  15.994  19.220  0.00  0.00    +0.000 A 
ATOM      2  N   UNL     1       5.772  15.292  19.113  0.00  0.00    +0.000 NA
ATOM      3  C   UNL     1       5.210  14.858  20.289  0.00  0.00    +0.000 A 
ATOM      4  C   UNL     1       5.911  14.832  21.483  0.00  0.00    +0.000 A 
ATOM      5  N   UNL     1       6.899  15.713  21.542  0.00  0.00    +0.000 NA
ATOM      6  C   UNL     1       7.266  16.448  20.487  0.00  0.00    +0.000 A 
ATOM      7  O   UNL     1       7.336  17.833  20.674  0.00  0.00    +0.000 OA
ATOM      8  C   UNL     1       6.957  18.394  21.968  0.00  0.00    +0.000 C 
ATOM      9  C   UNL     1       8.145  18.415  22.950  0.00  0.00    +0.000 C 
ATOM     10  C   UNL     1       8.266  17.515  23.972  0.00  0.00    +0.000 C 
ATOM     11  C   UNL     1       8.497  16.121  23.409  0.00  0.00    +0.000 C 
ATOM     12  O   UNL     1       9.094  14.968  23.960  0.00  0.00    +0.000 OA
ATOM     13  C   UNL     1       8.940  13.950  22.990  0.00  0.00    +0.000 A 
ATOM     14  C   UNL     1       9.653  13.949  21.790  0.00  0.00    +0.000 A 
ATOM     15  C   UNL     1       9.626  12.826  20.949  0.00  0.00    +0.000 A 
ATOM     16  C   UNL     1       9.010  11.642  21.354  0.00  0.00    +0.000 A 
ATOM     17  C   UNL     1       8.251  11.654  22.524  0.00  0.00    +0.000 A 
ATOM     18  C   UNL     1       8.086  12.870  23.217  0.00  0.00    +0.000 A 
ATOM     19  N   UNL     1       6.974  13.032  24.038  0.00  0.00    +0.000 N 
ATOM     20  C   UNL     1       5.844  13.770  23.842  0.00  0.00    +0.000 C 
ATOM     21  O   UNL     1       5.038  13.795  24.786  0.00  0.00    +0.000 OA
ATOM     22  N   UNL     1       5.383  14.276  22.661  0.00  0.00    +0.000 N 
ATOM     23  H   UNL     1       6.875  12.375  24.804  0.00  0.00    +0.000 HD
ATOM     24  H   UNL     1       4.417  14.509  22.794  0.00  0.00    +0.000 HD
ENDROOT
BRANCH   1  26
ATOM     25  N   UNL     1       8.818  15.227  17.553  0.00  0.00    +0.000 NA
ATOM     26  C   UNL     1       8.001  15.603  18.338  0.00  0.00    +0.000 C 
ENDBRANCH   1  26
BRANCH  16  27
ATOM     27  O   UNL     1       9.213  10.578  20.517  0.00  0.00    +0.000 OA
BRANCH  27  28
ATOM     28  C   UNL     1       9.580  10.897  19.180  0.00  0.00    +0.000 C 
BRANCH  28  29
ATOM     29  C   UNL     1       8.628  10.242  18.183  0.00  0.00    +0.000 C 
BRANCH  29  30
ATOM     30  C   UNL     1       8.551   8.724  18.420  0.00  0.00    +0.000 C 
BRANCH  30  31
ATOM     31  C   UNL     1       7.455   7.948  17.656  0.00  0.00    +0.000 C 
BRANCH  31  32
ATOM     32  N   UNL     1       7.805   6.521  17.485  0.00  0.00    +0.000 NA
ATOM     33  C   UNL     1       7.001   5.785  16.484  0.00  0.00    +0.000 C 
ATOM     34  C   UNL     1       5.570   5.412  16.922  0.00  0.00    +0.000 C 
ATOM     35  O   UNL     1       5.511   4.814  18.221  0.00  0.00    +0.000 OA
ATOM     36  C   UNL     1       6.255   5.545  19.204  0.00  0.00    +0.000 C 
ATOM     37  C   UNL     1       7.707   5.760  18.750  0.00  0.00    +0.000 C 
ENDBRANCH  31  32
ENDBRANCH  30  31
ENDBRANCH  29  30
ENDBRANCH  28  29
ENDBRANCH  27  28
ENDBRANCH  16  27
TORSDOF 7
ENDMDL
MODEL 3
REMARK VINA RESULT:      -6.6      2.613      4.849
REMARK  Name = 
REMARK  7 active torsions:
REMARK  status: ('A' for Active; 'I' for Inactive)
REMARK    1  A    between atoms: C_2  and  C_3
REMARK    2  A    between atoms: C_18  and  O_19
REMARK    3  A    between atoms: O_19  and  C_20
REMARK    4  A    between atoms: C_20  and  C_21
REMARK    5  A    between atoms: C_21  and  C_22
REMARK    6  A    between atoms: C_22  and  C_23
REMARK    7  A    between atoms: C_23  and  N_24
REMARK                            x       y       z     vdW  Elec       q    Type
REMARK                         _______ _______ _______ _____ _____    ______ ____
ROOT
ATOM      1  C   UNL     1       2.449  14.408  20.048  0.00  0.00    +0.000 A 
ATOM      2  N   UNL     1       2.818  13.952  18.823  0.00  0.00    +0.000 NA
ATOM      3  C   UNL     1       1.811  13.471  18.021  0.00  0.00    +0.000 A 
ATOM      4  C   UNL     1       0.556  13.155  18.512  0.00  0.00    +0.000 A 
ATOM      5  N   UNL     1       0.226  13.824  19.608  0.00  0.00    +0.000 NA
ATOM      6  C   UNL     1       1.092  14.615  20.250  0.00  0.00    +0.000 A 
ATOM      7  O   UNL     1       0.676  15.925  20.513  0.00  0.00    +0.000 OA
ATOM      8  C   UNL     1      -0.631  16.365  20.031  0.00  0.00    +0.000 C 
ATOM      9  C   UNL     1      -1.750  16.033  21.038  0.00  0.00    +0.000 C 
ATOM     10  C   UNL     1      -2.620  14.996  20.850  0.00  0.00    +0.000 C 
ATOM     11  C   UNL     1      -1.875  13.674  20.938  0.00  0.00    +0.000 C 
ATOM     12  O   UNL     1      -2.305  12.366  21.247  0.00  0.00    +0.000 OA
ATOM     13  C   UNL     1      -1.172  11.536  21.085  0.00  0.00    +0.000 A 
ATOM     14  C   UNL     1      -0.091  11.567  21.967  0.00  0.00    +0.000 A 
ATOM     15  C   UNL     1       0.916  10.594  21.891  0.00  0.00    +0.000 A 
ATOM     16  C   UNL     1       0.792   9.498  21.036  0.00  0.00    +0.000 A 
ATOM     17  C   UNL     1      -0.256   9.490  20.115  0.00  0.00    +0.000 A 
ATOM     18  C   UNL     1      -1.108  10.610  20.042  0.00  0.00    +0.000 A 
ATOM     19  N   UNL     1      -1.792  10.859  18.856  0.00  0.00    +0.000 N 
ATOM     20  C   UNL     1      -1.572  11.812  17.905  0.00  0.00    +0.000 C 
ATOM     21  O   UNL     1      -2.393  11.855  16.975  0.00  0.00    +0.000 OA
ATOM     22  N   UNL     1      -0.438  12.550  17.723  0.00  0.00    +0.000 N 
ATOM     23  H   UNL     1      -2.422  10.134  18.533  0.00  0.00    +0.000 HD
ATOM     24  H   UNL     1      -0.479  12.937  16.799  0.00  0.00    +0.000 HD
ENDROOT
BRANCH   1  26
ATOM     25  N   UNL     1       3.958  13.640  22.064  0.00  0.00    +0.000 NA
ATOM     26  C   UNL     1       3.234  13.951  21.167  0.00  0.00    +0.000 C 
ENDBRANCH   1  26
BRANCH  16  27
ATOM     27  O   UNL     1       1.756   8.540  21.194  0.00  0.00    +0.000 OA
BRANCH  27  28
ATOM     28  C   UNL     1       1.608   7.369  20.401  0.00  0.00    +0.000 C 
BRANCH  28  29
ATOM     29  C   UNL     1       2.401   7.487  19.102  0.00  0.00    +0.000 C 
BRANCH  29  30
ATOM     30  C   UNL     1       3.342   6.285  18.926  0.00  0.00    +0.000 C 
BRANCH  30  31
ATOM     31  C   UNL     1       3.161   5.101  19.903  0.00  0.00    +0.000 C 
BRANCH  31  32
ATOM     32  N   UNL     1       3.882   3.893  19.448  0.00  0.00    +0.000 NA
ATOM     33  C   UNL     1       3.903   3.678  17.983  0.00  0.00    +0.000 C 
ATOM     34  C   UNL     1       2.588   3.161  17.367  0.00  0.00    +0.000 C 
ATOM     35  O   UNL     1       2.025   2.053  18.076  0.00  0.00    +0.000 OA
ATOM     36  C   UNL     1       1.965   2.271  19.491  0.00  0.00    +0.000 C 
ATOM     37  C   UNL     1       3.344   2.653  20.050  0.00  0.00    +0.000 C 
ENDBRANCH  31  32
ENDBRANCH  30  31
ENDBRANCH  29  30
ENDBRANCH  28  29
ENDBRANCH  27  28
ENDBRANCH  16  27
TORSDOF 7
ENDMDL
MODEL 4
REMARK VINA RESULT:      -6.6      1.856      2.226
REMARK  Name = 
REMARK  7 active torsions:
REMARK  status: ('A' for Active; 'I' for Inactive)
REMARK    1  A    between atoms: C_2  and  C_3
REMARK    2  A    between atoms: C_18  and  O_19
REMARK    3  A    between atoms: O_19  and  C_20
REMARK    4  A    between atoms: C_20  and  C_21
REMARK    5  A    between atoms: C_21  and  C_22
REMARK    6  A    between atoms: C_22  and  C_23
REMARK    7  A    between atoms: C_23  and  N_24
REMARK                            x       y       z     vdW  Elec       q    Type
REMARK                         _______ _______ _______ _____ _____    ______ ____
ROOT
ATOM      1  C   UNL     1      -3.817  13.864  21.238  0.00  0.00    +0.000 A 
ATOM      2  N   UNL     1      -3.432  13.354  22.436  0.00  0.00    +0.000 NA
ATOM      3  C   UNL     1      -2.184  13.715  22.882  0.00  0.00    +0.000 A 
ATOM      4  C   UNL     1      -1.234  14.284  22.052  0.00  0.00    +0.000 A 
ATOM      5  N   UNL     1      -1.748  14.935  21.018  0.00  0.00    +0.000 NA
ATOM      6  C   UNL     1      -3.055  14.909  20.735  0.00  0.00    +0.000 A 
ATOM      7  O   UNL     1      -3.691  16.144  20.570  0.00  0.00    +0.000 OA
ATOM      8  C   UNL     1      -2.922  17.370  20.767  0.00  0.00    +0.000 C 
ATOM      9  C   UNL     1      -2.204  17.806  19.475  0.00  0.00    +0.000 C 
ATOM     10  C   UNL     1      -0.863  17.625  19.286  0.00  0.00    +0.000 C 
ATOM     11  C   UNL     1      -0.549  16.139  19.196  0.00  0.00    +0.000 C 
ATOM     12  O   UNL     1       0.518  15.434  18.603  0.00  0.00    +0.000 OA
ATOM     13  C   UNL     1       0.309  14.072  18.921  0.00  0.00    +0.000 A 
ATOM     14  C   UNL     1      -0.722  13.322  18.352  0.00  0.00    +0.000 A 
ATOM     15  C   UNL     1      -0.774  11.933  18.535  0.00  0.00    +0.000 A 
ATOM     16  C   UNL     1       0.269  11.253  19.163  0.00  0.00    +0.000 A 
ATOM     17  C   UNL     1       1.272  12.000  19.781  0.00  0.00    +0.000 A 
ATOM     18  C   UNL     1       1.163  13.404  19.800  0.00  0.00    +0.000 A 
ATOM     19  N   UNL     1       1.817  14.117  20.801  0.00  0.00    +0.000 N 
ATOM     20  C   UNL     1       1.310  14.738  21.904  0.00  0.00    +0.000 C 
ATOM     21  O   UNL     1       2.123  15.373  22.595  0.00  0.00    +0.000 OA
ATOM     22  N   UNL     1       0.083  14.544  22.470  0.00  0.00    +0.000 N 
ATOM     23  H   UNL     1       2.824  14.016  20.846  0.00  0.00    +0.000 HD
ATOM     24  H   UNL     1       0.122  14.915  23.400  0.00  0.00    +0.000 HD
ENDROOT
BRANCH   1  26
ATOM     25  N   UNL     1      -4.833  12.086  19.583  0.00  0.00    +0.000 NA
ATOM     26  C   UNL     1      -4.388  12.933  20.297  0.00  0.00    +0.000 C 
ENDBRANCH   1  26
BRANCH  16  27
ATOM     27  O   UNL     1       0.172   9.888  19.114  0.00  0.00    +0.000 OA
BRANCH  27  28
ATOM     28  C   UNL     1       1.397   9.171  19.193  0.00  0.00    +0.000 C 
BRANCH  28  29
ATOM     29  C   UNL     1       1.920   8.833  17.799  0.00  0.00    +0.000 C 
BRANCH  29  30
ATOM     30  C   UNL     1       2.990   7.731  17.871  0.00  0.00    +0.000 C 
BRANCH  30  31
ATOM     31  C   UNL     1       2.582   6.398  18.539  0.00  0.00    +0.000 C 
BRANCH  31  32
ATOM     32  N   UNL     1       3.748   5.682  19.100  0.00  0.00    +0.000 NA
ATOM     33  C   UNL     1       4.830   5.375  18.137  0.00  0.00    +0.000 C 
ATOM     34  C   UNL     1       4.546   4.213  17.164  0.00  0.00    +0.000 C 
ATOM     35  O   UNL     1       4.038   3.042  17.810  0.00  0.00    +0.000 OA
ATOM     36  C   UNL     1       2.964   3.327  18.715  0.00  0.00    +0.000 C 
ATOM     37  C   UNL     1       3.371   4.399  19.735  0.00  0.00    +0.000 C 
ENDBRANCH  31  32
ENDBRANCH  30  31
ENDBRANCH  29  30
ENDBRANCH  28  29
ENDBRANCH  27  28
ENDBRANCH  16  27
TORSDOF 7
ENDMDL
MODEL 5
REMARK VINA RESULT:      -6.6      5.595      7.453
REMARK  Name = 
REMARK  7 active torsions:
REMARK  status: ('A' for Active; 'I' for Inactive)
REMARK    1  A    between atoms: C_2  and  C_3
REMARK    2  A    between atoms: C_18  and  O_19
REMARK    3  A    between atoms: O_19  and  C_20
REMARK    4  A    between atoms: C_20  and  C_21
REMARK    5  A    between atoms: C_21  and  C_22
REMARK    6  A    between atoms: C_22  and  C_23
REMARK    7  A    between atoms: C_23  and  N_24
REMARK                            x       y       z     vdW  Elec       q    Type
REMARK                         _______ _______ _______ _____ _____    ______ ____
ROOT
ATOM      1  C   UNL     1      -0.078  17.143  21.383  0.00  0.00    +0.000 A 
ATOM      2  N   UNL     1      -0.486  17.546  20.152  0.00  0.00    +0.000 NA
ATOM      3  C   UNL     1      -0.896  16.558  19.290  0.00  0.00    +0.000 A 
ATOM      4  C   UNL     1      -0.619  15.219  19.507  0.00  0.00    +0.000 A 
ATOM      5  N   UNL     1      -0.441  14.910  20.784  0.00  0.00    +0.000 NA
ATOM      6  C   UNL     1      -0.390  15.839  21.744  0.00  0.00    +0.000 A 
ATOM      7  O   UNL     1      -1.242  15.665  22.839  0.00  0.00    +0.000 OA
ATOM      8  C   UNL     1      -2.163  14.530  22.848  0.00  0.00    +0.000 C 
ATOM      9  C   UNL     1      -1.502  13.265  23.429  0.00  0.00    +0.000 C 
ATOM     10  C   UNL     1      -1.077  12.233  22.641  0.00  0.00    +0.000 C 
ATOM     11  C   UNL     1       0.090  12.688  21.778  0.00  0.00    +0.000 C 
ATOM     12  O   UNL     1       1.134  11.978  21.151  0.00  0.00    +0.000 OA
ATOM     13  C   UNL     1       1.869  12.935  20.414  0.00  0.00    +0.000 A 
ATOM     14  C   UNL     1       2.669  13.898  21.029  0.00  0.00    +0.000 A 
ATOM     15  C   UNL     1       3.535  14.695  20.266  0.00  0.00    +0.000 A 
ATOM     16  C   UNL     1       3.722  14.451  18.906  0.00  0.00    +0.000 A 
ATOM     17  C   UNL     1       2.886  13.530  18.275  0.00  0.00    +0.000 A 
ATOM     18  C   UNL     1       1.851  12.928  19.018  0.00  0.00    +0.000 A 
ATOM     19  N   UNL     1       0.735  12.441  18.345  0.00  0.00    +0.000 N 
ATOM     20  C   UNL     1      -0.530  12.947  18.270  0.00  0.00    +0.000 C 
ATOM     21  O   UNL     1      -1.359  12.257  17.656  0.00  0.00    +0.000 OA
ATOM     22  N   UNL     1      -0.929  14.218  18.571  0.00  0.00    +0.000 N 
ATOM     23  H   UNL     1       0.900  11.719  17.653  0.00  0.00    +0.000 HD
ATOM     24  H   UNL     1      -1.829  14.354  18.149  0.00  0.00    +0.000 HD
ENDROOT
BRANCH   1  26
ATOM     25  N   UNL     1       2.241  18.098  22.183  0.00  0.00    +0.000 NA
ATOM     26  C   UNL     1       1.164  17.695  21.861  0.00  0.00    +0.000 C 
ENDBRANCH   1  26
BRANCH  16  27
ATOM     27  O   UNL     1       4.723  15.185  18.327  0.00  0.00    +0.000 OA
BRANCH  27  28
ATOM     28  C   UNL     1       6.039  14.931  18.804  0.00  0.00    +0.000 C 
BRANCH  28  29
ATOM     29  C   UNL     1       6.935  14.417  17.681  0.00  0.00    +0.000 C 
BRANCH  29  30
ATOM     30  C   UNL     1       8.417  14.501  18.085  0.00  0.00    +0.000 C 
BRANCH  30  31
ATOM     31  C   UNL     1       8.835  13.772  19.381  0.00  0.00    +0.000 C 
BRANCH  31  32
ATOM     32  N   UNL     1      10.048  12.949  19.186  0.00  0.00    +0.000 NA
ATOM     33  C   UNL     1       9.997  12.002  18.049  0.00  0.00    +0.000 C 
ATOM     34  C   UNL     1       9.140  10.739  18.271  0.00  0.00    +0.000 C 
ATOM     35  O   UNL     1       9.401  10.087  19.517  0.00  0.00    +0.000 OA
ATOM     36  C   UNL     1       9.411  10.993  20.628  0.00  0.00    +0.000 C 
ATOM     37  C   UNL     1      10.389  12.152  20.386  0.00  0.00    +0.000 C 
ENDBRANCH  31  32
ENDBRANCH  30  31
ENDBRANCH  29  30
ENDBRANCH  28  29
ENDBRANCH  27  28
ENDBRANCH  16  27
TORSDOF 7
ENDMDL
MODEL 6
REMARK VINA RESULT:      -6.6      0.885      1.221
REMARK  Name = 
REMARK  7 active torsions:
REMARK  status: ('A' for Active; 'I' for Inactive)
REMARK    1  A    between atoms: C_2  and  C_3
REMARK    2  A    between atoms: C_18  and  O_19
REMARK    3  A    between atoms: O_19  and  C_20
REMARK    4  A    between atoms: C_20  and  C_21
REMARK    5  A    between atoms: C_21  and  C_22
REMARK    6  A    between atoms: C_22  and  C_23
REMARK    7  A    between atoms: C_23  and  N_24
REMARK                            x       y       z     vdW  Elec       q    Type
REMARK                         _______ _______ _______ _____ _____    ______ ____
ROOT
ATOM      1  C   UNL     1      -5.436  12.966  20.870  0.00  0.00    +0.000 A 
ATOM      2  N   UNL     1      -5.474  12.367  22.088  0.00  0.00    +0.000 NA
ATOM      3  C   UNL     1      -4.588  12.836  23.028  0.00  0.00    +0.000 A 
ATOM      4  C   UNL     1      -3.503  13.628  22.696  0.00  0.00    +0.000 A 
ATOM      5  N   UNL     1      -3.671  14.327  21.582  0.00  0.00    +0.000 NA
ATOM      6  C   UNL     1      -4.733  14.159  20.787  0.00  0.00    +0.000 A 
ATOM      7  O   UNL     1      -5.458  15.308  20.449  0.00  0.00    +0.000 OA
ATOM      8  C   UNL     1      -5.057  16.593  21.017  0.00  0.00    +0.000 C 
ATOM      9  C   UNL     1      -3.975  17.280  20.162  0.00  0.00    +0.000 C 
ATOM     10  C   UNL     1      -2.659  17.308  20.529  0.00  0.00    +0.000 C 
ATOM     11  C   UNL     1      -2.080  15.902  20.488  0.00  0.00    +0.000 C 
ATOM     12  O   UNL     1      -0.760  15.428  20.345  0.00  0.00    +0.000 OA
ATOM     13  C   UNL     1      -0.836  14.021  20.468  0.00  0.00    +0.000 A 
ATOM     14  C   UNL     1      -1.409  13.216  19.483  0.00  0.00    +0.000 A 
ATOM     15  C   UNL     1      -1.286  11.820  19.546  0.00  0.00    +0.000 A 
ATOM     16  C   UNL     1      -0.474  11.214  20.505  0.00  0.00    +0.000 A 
ATOM     17  C   UNL     1       0.055  12.007  21.523  0.00  0.00    +0.000 A 
ATOM     18  C   UNL     1      -0.297  13.370  21.579  0.00  0.00    +0.000 A 
ATOM     19  N   UNL     1      -0.228  14.035  22.800  0.00  0.00    +0.000 N 
ATOM     20  C   UNL     1      -1.230  14.438  23.633  0.00  0.00    +0.000 C 
ATOM     21  O   UNL     1      -0.881  15.086  24.632  0.00  0.00    +0.000 OA
ATOM     22  N   UNL     1      -2.526  14.010  23.632  0.00  0.00    +0.000 N 
ATOM     23  H   UNL     1       0.681  14.067  23.249  0.00  0.00    +0.000 HD
ATOM     24  H   UNL     1      -2.924  14.264  24.517  0.00  0.00    +0.000 HD
ENDROOT
BRANCH   1  26
ATOM     25  N   UNL     1      -5.315  11.418  18.744  0.00  0.00    +0.000 NA
ATOM     26  C   UNL     1      -5.416  12.091  19.725  0.00  0.00    +0.000 C 
ENDBRANCH   1  26
BRANCH  16  27
ATOM     27  O   UNL     1      -0.304   9.866  20.340  0.00  0.00    +0.000 OA
BRANCH  27  28
ATOM     28  C   UNL     1       0.898   9.319  20.868  0.00  0.00    +0.000 C 
BRANCH  28  29
ATOM     29  C   UNL     1       1.520   8.327  19.888  0.00  0.00    +0.000 C 
BRANCH  29  30
ATOM     30  C   UNL     1       1.838   6.996  20.589  0.00  0.00    +0.000 C 
BRANCH  30  31
ATOM     31  C   UNL     1       2.701   5.979  19.808  0.00  0.00    +0.000 C 
BRANCH  31  32
ATOM     32  N   UNL     1       1.941   4.757  19.467  0.00  0.00    +0.000 NA
ATOM     33  C   UNL     1       1.259   4.094  20.602  0.00  0.00    +0.000 C 
ATOM     34  C   UNL     1       2.172   3.296  21.554  0.00  0.00    +0.000 C 
ATOM     35  O   UNL     1       3.080   2.424  20.874  0.00  0.00    +0.000 OA
ATOM     36  C   UNL     1       3.773   3.070  19.799  0.00  0.00    +0.000 C 
ATOM     37  C   UNL     1       2.787   3.728  18.822  0.00  0.00    +0.000 C 
ENDBRANCH  31  32
ENDBRANCH  30  31
ENDBRANCH  29  30
ENDBRANCH  28  29
ENDBRANCH  27  28
ENDBRANCH  16  27
TORSDOF 7
ENDMDL
MODEL 7
REMARK VINA RESULT:      -6.5      1.728      2.297
REMARK  Name = 
REMARK  7 active torsions:
REMARK  status: ('A' for Active; 'I' for Inactive)
REMARK    1  A    between atoms: C_2  and  C_3
REMARK    2  A    between atoms: C_18  and  O_19
REMARK    3  A    between atoms: O_19  and  C_20
REMARK    4  A    between atoms: C_20  and  C_21
REMARK    5  A    between atoms: C_21  and  C_22
REMARK    6  A    between atoms: C_22  and  C_23
REMARK    7  A    between atoms: C_23  and  N_24
REMARK                            x       y       z     vdW  Elec       q    Type
REMARK                         _______ _______ _______ _____ _____    ______ ____
ROOT
ATOM      1  C   UNL     1      -6.011  12.633  18.903  0.00  0.00    +0.000 A 
ATOM      2  N   UNL     1      -6.442  11.625  19.704  0.00  0.00    +0.000 NA
ATOM      3  C   UNL     1      -6.105  11.712  21.032  0.00  0.00    +0.000 A 
ATOM      4  C   UNL     1      -5.125  12.572  21.496  0.00  0.00    +0.000 A 
ATOM      5  N   UNL     1      -4.938  13.634  20.725  0.00  0.00    +0.000 NA
ATOM      6  C   UNL     1      -5.541  13.773  19.540  0.00  0.00    +0.000 A 
ATOM      7  O   UNL     1      -6.243  14.964  19.323  0.00  0.00    +0.000 OA
ATOM      8  C   UNL     1      -6.324  15.946  20.401  0.00  0.00    +0.000 C 
ATOM      9  C   UNL     1      -5.116  16.904  20.391  0.00  0.00    +0.000 C 
ATOM     10  C   UNL     1      -4.088  16.794  21.285  0.00  0.00    +0.000 C 
ATOM     11  C   UNL     1      -3.321  15.505  21.035  0.00  0.00    +0.000 C 
ATOM     12  O   UNL     1      -1.999  15.119  21.337  0.00  0.00    +0.000 OA
ATOM     13  C   UNL     1      -1.886  13.767  20.937  0.00  0.00    +0.000 A 
ATOM     14  C   UNL     1      -1.869  13.385  19.595  0.00  0.00    +0.000 A 
ATOM     15  C   UNL     1      -1.554  12.066  19.237  0.00  0.00    +0.000 A 
ATOM     16  C   UNL     1      -1.116  11.148  20.192  0.00  0.00    +0.000 A 
ATOM     17  C   UNL     1      -1.185  11.507  21.538  0.00  0.00    +0.000 A 
ATOM     18  C   UNL     1      -1.747  12.752  21.884  0.00  0.00    +0.000 A 
ATOM     19  N   UNL     1      -2.291  12.915  23.155  0.00  0.00    +0.000 N 
ATOM     20  C   UNL     1      -3.596  12.979  23.545  0.00  0.00    +0.000 C 
ATOM     21  O   UNL     1      -3.796  13.210  24.748  0.00  0.00    +0.000 OA
ATOM     22  N   UNL     1      -4.691  12.580  22.833  0.00  0.00    +0.000 N 
ATOM     23  H   UNL     1      -1.663  12.779  23.939  0.00  0.00    +0.000 HD
ATOM     24  H   UNL     1      -5.450  12.486  23.481  0.00  0.00    +0.000 HD
ENDROOT
BRANCH   1  26
ATOM     25  N   UNL     1      -4.789  11.882  16.696  0.00  0.00    +0.000 NA
ATOM     26  C   UNL     1      -5.383  12.247  17.665  0.00  0.00    +0.000 C 
ENDBRANCH   1  26
BRANCH  16  27
ATOM     27  O   UNL     1      -0.675   9.958  19.679  0.00  0.00    +0.000 OA
BRANCH  27  28
ATOM     28  C   UNL     1      -0.038  10.023  18.410  0.00  0.00    +0.000 C 
BRANCH  28  29
ATOM     29  C   UNL     1       1.477   9.905  18.555  0.00  0.00    +0.000 C 
BRANCH  29  30
ATOM     30  C   UNL     1       1.987   8.604  17.914  0.00  0.00    +0.000 C 
BRANCH  30  31
ATOM     31  C   UNL     1       2.314   7.432  18.866  0.00  0.00    +0.000 C 
BRANCH  31  32
ATOM     32  N   UNL     1       2.457   6.152  18.139  0.00  0.00    +0.000 NA
ATOM     33  C   UNL     1       2.096   4.940  18.908  0.00  0.00    +0.000 C 
ATOM     34  C   UNL     1       3.125   4.489  19.964  0.00  0.00    +0.000 C 
ATOM     35  O   UNL     1       4.466   4.445  19.468  0.00  0.00    +0.000 OA
ATOM     36  C   UNL     1       4.836   5.632  18.756  0.00  0.00    +0.000 C 
ATOM     37  C   UNL     1       3.832   5.939  17.635  0.00  0.00    +0.000 C 
ENDBRANCH  31  32
ENDBRANCH  30  31
ENDBRANCH  29  30
ENDBRANCH  28  29
ENDBRANCH  27  28
ENDBRANCH  16  27
TORSDOF 7
ENDMDL
MODEL 8
REMARK VINA RESULT:      -6.5      3.735      9.024
REMARK  Name = 
REMARK  7 active torsions:
REMARK  status: ('A' for Active; 'I' for Inactive)
REMARK    1  A    between atoms: C_2  and  C_3
REMARK    2  A    between atoms: C_18  and  O_19
REMARK    3  A    between atoms: O_19  and  C_20
REMARK    4  A    between atoms: C_20  and  C_21
REMARK    5  A    between atoms: C_21  and  C_22
REMARK    6  A    between atoms: C_22  and  C_23
REMARK    7  A    between atoms: C_23  and  N_24
REMARK                            x       y       z     vdW  Elec       q    Type
REMARK                         _______ _______ _______ _____ _____    ______ ____
ROOT
ATOM      1  C   UNL     1      -1.999  13.075  23.352  0.00  0.00    +0.000 A 
ATOM      2  N   UNL     1      -3.214  13.339  22.807  0.00  0.00    +0.000 NA
ATOM      3  C   UNL     1      -3.408  12.920  21.513  0.00  0.00    +0.000 A 
ATOM      4  C   UNL     1      -2.361  12.549  20.687  0.00  0.00    +0.000 A 
ATOM      5  N   UNL     1      -1.294  12.111  21.340  0.00  0.00    +0.000 NA
ATOM      6  C   UNL     1      -1.198  12.168  22.672  0.00  0.00    +0.000 A 
ATOM      7  O   UNL     1      -0.871  10.979  23.334  0.00  0.00    +0.000 OA
ATOM      8  C   UNL     1      -0.712   9.754  22.556  0.00  0.00    +0.000 C 
ATOM      9  C   UNL     1       0.725   9.602  22.020  0.00  0.00    +0.000 C 
ATOM     10  C   UNL     1       1.049   9.844  20.714  0.00  0.00    +0.000 C 
ATOM     11  C   UNL     1       0.877  11.323  20.404  0.00  0.00    +0.000 C 
ATOM     12  O   UNL     1       1.450  12.154  19.420  0.00  0.00    +0.000 OA
ATOM     13  C   UNL     1       0.838  13.420  19.574  0.00  0.00    +0.000 A 
ATOM     14  C   UNL     1       1.101  14.248  20.666  0.00  0.00    +0.000 A 
ATOM     15  C   UNL     1       0.635  15.571  20.682  0.00  0.00    +0.000 A 
ATOM     16  C   UNL     1       0.025  16.131  19.559  0.00  0.00    +0.000 A 
ATOM     17  C   UNL     1      -0.290  15.294  18.488  0.00  0.00    +0.000 A 
ATOM     18  C   UNL     1      -0.038  13.913  18.605  0.00  0.00    +0.000 A 
ATOM     19  N   UNL     1      -0.777  13.025  17.829  0.00  0.00    +0.000 N 
ATOM     20  C   UNL     1      -1.789  12.184  18.189  0.00  0.00    +0.000 C 
ATOM     21  O   UNL     1      -2.223  11.438  17.296  0.00  0.00    +0.000 OA
ATOM     22  N   UNL     1      -2.540  12.236  19.328  0.00  0.00    +0.000 N 
ATOM     23  H   UNL     1      -0.709  13.134  16.824  0.00  0.00    +0.000 HD
ATOM     24  H   UNL     1      -3.362  11.685  19.168  0.00  0.00    +0.000 HD
ENDROOT
BRANCH   1  26
ATOM     25  N   UNL     1      -0.803  15.114  24.510  0.00  0.00    +0.000 NA
ATOM     26  C   UNL     1      -1.351  14.165  24.036  0.00  0.00    +0.000 C 
ENDBRANCH   1  26
BRANCH  16  27
ATOM     27  O   UNL     1      -0.218  17.475  19.652  0.00  0.00    +0.000 OA
BRANCH  27  28
ATOM     28  C   UNL     1      -0.894  17.907  20.825  0.00  0.00    +0.000 C 
BRANCH  28  29
ATOM     29  C   UNL     1      -2.400  17.693  20.695  0.00  0.00    +0.000 C 
BRANCH  29  30
ATOM     30  C   UNL     1      -2.900  16.690  21.748  0.00  0.00    +0.000 C 
BRANCH  30  31
ATOM     31  C   UNL     1      -3.329  17.262  23.117  0.00  0.00    +0.000 C 
BRANCH  31  32
ATOM     32  N   UNL     1      -4.442  16.493  23.715  0.00  0.00    +0.000 NA
ATOM     33  C   UNL     1      -5.572  16.200  22.805  0.00  0.00    +0.000 C 
ATOM     34  C   UNL     1      -6.512  17.384  22.507  0.00  0.00    +0.000 C 
ATOM     35  O   UNL     1      -6.922  18.095  23.679  0.00  0.00    +0.000 OA
ATOM     36  C   UNL     1      -5.826  18.417  24.545  0.00  0.00    +0.000 C 
ATOM     37  C   UNL     1      -5.017  17.162  24.903  0.00  0.00    +0.000 C 
ENDBRANCH  31  32
ENDBRANCH  30  31
ENDBRANCH  29  30
ENDBRANCH  28  29
ENDBRANCH  27  28
ENDBRANCH  16  27
TORSDOF 7
ENDMDL
MODEL 9
REMARK VINA RESULT:      -6.5      2.551      4.825
REMARK  Name = 
REMARK  7 active torsions:
REMARK  status: ('A' for Active; 'I' for Inactive)
REMARK    1  A    between atoms: C_2  and  C_3
REMARK    2  A    between atoms: C_18  and  O_19
REMARK    3  A    between atoms: O_19  and  C_20
REMARK    4  A    between atoms: C_20  and  C_21
REMARK    5  A    between atoms: C_21  and  C_22
REMARK    6  A    between atoms: C_22  and  C_23
REMARK    7  A    between atoms: C_23  and  N_24
REMARK                            x       y       z     vdW  Elec       q    Type
REMARK                         _______ _______ _______ _____ _____    ______ ____
ROOT
ATOM      1  C   UNL     1       1.424  14.864  20.104  0.00  0.00    +0.000 A 
ATOM      2  N   UNL     1       0.946  15.227  18.886  0.00  0.00    +0.000 NA
ATOM      3  C   UNL     1      -0.296  14.747  18.548  0.00  0.00    +0.000 A 
ATOM      4  C   UNL     1      -0.901  13.706  19.231  0.00  0.00    +0.000 A 
ATOM      5  N   UNL     1      -0.495  13.581  20.486  0.00  0.00    +0.000 NA
ATOM      6  C   UNL     1       0.511  14.306  20.987  0.00  0.00    +0.000 A 
ATOM      7  O   UNL     1       0.258  15.003  22.174  0.00  0.00    +0.000 OA
ATOM      8  C   UNL     1      -1.080  14.948  22.758  0.00  0.00    +0.000 C 
ATOM      9  C   UNL     1      -1.246  13.730  23.687  0.00  0.00    +0.000 C 
ATOM     10  C   UNL     1      -1.940  12.614  23.314  0.00  0.00    +0.000 C 
ATOM     11  C   UNL     1      -1.210  11.904  22.184  0.00  0.00    +0.000 C 
ATOM     12  O   UNL     1      -1.228  10.565  21.743  0.00  0.00    +0.000 OA
ATOM     13  C   UNL     1      -0.407  10.523  20.592  0.00  0.00    +0.000 A 
ATOM     14  C   UNL     1       0.981  10.657  20.660  0.00  0.00    +0.000 A 
ATOM     15  C   UNL     1       1.774  10.410  19.530  0.00  0.00    +0.000 A 
ATOM     16  C   UNL     1       1.216   9.890  18.362  0.00  0.00    +0.000 A 
ATOM     17  C   UNL     1      -0.173   9.806  18.270  0.00  0.00    +0.000 A 
ATOM     18  C   UNL     1      -0.958  10.303  19.329  0.00  0.00    +0.000 A 
ATOM     19  N   UNL     1      -2.265  10.703  19.069  0.00  0.00    +0.000 N 
ATOM     20  C   UNL     1      -2.794  11.958  18.984  0.00  0.00    +0.000 C 
ATOM     21  O   UNL     1      -4.022  12.022  18.814  0.00  0.00    +0.000 OA
ATOM     22  N   UNL     1      -2.115  13.130  18.816  0.00  0.00    +0.000 N 
ATOM     23  H   UNL     1      -2.892   9.997  18.699  0.00  0.00    +0.000 HD
ATOM     24  H   UNL     1      -2.777  13.817  18.508  0.00  0.00    +0.000 HD
ENDROOT
BRANCH   1  26
ATOM     25  N   UNL     1       3.913  14.007  20.077  0.00  0.00    +0.000 NA
ATOM     26  C   UNL     1       2.781  14.382  20.144  0.00  0.00    +0.000 C 
ENDBRANCH   1  26
BRANCH  16  27
ATOM     27  O   UNL     1       2.127   9.530  17.406  0.00  0.00    +0.000 OA
BRANCH  27  28
ATOM     28  C   UNL     1       3.082   8.549  17.790  0.00  0.00    +0.000 C 
BRANCH  28  29
ATOM     29  C   UNL     1       2.408   7.201  18.036  0.00  0.00    +0.000 C 
BRANCH  29  30
ATOM     30  C   UNL     1       3.435   6.059  17.979  0.00  0.00    +0.000 C 
BRANCH  30  31
ATOM     31  C   UNL     1       2.896   4.642  17.680  0.00  0.00    +0.000 C 
BRANCH  31  32
ATOM     32  N   UNL     1       3.192   3.695  18.777  0.00  0.00    +0.000 NA
ATOM     33  C   UNL     1       2.601   2.346  18.628  0.00  0.00    +0.000 C 
ATOM     34  C   UNL     1       1.088   2.247  18.912  0.00  0.00    +0.000 C 
ATOM     35  O   UNL     1       0.695   2.889  20.129  0.00  0.00    +0.000 OA
ATOM     36  C   UNL     1       1.232   4.211  20.260  0.00  0.00    +0.000 C 
ATOM     37  C   UNL     1       2.759   4.205  20.096  0.00  0.00    +0.000 C 
ENDBRANCH  31  32
ENDBRANCH  30  31
ENDBRANCH  29  30
ENDBRANCH  28  29
ENDBRANCH  27  28
ENDBRANCH  16  27
TORSDOF 7
ENDMDL
