MODEL 1
REMARK VINA RESULT:      -8.3      0.000      0.000
REMARK  Name = 
REMARK  9 active torsions:
REMARK  status: ('A' for Active; 'I' for Inactive)
REMARK    1  A    between atoms: C_1  and  N_2
REMARK    2  A    between atoms: C_3  and  C_5
REMARK    3  A    between atoms: C_5  and  C_6
REMARK    4  A    between atoms: C_6  and  N_7
REMARK    5  A    between atoms: C_10  and  C_12
REMARK    6  A    between atoms: C_15  and  C_16
REMARK    7  A    between atoms: C_23  and  N_24
REMARK    8  A    between atoms: N_24  and  C_25
REMARK    9  A    between atoms: C_26  and  C_28
REMARK                            x       y       z     vdW  Elec       q    Type
REMARK                         _______ _______ _______ _____ _____    ______ ____
ROOT
ATOM      1  N   UNL     1       1.584   8.927  19.869  0.00  0.00    +0.000 N 
ATOM      2  C   UNL     1       1.485   9.904  18.900  0.00  0.00    +0.000 A 
ATOM      3  N   UNL     1       0.823  11.119  19.000  0.00  0.00    +0.000 N 
ATOM      4  C   UNL     1       1.181  12.093  19.923  0.00  0.00    +0.000 C 
ATOM      5  O   UNL     1       1.918  11.920  20.890  0.00  0.00    +0.000 OA
ATOM      6  N   UNL     1       1.972   9.466  17.752  0.00  0.00    +0.000 NA
ATOM      7  C   UNL     1       2.518   8.219  17.996  0.00  0.00    +0.000 A 
ATOM      8  C   UNL     1       3.257   7.331  17.161  0.00  0.00    +0.000 A 
ATOM      9  C   UNL     1       3.647   6.054  17.626  0.00  0.00    +0.000 A 
ATOM     10  C   UNL     1       3.266   5.717  18.943  0.00  0.00    +0.000 A 
ATOM     11  C   UNL     1       2.548   6.572  19.787  0.00  0.00    +0.000 A 
ATOM     12  C   UNL     1       2.218   7.833  19.294  0.00  0.00    +0.000 A 
ATOM     13  H   UNL     1       0.427  11.414  18.120  0.00  0.00    +0.000 HD
ENDROOT
BRANCH   4  14
ATOM     14  C   UNL     1       0.560  13.456  19.720  0.00  0.00    +0.000 A 
ATOM     15  C   UNL     1       1.322  14.478  19.124  0.00  0.00    +0.000 A 
ATOM     16  C   UNL     1       0.770  15.750  18.893  0.00  0.00    +0.000 A 
ATOM     17  C   UNL     1      -0.560  16.021  19.247  0.00  0.00    +0.000 A 
ATOM     18  C   UNL     1      -1.323  15.000  19.829  0.00  0.00    +0.000 A 
ATOM     19  C   UNL     1      -0.770  13.730  20.062  0.00  0.00    +0.000 A 
BRANCH  17  20
ATOM     20  C   UNL     1      -1.135  17.308  18.987  0.00  0.00    +0.000 C 
ATOM     21  N   UNL     1      -1.583  18.363  18.760  0.00  0.00    +0.000 NA
ENDBRANCH  17  20
ENDBRANCH   4  14
BRANCH   9  22
ATOM     22  N   UNL     1       4.392   5.079  16.829  0.00  0.00    +0.000 N 
ATOM     23  C   UNL     1       4.319   3.673  17.263  0.00  0.00    +0.000 C 
ATOM     24  C   UNL     1       5.179   5.424  15.689  0.00  0.00    +0.000 C 
ATOM     25  O   UNL     1       5.273   6.558  15.220  0.00  0.00    +0.000 OA
BRANCH  24  26
ATOM     26  C   UNL     1       6.062   4.279  15.091  0.00  0.00    +0.000 C 
ATOM     27  C   UNL     1       5.405   3.406  14.002  0.00  0.00    +0.000 C 
ATOM     28  C   UNL     1       5.696   3.768  12.548  0.00  0.00    +0.000 C 
ATOM     29  C   UNL     1       7.153   4.135  12.313  0.00  0.00    +0.000 C 
ATOM     30  C   UNL     1       7.560   5.258  13.251  0.00  0.00    +0.000 C 
ATOM     31  C   UNL     1       7.450   4.811  14.703  0.00  0.00    +0.000 C 
ENDBRANCH  24  26
ENDBRANCH   9  22
BRANCH   1  32
ATOM     32  C   UNL     1       1.095   8.898  21.235  0.00  0.00    +0.000 C 
BRANCH  32  33
ATOM     33  C   UNL     1      -0.390   9.110  21.460  0.00  0.00    +0.000 C 
BRANCH  33  36
ATOM     34  C   UNL     1      -1.718  12.107  23.322  0.00  0.00    +0.000 C 
ATOM     35  N   UNL     1      -1.427  11.112  22.323  0.00  0.00    +0.000 N 
ATOM     36  C   UNL     1      -0.566  10.074  22.601  0.00  0.00    +0.000 C 
ATOM     37  O   UNL     1       0.044   9.954  23.655  0.00  0.00    +0.000 OA
ATOM     38  H   UNL     1      -1.877  11.174  21.416  0.00  0.00    +0.000 HD
ENDBRANCH  33  36
ENDBRANCH  32  33
ENDBRANCH   1  32
TORSDOF 7
ENDMDL
MODEL 2
REMARK VINA RESULT:      -8.1      3.598     11.484
REMARK  Name = 
REMARK  9 active torsions:
REMARK  status: ('A' for Active; 'I' for Inactive)
REMARK    1  A    between atoms: C_1  and  N_2
REMARK    2  A    between atoms: C_3  and  C_5
REMARK    3  A    between atoms: C_5  and  C_6
REMARK    4  A    between atoms: C_6  and  N_7
REMARK    5  A    between atoms: C_10  and  C_12
REMARK    6  A    between atoms: C_15  and  C_16
REMARK    7  A    between atoms: C_23  and  N_24
REMARK    8  A    between atoms: N_24  and  C_25
REMARK    9  A    between atoms: C_26  and  C_28
REMARK                            x       y       z     vdW  Elec       q    Type
REMARK                         _______ _______ _______ _____ _____    ______ ____
ROOT
ATOM      1  N   UNL     1      -0.681  10.704  19.231  0.00  0.00    +0.000 N 
ATOM      2  C   UNL     1       0.221   9.859  19.845  0.00  0.00    +0.000 A 
ATOM      3  N   UNL     1       0.904   8.800  19.267  0.00  0.00    +0.000 N 
ATOM      4  C   UNL     1       1.801   8.970  18.220  0.00  0.00    +0.000 C 
ATOM      5  O   UNL     1       1.910   9.982  17.534  0.00  0.00    +0.000 OA
ATOM      6  N   UNL     1       0.239  10.074  21.150  0.00  0.00    +0.000 NA
ATOM      7  C   UNL     1      -0.574  11.168  21.388  0.00  0.00    +0.000 A 
ATOM      8  C   UNL     1      -0.849  11.898  22.581  0.00  0.00    +0.000 A 
ATOM      9  C   UNL     1      -1.795  12.950  22.586  0.00  0.00    +0.000 A 
ATOM     10  C   UNL     1      -2.439  13.226  21.362  0.00  0.00    +0.000 A 
ATOM     11  C   UNL     1      -2.183  12.530  20.175  0.00  0.00    +0.000 A 
ATOM     12  C   UNL     1      -1.217  11.526  20.213  0.00  0.00    +0.000 A 
ATOM     13  H   UNL     1       1.063   8.045  19.917  0.00  0.00    +0.000 HD
ENDROOT
BRANCH   4  14
ATOM     14  C   UNL     1       2.669   7.777  17.894  0.00  0.00    +0.000 A 
ATOM     15  C   UNL     1       2.214   6.485  18.218  0.00  0.00    +0.000 A 
ATOM     16  C   UNL     1       2.981   5.349  17.905  0.00  0.00    +0.000 A 
ATOM     17  C   UNL     1       4.217   5.484  17.256  0.00  0.00    +0.000 A 
ATOM     18  C   UNL     1       4.665   6.769  16.923  0.00  0.00    +0.000 A 
ATOM     19  C   UNL     1       3.900   7.904  17.237  0.00  0.00    +0.000 A 
BRANCH  17  20
ATOM     20  C   UNL     1       4.988   4.326  16.911  0.00  0.00    +0.000 C 
ATOM     21  N   UNL     1       5.628   3.384  16.652  0.00  0.00    +0.000 NA
ENDBRANCH  17  20
ENDBRANCH   4  14
BRANCH   9  22
ATOM     22  N   UNL     1      -2.145  13.736  23.769  0.00  0.00    +0.000 N 
ATOM     23  C   UNL     1      -3.407  13.391  24.446  0.00  0.00    +0.000 C 
ATOM     24  C   UNL     1      -1.346  14.807  24.273  0.00  0.00    +0.000 C 
ATOM     25  O   UNL     1      -0.259  15.148  23.809  0.00  0.00    +0.000 OA
BRANCH  24  26
ATOM     26  C   UNL     1      -1.983  15.659  25.421  0.00  0.00    +0.000 C 
ATOM     27  C   UNL     1      -1.056  16.028  26.596  0.00  0.00    +0.000 C 
ATOM     28  C   UNL     1      -0.398  17.405  26.560  0.00  0.00    +0.000 C 
ATOM     29  C   UNL     1      -1.348  18.498  26.098  0.00  0.00    +0.000 C 
ATOM     30  C   UNL     1      -1.936  18.134  24.746  0.00  0.00    +0.000 C 
ATOM     31  C   UNL     1      -2.757  16.854  24.844  0.00  0.00    +0.000 C 
ENDBRANCH  24  26
ENDBRANCH   9  22
BRANCH   1  32
ATOM     32  C   UNL     1      -1.125  10.770  17.851  0.00  0.00    +0.000 C 
BRANCH  32  33
ATOM     33  C   UNL     1      -2.317   9.922  17.451  0.00  0.00    +0.000 C 
BRANCH  33  36
ATOM     34  C   UNL     1      -5.403  12.060  17.090  0.00  0.00    +0.000 C 
ATOM     35  N   UNL     1      -4.366  11.193  17.586  0.00  0.00    +0.000 N 
ATOM     36  C   UNL     1      -3.326  10.809  16.771  0.00  0.00    +0.000 C 
ATOM     37  O   UNL     1      -3.235  11.111  15.588  0.00  0.00    +0.000 OA
ATOM     38  H   UNL     1      -4.402  10.880  18.551  0.00  0.00    +0.000 HD
ENDBRANCH  33  36
ENDBRANCH  32  33
ENDBRANCH   1  32
TORSDOF 7
ENDMDL
MODEL 3
REMARK VINA RESULT:      -7.7      3.107      5.493
REMARK  Name = 
REMARK  9 active torsions:
REMARK  status: ('A' for Active; 'I' for Inactive)
REMARK    1  A    between atoms: C_1  and  N_2
REMARK    2  A    between atoms: C_3  and  C_5
REMARK    3  A    between atoms: C_5  and  C_6
REMARK    4  A    between atoms: C_6  and  N_7
REMARK    5  A    between atoms: C_10  and  C_12
REMARK    6  A    between atoms: C_15  and  C_16
REMARK    7  A    between atoms: C_23  and  N_24
REMARK    8  A    between atoms: N_24  and  C_25
REMARK    9  A    between atoms: C_26  and  C_28
REMARK                            x       y       z     vdW  Elec       q    Type
REMARK                         _______ _______ _______ _____ _____    ______ ____
ROOT
ATOM      1  N   UNL     1       0.134  11.435  19.204  0.00  0.00    +0.000 N 
ATOM      2  C   UNL     1      -0.662  10.881  20.186  0.00  0.00    +0.000 A 
ATOM      3  N   UNL     1      -1.639  11.521  20.933  0.00  0.00    +0.000 N 
ATOM      4  C   UNL     1      -2.769  12.089  20.358  0.00  0.00    +0.000 C 
ATOM      5  O   UNL     1      -2.921  12.315  19.162  0.00  0.00    +0.000 OA
ATOM      6  N   UNL     1      -0.260   9.653  20.467  0.00  0.00    +0.000 NA
ATOM      7  C   UNL     1       0.743   9.343  19.566  0.00  0.00    +0.000 A 
ATOM      8  C   UNL     1       1.467   8.136  19.338  0.00  0.00    +0.000 A 
ATOM      9  C   UNL     1       2.521   8.090  18.394  0.00  0.00    +0.000 A 
ATOM     10  C   UNL     1       2.807   9.289  17.708  0.00  0.00    +0.000 A 
ATOM     11  C   UNL     1       2.108  10.485  17.907  0.00  0.00    +0.000 A 
ATOM     12  C   UNL     1       1.056  10.470  18.821  0.00  0.00    +0.000 A 
ATOM     13  H   UNL     1      -1.710  11.151  21.869  0.00  0.00    +0.000 HD
ENDROOT
BRANCH   4  14
ATOM     14  C   UNL     1      -3.866  12.491  21.318  0.00  0.00    +0.000 A 
ATOM     15  C   UNL     1      -5.205  12.462  20.885  0.00  0.00    +0.000 A 
ATOM     16  C   UNL     1      -6.254  12.802  21.757  0.00  0.00    +0.000 A 
ATOM     17  C   UNL     1      -5.982  13.172  23.083  0.00  0.00    +0.000 A 
ATOM     18  C   UNL     1      -4.650  13.190  23.517  0.00  0.00    +0.000 A 
ATOM     19  C   UNL     1      -3.602  12.852  22.645  0.00  0.00    +0.000 A 
BRANCH  17  20
ATOM     20  C   UNL     1      -7.051  13.492  23.982  0.00  0.00    +0.000 C 
ATOM     21  N   UNL     1      -7.913  13.738  24.733  0.00  0.00    +0.000 NA
ENDBRANCH  17  20
ENDBRANCH   4  14
BRANCH   9  22
ATOM     22  N   UNL     1       3.321   6.899  18.112  0.00  0.00    +0.000 N 
ATOM     23  C   UNL     1       4.513   7.085  17.266  0.00  0.00    +0.000 C 
ATOM     24  C   UNL     1       2.997   5.594  18.593  0.00  0.00    +0.000 C 
ATOM     25  O   UNL     1       2.052   5.337  19.338  0.00  0.00    +0.000 OA
BRANCH  24  26
ATOM     26  C   UNL     1       3.854   4.417  18.021  0.00  0.00    +0.000 C 
ATOM     27  C   UNL     1       4.727   3.649  19.034  0.00  0.00    +0.000 C 
ATOM     28  C   UNL     1       4.158   2.352  19.604  0.00  0.00    +0.000 C 
ATOM     29  C   UNL     1       3.464   1.503  18.551  0.00  0.00    +0.000 C 
ATOM     30  C   UNL     1       2.386   2.319  17.858  0.00  0.00    +0.000 C 
ATOM     31  C   UNL     1       2.998   3.507  17.127  0.00  0.00    +0.000 C 
ENDBRANCH  24  26
ENDBRANCH   9  22
BRANCH   1  32
ATOM     32  C   UNL     1       0.154  12.776  18.650  0.00  0.00    +0.000 C 
BRANCH  32  33
ATOM     33  C   UNL     1       0.672  13.898  19.528  0.00  0.00    +0.000 C 
BRANCH  33  36
ATOM     34  C   UNL     1       4.131  15.392  19.693  0.00  0.00    +0.000 C 
ATOM     35  N   UNL     1       2.784  14.975  19.987  0.00  0.00    +0.000 N 
ATOM     36  C   UNL     1       2.050  14.277  19.055  0.00  0.00    +0.000 C 
ATOM     37  O   UNL     1       2.444  14.019  17.925  0.00  0.00    +0.000 OA
ATOM     38  H   UNL     1       2.387  15.188  20.896  0.00  0.00    +0.000 HD
ENDBRANCH  33  36
ENDBRANCH  32  33
ENDBRANCH   1  32
TORSDOF 7
ENDMDL
MODEL 4
REMARK VINA RESULT:      -7.6      2.978      4.782
REMARK  Name = 
REMARK  9 active torsions:
REMARK  status: ('A' for Active; 'I' for Inactive)
REMARK    1  A    between atoms: C_1  and  N_2
REMARK    2  A    between atoms: C_3  and  C_5
REMARK    3  A    between atoms: C_5  and  C_6
REMARK    4  A    between atoms: C_6  and  N_7
REMARK    5  A    between atoms: C_10  and  C_12
REMARK    6  A    between atoms: C_15  and  C_16
REMARK    7  A    between atoms: C_23  and  N_24
REMARK    8  A    between atoms: N_24  and  C_25
REMARK    9  A    between atoms: C_26  and  C_28
REMARK                            x       y       z     vdW  Elec       q    Type
REMARK                         _______ _______ _______ _____ _____    ______ ____
ROOT
ATOM      1  N   UNL     1       0.027  11.331  19.137  0.00  0.00    +0.000 N 
ATOM      2  C   UNL     1      -0.735  11.028  20.248  0.00  0.00    +0.000 A 
ATOM      3  N   UNL     1      -1.657  11.847  20.880  0.00  0.00    +0.000 N 
ATOM      4  C   UNL     1      -2.800  12.317  20.244  0.00  0.00    +0.000 C 
ATOM      5  O   UNL     1      -3.005  12.287  19.035  0.00  0.00    +0.000 OA
ATOM      6  N   UNL     1      -0.350   9.876  20.770  0.00  0.00    +0.000 NA
ATOM      7  C   UNL     1       0.601   9.345  19.916  0.00  0.00    +0.000 A 
ATOM      8  C   UNL     1       1.283   8.093  19.923  0.00  0.00    +0.000 A 
ATOM      9  C   UNL     1       2.287   7.809  18.968  0.00  0.00    +0.000 A 
ATOM     10  C   UNL     1       2.570   8.823  18.028  0.00  0.00    +0.000 A 
ATOM     11  C   UNL     1       1.911  10.057  17.994  0.00  0.00    +0.000 A 
ATOM     12  C   UNL     1       0.905  10.275  18.933  0.00  0.00    +0.000 A 
ATOM     13  H   UNL     1      -1.693  11.689  21.876  0.00  0.00    +0.000 HD
ENDROOT
BRANCH   4  14
ATOM     14  C   UNL     1      -3.839  12.953  21.140  0.00  0.00    +0.000 A 
ATOM     15  C   UNL     1      -4.990  13.521  20.563  0.00  0.00    +0.000 A 
ATOM     16  C   UNL     1      -5.991  14.097  21.366  0.00  0.00    +0.000 A 
ATOM     17  C   UNL     1      -5.861  14.109  22.762  0.00  0.00    +0.000 A 
ATOM     18  C   UNL     1      -4.720  13.533  23.337  0.00  0.00    +0.000 A 
ATOM     19  C   UNL     1      -3.720  12.960  22.535  0.00  0.00    +0.000 A 
BRANCH  17  20
ATOM     20  C   UNL     1      -6.892  14.670  23.584  0.00  0.00    +0.000 C 
ATOM     21  N   UNL     1      -7.720  15.148  24.256  0.00  0.00    +0.000 NA
ENDBRANCH  17  20
ENDBRANCH   4  14
BRANCH   9  22
ATOM     22  N   UNL     1       3.044   6.558  18.916  0.00  0.00    +0.000 N 
ATOM     23  C   UNL     1       2.670   5.516  19.888  0.00  0.00    +0.000 C 
ATOM     24  C   UNL     1       4.111   6.315  17.999  0.00  0.00    +0.000 C 
ATOM     25  O   UNL     1       4.473   7.099  17.123  0.00  0.00    +0.000 OA
BRANCH  24  26
ATOM     26  C   UNL     1       4.930   5.002  18.230  0.00  0.00    +0.000 C 
ATOM     27  C   UNL     1       5.305   4.198  16.968  0.00  0.00    +0.000 C 
ATOM     28  C   UNL     1       6.698   4.423  16.386  0.00  0.00    +0.000 C 
ATOM     29  C   UNL     1       7.774   4.515  17.457  0.00  0.00    +0.000 C 
ATOM     30  C   UNL     1       7.415   5.599  18.458  0.00  0.00    +0.000 C 
ATOM     31  C   UNL     1       6.114   5.260  19.174  0.00  0.00    +0.000 C 
ENDBRANCH  24  26
ENDBRANCH   9  22
BRANCH   1  32
ATOM     32  C   UNL     1       0.053  12.520  18.306  0.00  0.00    +0.000 C 
BRANCH  32  33
ATOM     33  C   UNL     1       1.194  13.498  18.505  0.00  0.00    +0.000 C 
BRANCH  33  36
ATOM     34  C   UNL     1      -1.367  15.857  19.952  0.00  0.00    +0.000 C 
ATOM     35  N   UNL     1      -0.707  14.773  19.273  0.00  0.00    +0.000 N 
ATOM     36  C   UNL     1       0.667  14.705  19.233  0.00  0.00    +0.000 C 
ATOM     37  O   UNL     1       1.408  15.560  19.699  0.00  0.00    +0.000 OA
ATOM     38  H   UNL     1      -1.268  14.047  18.837  0.00  0.00    +0.000 HD
ENDBRANCH  33  36
ENDBRANCH  32  33
ENDBRANCH   1  32
TORSDOF 7
ENDMDL
MODEL 5
REMARK VINA RESULT:      -7.6      2.984      4.889
REMARK  Name = 
REMARK  9 active torsions:
REMARK  status: ('A' for Active; 'I' for Inactive)
REMARK    1  A    between atoms: C_1  and  N_2
REMARK    2  A    between atoms: C_3  and  C_5
REMARK    3  A    between atoms: C_5  and  C_6
REMARK    4  A    between atoms: C_6  and  N_7
REMARK    5  A    between atoms: C_10  and  C_12
REMARK    6  A    between atoms: C_15  and  C_16
REMARK    7  A    between atoms: C_23  and  N_24
REMARK    8  A    between atoms: N_24  and  C_25
REMARK    9  A    between atoms: C_26  and  C_28
REMARK                            x       y       z     vdW  Elec       q    Type
REMARK                         _______ _______ _______ _____ _____    ______ ____
ROOT
ATOM      1  N   UNL     1      -0.065  11.293  19.052  0.00  0.00    +0.000 N 
ATOM      2  C   UNL     1      -0.792  11.030  20.195  0.00  0.00    +0.000 A 
ATOM      3  N   UNL     1      -1.717  11.860  20.810  0.00  0.00    +0.000 N 
ATOM      4  C   UNL     1      -2.885  12.274  20.182  0.00  0.00    +0.000 C 
ATOM      5  O   UNL     1      -3.119  12.180  18.981  0.00  0.00    +0.000 OA
ATOM      6  N   UNL     1      -0.369   9.913  20.763  0.00  0.00    +0.000 NA
ATOM      7  C   UNL     1       0.571   9.360  19.912  0.00  0.00    +0.000 A 
ATOM      8  C   UNL     1       1.280   8.125  19.962  0.00  0.00    +0.000 A 
ATOM      9  C   UNL     1       2.267   7.815  18.997  0.00  0.00    +0.000 A 
ATOM     10  C   UNL     1       2.504   8.786  18.001  0.00  0.00    +0.000 A 
ATOM     11  C   UNL     1       1.817  10.003  17.923  0.00  0.00    +0.000 A 
ATOM     12  C   UNL     1       0.830  10.246  18.877  0.00  0.00    +0.000 A 
ATOM     13  H   UNL     1      -1.724  11.751  21.812  0.00  0.00    +0.000 HD
ENDROOT
BRANCH   4  14
ATOM     14  C   UNL     1      -3.914  12.932  21.071  0.00  0.00    +0.000 A 
ATOM     15  C   UNL     1      -5.077  13.477  20.493  0.00  0.00    +0.000 A 
ATOM     16  C   UNL     1      -6.069  14.072  21.292  0.00  0.00    +0.000 A 
ATOM     17  C   UNL     1      -5.921  14.127  22.685  0.00  0.00    +0.000 A 
ATOM     18  C   UNL     1      -4.769  13.574  23.262  0.00  0.00    +0.000 A 
ATOM     19  C   UNL     1      -3.777  12.982  22.464  0.00  0.00    +0.000 A 
BRANCH  17  20
ATOM     20  C   UNL     1      -6.944  14.708  23.504  0.00  0.00    +0.000 C 
ATOM     21  N   UNL     1      -7.775  15.163  24.188  0.00  0.00    +0.000 NA
ENDBRANCH  17  20
ENDBRANCH   4  14
BRANCH   9  22
ATOM     22  N   UNL     1       3.049   6.578  18.987  0.00  0.00    +0.000 N 
ATOM     23  C   UNL     1       2.707   5.569  20.004  0.00  0.00    +0.000 C 
ATOM     24  C   UNL     1       4.112   6.321  18.069  0.00  0.00    +0.000 C 
ATOM     25  O   UNL     1       4.449   7.077  17.158  0.00  0.00    +0.000 OA
BRANCH  24  26
ATOM     26  C   UNL     1       4.960   5.035  18.343  0.00  0.00    +0.000 C 
ATOM     27  C   UNL     1       5.268   4.145  17.122  0.00  0.00    +0.000 C 
ATOM     28  C   UNL     1       6.620   4.338  16.440  0.00  0.00    +0.000 C 
ATOM     29  C   UNL     1       7.758   4.517  17.431  0.00  0.00    +0.000 C 
ATOM     30  C   UNL     1       7.447   5.669  18.371  0.00  0.00    +0.000 C 
ATOM     31  C   UNL     1       6.197   5.372  19.190  0.00  0.00    +0.000 C 
ENDBRANCH  24  26
ENDBRANCH   9  22
BRANCH   1  32
ATOM     32  C   UNL     1      -0.086  12.439  18.163  0.00  0.00    +0.000 C 
BRANCH  32  33
ATOM     33  C   UNL     1       0.190  13.805  18.762  0.00  0.00    +0.000 C 
BRANCH  33  36
ATOM     34  C   UNL     1       3.915  14.215  18.348  0.00  0.00    +0.000 C 
ATOM     35  N   UNL     1       2.498  14.107  18.120  0.00  0.00    +0.000 N 
ATOM     36  C   UNL     1       1.638  13.864  19.167  0.00  0.00    +0.000 C 
ATOM     37  O   UNL     1       2.001  13.666  20.319  0.00  0.00    +0.000 OA
ATOM     38  H   UNL     1       2.137  14.230  17.179  0.00  0.00    +0.000 HD
ENDBRANCH  33  36
ENDBRANCH  32  33
ENDBRANCH   1  32
TORSDOF 7
ENDMDL
MODEL 6
REMARK VINA RESULT:      -7.6      3.793     11.663
REMARK  Name = 
REMARK  9 active torsions:
REMARK  status: ('A' for Active; 'I' for Inactive)
REMARK    1  A    between atoms: C_1  and  N_2
REMARK    2  A    between atoms: C_3  and  C_5
REMARK    3  A    between atoms: C_5  and  C_6
REMARK    4  A    between atoms: C_6  and  N_7
REMARK    5  A    between atoms: C_10  and  C_12
REMARK    6  A    between atoms: C_15  and  C_16
REMARK    7  A    between atoms: C_23  and  N_24
REMARK    8  A    between atoms: N_24  and  C_25
REMARK    9  A    between atoms: C_26  and  C_28
REMARK                            x       y       z     vdW  Elec       q    Type
REMARK                         _______ _______ _______ _____ _____    ______ ____
ROOT
ATOM      1  N   UNL     1      -0.712  10.573  19.623  0.00  0.00    +0.000 N 
ATOM      2  C   UNL     1       0.049   9.840  20.510  0.00  0.00    +0.000 A 
ATOM      3  N   UNL     1       0.624   8.596  20.294  0.00  0.00    +0.000 N 
ATOM      4  C   UNL     1       1.584   8.376  19.313  0.00  0.00    +0.000 C 
ATOM      5  O   UNL     1       1.848   9.143  18.392  0.00  0.00    +0.000 OA
ATOM      6  N   UNL     1       0.032  10.403  21.707  0.00  0.00    +0.000 NA
ATOM      7  C   UNL     1      -0.650  11.599  21.578  0.00  0.00    +0.000 A 
ATOM      8  C   UNL     1      -0.890  12.654  22.506  0.00  0.00    +0.000 A 
ATOM      9  C   UNL     1      -1.699  13.760  22.155  0.00  0.00    +0.000 A 
ATOM     10  C   UNL     1      -2.246  13.754  20.854  0.00  0.00    +0.000 A 
ATOM     11  C   UNL     1      -2.021  12.736  19.921  0.00  0.00    +0.000 A 
ATOM     12  C   UNL     1      -1.189  11.686  20.303  0.00  0.00    +0.000 A 
ATOM     13  H   UNL     1       0.658   8.038  21.132  0.00  0.00    +0.000 HD
ENDROOT
BRANCH   4  14
ATOM     14  C   UNL     1       2.313   7.055  19.389  0.00  0.00    +0.000 A 
ATOM     15  C   UNL     1       1.990   6.148  20.416  0.00  0.00    +0.000 A 
ATOM     16  C   UNL     1       2.627   4.897  20.502  0.00  0.00    +0.000 A 
ATOM     17  C   UNL     1       3.596   4.528  19.557  0.00  0.00    +0.000 A 
ATOM     18  C   UNL     1       3.910   5.426  18.529  0.00  0.00    +0.000 A 
ATOM     19  C   UNL     1       3.275   6.676  18.444  0.00  0.00    +0.000 A 
BRANCH  17  20
ATOM     20  C   UNL     1       4.227   3.243  19.626  0.00  0.00    +0.000 C 
ATOM     21  N   UNL     1       4.724   2.186  19.667  0.00  0.00    +0.000 NA
ENDBRANCH  17  20
ENDBRANCH   4  14
BRANCH   9  22
ATOM     22  N   UNL     1      -2.005  14.874  23.051  0.00  0.00    +0.000 N 
ATOM     23  C   UNL     1      -3.430  15.177  23.270  0.00  0.00    +0.000 C 
ATOM     24  C   UNL     1      -1.010  15.672  23.694  0.00  0.00    +0.000 C 
ATOM     25  O   UNL     1       0.203  15.478  23.611  0.00  0.00    +0.000 OA
BRANCH  24  26
ATOM     26  C   UNL     1      -1.527  16.939  24.450  0.00  0.00    +0.000 C 
ATOM     27  C   UNL     1      -1.695  16.805  25.977  0.00  0.00    +0.000 C 
ATOM     28  C   UNL     1      -0.551  17.311  26.853  0.00  0.00    +0.000 C 
ATOM     29  C   UNL     1       0.023  18.631  26.364  0.00  0.00    +0.000 C 
ATOM     30  C   UNL     1       0.457  18.500  24.914  0.00  0.00    +0.000 C 
ATOM     31  C   UNL     1      -0.737  18.186  24.022  0.00  0.00    +0.000 C 
ENDBRANCH  24  26
ENDBRANCH   9  22
BRANCH   1  32
ATOM     32  C   UNL     1      -1.079  10.302  18.246  0.00  0.00    +0.000 C 
BRANCH  32  33
ATOM     33  C   UNL     1      -2.463   9.742  17.979  0.00  0.00    +0.000 C 
BRANCH  33  36
ATOM     34  C   UNL     1      -3.248  10.198  14.319  0.00  0.00    +0.000 C 
ATOM     35  N   UNL     1      -2.766   9.707  15.583  0.00  0.00    +0.000 N 
ATOM     36  C   UNL     1      -3.015  10.403  16.745  0.00  0.00    +0.000 C 
ATOM     37  O   UNL     1      -3.590  11.482  16.787  0.00  0.00    +0.000 OA
ATOM     38  H   UNL     1      -2.252   8.832  15.612  0.00  0.00    +0.000 HD
ENDBRANCH  33  36
ENDBRANCH  32  33
ENDBRANCH   1  32
TORSDOF 7
ENDMDL
MODEL 7
REMARK VINA RESULT:      -7.5      3.408      4.703
REMARK  Name = 
REMARK  9 active torsions:
REMARK  status: ('A' for Active; 'I' for Inactive)
REMARK    1  A    between atoms: C_1  and  N_2
REMARK    2  A    between atoms: C_3  and  C_5
REMARK    3  A    between atoms: C_5  and  C_6
REMARK    4  A    between atoms: C_6  and  N_7
REMARK    5  A    between atoms: C_10  and  C_12
REMARK    6  A    between atoms: C_15  and  C_16
REMARK    7  A    between atoms: C_23  and  N_24
REMARK    8  A    between atoms: N_24  and  C_25
REMARK    9  A    between atoms: C_26  and  C_28
REMARK                            x       y       z     vdW  Elec       q    Type
REMARK                         _______ _______ _______ _____ _____    ______ ____
ROOT
ATOM      1  N   UNL     1      -0.549  11.043  19.172  0.00  0.00    +0.000 N 
ATOM      2  C   UNL     1      -0.495  11.322  20.522  0.00  0.00    +0.000 A 
ATOM      3  N   UNL     1      -1.086  12.389  21.182  0.00  0.00    +0.000 N 
ATOM      4  C   UNL     1      -2.462  12.579  21.214  0.00  0.00    +0.000 C 
ATOM      5  O   UNL     1      -3.275  12.012  20.492  0.00  0.00    +0.000 OA
ATOM      6  N   UNL     1       0.362  10.515  21.125  0.00  0.00    +0.000 NA
ATOM      7  C   UNL     1       0.790   9.603  20.177  0.00  0.00    +0.000 A 
ATOM      8  C   UNL     1       1.631   8.456  20.282  0.00  0.00    +0.000 A 
ATOM      9  C   UNL     1       1.992   7.714  19.133  0.00  0.00    +0.000 A 
ATOM     10  C   UNL     1       1.480   8.170  17.900  0.00  0.00    +0.000 A 
ATOM     11  C   UNL     1       0.647   9.287  17.769  0.00  0.00    +0.000 A 
ATOM     12  C   UNL     1       0.292   9.964  18.935  0.00  0.00    +0.000 A 
ATOM     13  H   UNL     1      -0.539  12.704  21.969  0.00  0.00    +0.000 HD
ENDROOT
BRANCH   4  14
ATOM     14  C   UNL     1      -2.962  13.609  22.201  0.00  0.00    +0.000 A 
ATOM     15  C   UNL     1      -2.208  14.777  22.419  0.00  0.00    +0.000 A 
ATOM     16  C   UNL     1      -2.656  15.770  23.308  0.00  0.00    +0.000 A 
ATOM     17  C   UNL     1      -3.872  15.616  23.990  0.00  0.00    +0.000 A 
ATOM     18  C   UNL     1      -4.629  14.459  23.764  0.00  0.00    +0.000 A 
ATOM     19  C   UNL     1      -4.180  13.466  22.877  0.00  0.00    +0.000 A 
BRANCH  17  20
ATOM     20  C   UNL     1      -4.344  16.640  24.875  0.00  0.00    +0.000 C 
ATOM     21  N   UNL     1      -4.750  17.461  25.600  0.00  0.00    +0.000 NA
ENDBRANCH  17  20
ENDBRANCH   4  14
BRANCH   9  22
ATOM     22  N   UNL     1       2.861   6.537  19.153  0.00  0.00    +0.000 N 
ATOM     23  C   UNL     1       2.566   5.512  20.169  0.00  0.00    +0.000 C 
ATOM     24  C   UNL     1       3.963   6.352  18.264  0.00  0.00    +0.000 C 
ATOM     25  O   UNL     1       4.268   7.124  17.356  0.00  0.00    +0.000 OA
BRANCH  24  26
ATOM     26  C   UNL     1       4.894   5.133  18.570  0.00  0.00    +0.000 C 
ATOM     27  C   UNL     1       5.116   4.133  17.416  0.00  0.00    +0.000 C 
ATOM     28  C   UNL     1       6.380   4.305  16.577  0.00  0.00    +0.000 C 
ATOM     29  C   UNL     1       7.605   4.626  17.419  0.00  0.00    +0.000 C 
ATOM     30  C   UNL     1       7.339   5.856  18.270  0.00  0.00    +0.000 C 
ATOM     31  C   UNL     1       6.195   5.599  19.243  0.00  0.00    +0.000 C 
ENDBRANCH  24  26
ENDBRANCH   9  22
BRANCH   1  32
ATOM     32  C   UNL     1      -1.249  11.719  18.095  0.00  0.00    +0.000 C 
BRANCH  32  33
ATOM     33  C   UNL     1      -1.894  10.863  17.023  0.00  0.00    +0.000 C 
BRANCH  33  36
ATOM     34  C   UNL     1      -5.469  10.882  18.221  0.00  0.00    +0.000 C 
ATOM     35  N   UNL     1      -4.052  10.663  18.086  0.00  0.00    +0.000 N 
ATOM     36  C   UNL     1      -3.369  11.158  16.998  0.00  0.00    +0.000 C 
ATOM     37  O   UNL     1      -3.900  11.746  16.065  0.00  0.00    +0.000 OA
ATOM     38  H   UNL     1      -3.558  10.154  18.812  0.00  0.00    +0.000 HD
ENDBRANCH  33  36
ENDBRANCH  32  33
ENDBRANCH   1  32
TORSDOF 7
ENDMDL
MODEL 8
REMARK VINA RESULT:      -7.5      3.006      5.367
REMARK  Name = 
REMARK  9 active torsions:
REMARK  status: ('A' for Active; 'I' for Inactive)
REMARK    1  A    between atoms: C_1  and  N_2
REMARK    2  A    between atoms: C_3  and  C_5
REMARK    3  A    between atoms: C_5  and  C_6
REMARK    4  A    between atoms: C_6  and  N_7
REMARK    5  A    between atoms: C_10  and  C_12
REMARK    6  A    between atoms: C_15  and  C_16
REMARK    7  A    between atoms: C_23  and  N_24
REMARK    8  A    between atoms: N_24  and  C_25
REMARK    9  A    between atoms: C_26  and  C_28
REMARK                            x       y       z     vdW  Elec       q    Type
REMARK                         _______ _______ _______ _____ _____    ______ ____
ROOT
ATOM      1  N   UNL     1      -0.054  11.293  18.955  0.00  0.00    +0.000 N 
ATOM      2  C   UNL     1      -0.763  10.811  20.036  0.00  0.00    +0.000 A 
ATOM      3  N   UNL     1      -1.729  11.481  20.771  0.00  0.00    +0.000 N 
ATOM      4  C   UNL     1      -2.920  11.928  20.210  0.00  0.00    +0.000 C 
ATOM      5  O   UNL     1      -3.151  12.016  19.009  0.00  0.00    +0.000 OA
ATOM      6  N   UNL     1      -0.280   9.641  20.419  0.00  0.00    +0.000 NA
ATOM      7  C   UNL     1       0.687   9.284  19.497  0.00  0.00    +0.000 A 
ATOM      8  C   UNL     1       1.461   8.096  19.352  0.00  0.00    +0.000 A 
ATOM      9  C   UNL     1       2.461   7.998  18.356  0.00  0.00    +0.000 A 
ATOM     10  C   UNL     1       2.643   9.128  17.530  0.00  0.00    +0.000 A 
ATOM     11  C   UNL     1       1.892  10.304  17.645  0.00  0.00    +0.000 A 
ATOM     12  C   UNL     1       0.895  10.337  18.619  0.00  0.00    +0.000 A 
ATOM     13  H   UNL     1      -1.728  11.211  21.743  0.00  0.00    +0.000 HD
ENDROOT
BRANCH   4  14
ATOM     14  C   UNL     1      -3.981  12.378  21.188  0.00  0.00    +0.000 A 
ATOM     15  C   UNL     1      -5.311  12.514  20.747  0.00  0.00    +0.000 A 
ATOM     16  C   UNL     1      -6.329  12.904  21.634  0.00  0.00    +0.000 A 
ATOM     17  C   UNL     1      -6.038  13.159  22.982  0.00  0.00    +0.000 A 
ATOM     18  C   UNL     1      -4.716  13.013  23.424  0.00  0.00    +0.000 A 
ATOM     19  C   UNL     1      -3.698  12.625  22.537  0.00  0.00    +0.000 A 
BRANCH  17  20
ATOM     20  C   UNL     1      -7.079  13.529  23.894  0.00  0.00    +0.000 C 
ATOM     21  N   UNL     1      -7.911  13.830  24.658  0.00  0.00    +0.000 NA
ENDBRANCH  17  20
ENDBRANCH   4  14
BRANCH   9  22
ATOM     22  N   UNL     1       3.308   6.823  18.151  0.00  0.00    +0.000 N 
ATOM     23  C   UNL     1       4.538   7.020  17.366  0.00  0.00    +0.000 C 
ATOM     24  C   UNL     1       2.993   5.523  18.652  0.00  0.00    +0.000 C 
ATOM     25  O   UNL     1       2.016   5.260  19.352  0.00  0.00    +0.000 OA
BRANCH  24  26
ATOM     26  C   UNL     1       3.912   4.356  18.161  0.00  0.00    +0.000 C 
ATOM     27  C   UNL     1       4.618   3.532  19.257  0.00  0.00    +0.000 C 
ATOM     28  C   UNL     1       3.956   2.223  19.680  0.00  0.00    +0.000 C 
ATOM     29  C   UNL     1       3.415   1.430  18.501  0.00  0.00    +0.000 C 
ATOM     30  C   UNL     1       2.460   2.293  17.694  0.00  0.00    +0.000 C 
ATOM     31  C   UNL     1       3.186   3.499  17.113  0.00  0.00    +0.000 C 
ENDBRANCH  24  26
ENDBRANCH   9  22
BRANCH   1  32
ATOM     32  C   UNL     1      -0.139  12.565  18.262  0.00  0.00    +0.000 C 
BRANCH  32  33
ATOM     33  C   UNL     1       0.882  13.631  18.612  0.00  0.00    +0.000 C 
BRANCH  33  36
ATOM     34  C   UNL     1       0.009  16.968  20.134  0.00  0.00    +0.000 C 
ATOM     35  N   UNL     1       0.556  15.917  19.317  0.00  0.00    +0.000 N 
ATOM     36  C   UNL     1       0.248  14.600  19.573  0.00  0.00    +0.000 C 
ATOM     37  O   UNL     1      -0.436  14.228  20.517  0.00  0.00    +0.000 OA
ATOM     38  H   UNL     1       1.158  16.159  18.536  0.00  0.00    +0.000 HD
ENDBRANCH  33  36
ENDBRANCH  32  33
ENDBRANCH   1  32
TORSDOF 7
ENDMDL
MODEL 9
REMARK VINA RESULT:      -7.5      2.830      4.757
REMARK  Name = 
REMARK  9 active torsions:
REMARK  status: ('A' for Active; 'I' for Inactive)
REMARK    1  A    between atoms: C_1  and  N_2
REMARK    2  A    between atoms: C_3  and  C_5
REMARK    3  A    between atoms: C_5  and  C_6
REMARK    4  A    between atoms: C_6  and  N_7
REMARK    5  A    between atoms: C_10  and  C_12
REMARK    6  A    between atoms: C_15  and  C_16
REMARK    7  A    between atoms: C_23  and  N_24
REMARK    8  A    between atoms: N_24  and  C_25
REMARK    9  A    between atoms: C_26  and  C_28
REMARK                            x       y       z     vdW  Elec       q    Type
REMARK                         _______ _______ _______ _____ _____    ______ ____
ROOT
ATOM      1  N   UNL     1      -0.026  11.725  19.263  0.00  0.00    +0.000 N 
ATOM      2  C   UNL     1      -0.276  11.762  20.619  0.00  0.00    +0.000 A 
ATOM      3  N   UNL     1      -0.877  12.788  21.333  0.00  0.00    +0.000 N 
ATOM      4  C   UNL     1      -2.184  13.197  21.098  0.00  0.00    +0.000 C 
ATOM      5  O   UNL     1      -2.856  12.902  20.114  0.00  0.00    +0.000 OA
ATOM      6  N   UNL     1       0.299  10.735  21.222  0.00  0.00    +0.000 NA
ATOM      7  C   UNL     1       0.834   9.934  20.229  0.00  0.00    +0.000 A 
ATOM      8  C   UNL     1       1.475   8.662  20.284  0.00  0.00    +0.000 A 
ATOM      9  C   UNL     1       2.016   8.071  19.118  0.00  0.00    +0.000 A 
ATOM     10  C   UNL     1       1.887   8.805  17.920  0.00  0.00    +0.000 A 
ATOM     11  C   UNL     1       1.256  10.051  17.836  0.00  0.00    +0.000 A 
ATOM     12  C   UNL     1       0.708  10.575  19.005  0.00  0.00    +0.000 A 
ATOM     13  H   UNL     1      -0.509  12.872  22.268  0.00  0.00    +0.000 HD
ENDROOT
BRANCH   4  14
ATOM     14  C   UNL     1      -2.784  14.118  22.135  0.00  0.00    +0.000 A 
ATOM     15  C   UNL     1      -2.849  15.499  21.874  0.00  0.00    +0.000 A 
ATOM     16  C   UNL     1      -3.426  16.383  22.804  0.00  0.00    +0.000 A 
ATOM     17  C   UNL     1      -3.954  15.900  24.010  0.00  0.00    +0.000 A 
ATOM     18  C   UNL     1      -3.899  14.523  24.265  0.00  0.00    +0.000 A 
ATOM     19  C   UNL     1      -3.321  13.640  23.337  0.00  0.00    +0.000 A 
BRANCH  17  20
ATOM     20  C   UNL     1      -4.567  16.795  24.946  0.00  0.00    +0.000 C 
ATOM     21  N   UNL     1      -5.063  17.508  25.728  0.00  0.00    +0.000 NA
ENDBRANCH  17  20
ENDBRANCH   4  14
BRANCH   9  22
ATOM     22  N   UNL     1       2.702   6.779  19.092  0.00  0.00    +0.000 N 
ATOM     23  C   UNL     1       2.294   5.792  20.106  0.00  0.00    +0.000 C 
ATOM     24  C   UNL     1       3.734   6.449  18.162  0.00  0.00    +0.000 C 
ATOM     25  O   UNL     1       4.119   7.183  17.253  0.00  0.00    +0.000 OA
BRANCH  24  26
ATOM     26  C   UNL     1       4.485   5.101  18.420  0.00  0.00    +0.000 C 
ATOM     27  C   UNL     1       4.739   4.212  17.186  0.00  0.00    +0.000 C 
ATOM     28  C   UNL     1       6.108   4.319  16.518  0.00  0.00    +0.000 C 
ATOM     29  C   UNL     1       7.247   4.399  17.521  0.00  0.00    +0.000 C 
ATOM     30  C   UNL     1       7.011   5.553  18.479  0.00  0.00    +0.000 C 
ATOM     31  C   UNL     1       5.735   5.333  19.282  0.00  0.00    +0.000 C 
ENDBRANCH  24  26
ENDBRANCH   9  22
BRANCH   1  32
ATOM     32  C   UNL     1      -0.349  12.677  18.217  0.00  0.00    +0.000 C 
BRANCH  32  33
ATOM     33  C   UNL     1       0.080  14.118  18.414  0.00  0.00    +0.000 C 
BRANCH  33  36
ATOM     34  C   UNL     1       3.364  15.023  20.032  0.00  0.00    +0.000 C 
ATOM     35  N   UNL     1       1.969  14.912  19.692  0.00  0.00    +0.000 N 
ATOM     36  C   UNL     1       1.571  14.148  18.618  0.00  0.00    +0.000 C 
ATOM     37  O   UNL     1       2.344  13.577  17.860  0.00  0.00    +0.000 OA
ATOM     38  H   UNL     1       1.280  15.389  20.264  0.00  0.00    +0.000 HD
ENDBRANCH  33  36
ENDBRANCH  32  33
ENDBRANCH   1  32
TORSDOF 7
ENDMDL
