MODEL 1
REMARK VINA RESULT:      -7.1      0.000      0.000
REMARK  Name = 
REMARK  10 active torsions:
REMARK  status: ('A' for Active; 'I' for Inactive)
REMARK    1  A    between atoms: C_1  and  O_2
REMARK    2  A    between atoms: O_2  and  C_3
REMARK    3  A    between atoms: C_5  and  C_6
REMARK    4  A    between atoms: C_6  and  N_7
REMARK    5  A    between atoms: C_8  and  C_10
REMARK    6  A    between atoms: C_10  and  C_11
REMARK    7  A    between atoms: C_10  and  C_13
REMARK    8  A    between atoms: C_11  and  S_12
REMARK    9  A    between atoms: C_13  and  C_14
REMARK   10  A    between atoms: C_22  and  O_23
REMARK                            x       y       z     vdW  Elec       q    Type
REMARK                         _______ _______ _______ _____ _____    ______ ____
ROOT
ATOM      1  N   UNL     1       3.073   3.440  18.616  0.00  0.00    +0.000 N 
ATOM      2  C   UNL     1       1.806   3.959  18.470  0.00  0.00    +0.000 C 
ATOM      3  O   UNL     1       1.305   4.197  17.375  0.00  0.00    +0.000 OA
ATOM      4  H   UNL     1       3.524   3.437  19.523  0.00  0.00    +0.000 HD
ENDROOT
BRANCH   1   5
ATOM      5  C   UNL     1       3.878   3.070  17.471  0.00  0.00    +0.000 C 
BRANCH   5   8
ATOM      6  C   UNL     1       6.470   5.204  15.629  0.00  0.00    +0.000 A 
ATOM      7  C   UNL     1       5.485   4.247  15.913  0.00  0.00    +0.000 A 
ATOM      8  C   UNL     1       4.969   4.076  17.210  0.00  0.00    +0.000 A 
ATOM      9  C   UNL     1       5.460   4.892  18.235  0.00  0.00    +0.000 A 
ATOM     10  C   UNL     1       6.441   5.854  17.968  0.00  0.00    +0.000 A 
ATOM     11  C   UNL     1       6.941   6.011  16.670  0.00  0.00    +0.000 A 
BRANCH   6  13
ATOM     12  C   UNL     1       6.599   4.050  13.535  0.00  0.00    +0.000 C 
ATOM     13  O   UNL     1       6.840   5.215  14.310  0.00  0.00    +0.000 OA
ENDBRANCH   6  13
BRANCH  11  14
ATOM     14  O   UNL     1       7.893   6.969  16.460  0.00  0.00    +0.000 OA
ATOM     15  H   UNL     1       8.727   6.544  16.206  0.00  0.00    +0.000 HD
ENDBRANCH  11  14
ENDBRANCH   5   8
ENDBRANCH   1   5
BRANCH   2  16
ATOM     16  C   UNL     1       1.119   4.303  19.788  0.00  0.00    +0.000 C 
BRANCH  16  17
ATOM     17  C   UNL     1       0.892   3.006  20.592  0.00  0.00    +0.000 C 
BRANCH  17  18
ATOM     18  S   UNL     1       2.073   2.684  21.950  0.00  0.00    +0.000 S 
ATOM     19  H   UNL     1       1.326   1.780  22.610  0.00  0.00    +0.000 HD
ENDBRANCH  17  18
ENDBRANCH  16  17
BRANCH  16  20
ATOM     20  C   UNL     1       1.879   5.358  20.609  0.00  0.00    +0.000 C 
BRANCH  20  21
ATOM     21  C   UNL     1       1.810   6.781  20.098  0.00  0.00    +0.000 A 
ATOM     22  C   UNL     1       2.323   7.156  18.852  0.00  0.00    +0.000 A 
ATOM     23  C   UNL     1       2.178   8.469  18.391  0.00  0.00    +0.000 A 
ATOM     24  C   UNL     1       1.516   9.418  19.170  0.00  0.00    +0.000 A 
ATOM     25  C   UNL     1       1.005   9.058  20.415  0.00  0.00    +0.000 A 
ATOM     26  C   UNL     1       1.154   7.749  20.876  0.00  0.00    +0.000 A 
ENDBRANCH  20  21
ENDBRANCH  16  20
ENDBRANCH   2  16
TORSDOF 9
ENDMDL
MODEL 2
REMARK VINA RESULT:      -7.0      1.058      2.152
REMARK  Name = 
REMARK  10 active torsions:
REMARK  status: ('A' for Active; 'I' for Inactive)
REMARK    1  A    between atoms: C_1  and  O_2
REMARK    2  A    between atoms: O_2  and  C_3
REMARK    3  A    between atoms: C_5  and  C_6
REMARK    4  A    between atoms: C_6  and  N_7
REMARK    5  A    between atoms: C_8  and  C_10
REMARK    6  A    between atoms: C_10  and  C_11
REMARK    7  A    between atoms: C_10  and  C_13
REMARK    8  A    between atoms: C_11  and  S_12
REMARK    9  A    between atoms: C_13  and  C_14
REMARK   10  A    between atoms: C_22  and  O_23
REMARK                            x       y       z     vdW  Elec       q    Type
REMARK                         _______ _______ _______ _____ _____    ______ ____
ROOT
ATOM      1  N   UNL     1       3.541   4.309  18.038  0.00  0.00    +0.000 N 
ATOM      2  C   UNL     1       2.269   4.246  18.562  0.00  0.00    +0.000 C 
ATOM      3  O   UNL     1       1.406   3.490  18.127  0.00  0.00    +0.000 OA
ATOM      4  H   UNL     1       4.161   5.070  18.289  0.00  0.00    +0.000 HD
ENDROOT
BRANCH   1   5
ATOM      5  C   UNL     1       3.967   3.426  16.974  0.00  0.00    +0.000 C 
BRANCH   5   8
ATOM      6  C   UNL     1       6.913   5.632  15.913  0.00  0.00    +0.000 A 
ATOM      7  C   UNL     1       5.872   5.059  16.659  0.00  0.00    +0.000 A 
ATOM      8  C   UNL     1       5.046   4.053  16.129  0.00  0.00    +0.000 A 
ATOM      9  C   UNL     1       5.283   3.618  14.820  0.00  0.00    +0.000 A 
ATOM     10  C   UNL     1       6.319   4.177  14.063  0.00  0.00    +0.000 A 
ATOM     11  C   UNL     1       7.132   5.177  14.608  0.00  0.00    +0.000 A 
BRANCH   6  13
ATOM     12  C   UNL     1       7.423   6.665  18.012  0.00  0.00    +0.000 C 
ATOM     13  O   UNL     1       7.600   6.594  16.605  0.00  0.00    +0.000 OA
ENDBRANCH   6  13
BRANCH  11  14
ATOM     14  O   UNL     1       8.135   5.685  13.831  0.00  0.00    +0.000 OA
ATOM     15  H   UNL     1       7.940   6.613  13.620  0.00  0.00    +0.000 HD
ENDBRANCH  11  14
ENDBRANCH   5   8
ENDBRANCH   1   5
BRANCH   2  16
ATOM     16  C   UNL     1       1.999   5.266  19.665  0.00  0.00    +0.000 C 
BRANCH  16  17
ATOM     17  C   UNL     1       2.220   4.595  21.036  0.00  0.00    +0.000 C 
BRANCH  17  18
ATOM     18  S   UNL     1       1.419   2.969  21.276  0.00  0.00    +0.000 S 
ATOM     19  H   UNL     1       1.563   2.908  22.613  0.00  0.00    +0.000 HD
ENDBRANCH  17  18
ENDBRANCH  16  17
BRANCH  16  20
ATOM     20  C   UNL     1       2.831   6.551  19.517  0.00  0.00    +0.000 C 
BRANCH  20  21
ATOM     21  C   UNL     1       2.052   7.837  19.350  0.00  0.00    +0.000 A 
ATOM     22  C   UNL     1       1.915   8.474  18.112  0.00  0.00    +0.000 A 
ATOM     23  C   UNL     1       1.130   9.627  17.990  0.00  0.00    +0.000 A 
ATOM     24  C   UNL     1       0.475  10.150  19.105  0.00  0.00    +0.000 A 
ATOM     25  C   UNL     1       0.608   9.528  20.344  0.00  0.00    +0.000 A 
ATOM     26  C   UNL     1       1.394   8.381  20.464  0.00  0.00    +0.000 A 
ENDBRANCH  20  21
ENDBRANCH  16  20
ENDBRANCH   2  16
TORSDOF 9
ENDMDL
MODEL 3
REMARK VINA RESULT:      -6.9      0.122      1.012
REMARK  Name = 
REMARK  10 active torsions:
REMARK  status: ('A' for Active; 'I' for Inactive)
REMARK    1  A    between atoms: C_1  and  O_2
REMARK    2  A    between atoms: O_2  and  C_3
REMARK    3  A    between atoms: C_5  and  C_6
REMARK    4  A    between atoms: C_6  and  N_7
REMARK    5  A    between atoms: C_8  and  C_10
REMARK    6  A    between atoms: C_10  and  C_11
REMARK    7  A    between atoms: C_10  and  C_13
REMARK    8  A    between atoms: C_11  and  S_12
REMARK    9  A    between atoms: C_13  and  C_14
REMARK   10  A    between atoms: C_22  and  O_23
REMARK                            x       y       z     vdW  Elec       q    Type
REMARK                         _______ _______ _______ _____ _____    ______ ____
ROOT
ATOM      1  N   UNL     1       3.118   3.481  18.560  0.00  0.00    +0.000 N 
ATOM      2  C   UNL     1       1.847   3.993  18.422  0.00  0.00    +0.000 C 
ATOM      3  O   UNL     1       1.339   4.231  17.329  0.00  0.00    +0.000 OA
ATOM      4  H   UNL     1       3.573   3.479  19.465  0.00  0.00    +0.000 HD
ENDROOT
BRANCH   1   5
ATOM      5  C   UNL     1       3.919   3.120  17.410  0.00  0.00    +0.000 C 
BRANCH   5   8
ATOM      6  C   UNL     1       6.540   5.248  15.600  0.00  0.00    +0.000 A 
ATOM      7  C   UNL     1       5.544   4.297  15.871  0.00  0.00    +0.000 A 
ATOM      8  C   UNL     1       5.021   4.118  17.164  0.00  0.00    +0.000 A 
ATOM      9  C   UNL     1       5.515   4.920  18.199  0.00  0.00    +0.000 A 
ATOM     10  C   UNL     1       6.505   5.876  17.946  0.00  0.00    +0.000 A 
ATOM     11  C   UNL     1       7.013   6.040  16.652  0.00  0.00    +0.000 A 
BRANCH   6  13
ATOM     12  C   UNL     1       6.601   4.141  13.478  0.00  0.00    +0.000 C 
ATOM     13  O   UNL     1       6.916   5.267  14.284  0.00  0.00    +0.000 OA
ENDBRANCH   6  13
BRANCH  11  14
ATOM     14  O   UNL     1       7.974   6.992  16.455  0.00  0.00    +0.000 OA
ATOM     15  H   UNL     1       8.169   7.061  15.507  0.00  0.00    +0.000 HD
ENDBRANCH  11  14
ENDBRANCH   5   8
ENDBRANCH   1   5
BRANCH   2  16
ATOM     16  C   UNL     1       1.164   4.329  19.744  0.00  0.00    +0.000 C 
BRANCH  16  17
ATOM     17  C   UNL     1       0.974   3.032  20.557  0.00  0.00    +0.000 C 
BRANCH  17  18
ATOM     18  S   UNL     1       2.269   2.659  21.793  0.00  0.00    +0.000 S 
ATOM     19  H   UNL     1       1.465   2.094  22.713  0.00  0.00    +0.000 HD
ENDBRANCH  17  18
ENDBRANCH  16  17
BRANCH  16  20
ATOM     20  C   UNL     1       1.908   5.406  20.552  0.00  0.00    +0.000 C 
BRANCH  20  21
ATOM     21  C   UNL     1       1.685   6.839  20.121  0.00  0.00    +0.000 A 
ATOM     22  C   UNL     1       1.106   7.794  20.964  0.00  0.00    +0.000 A 
ATOM     23  C   UNL     1       0.980   9.124  20.547  0.00  0.00    +0.000 A 
ATOM     24  C   UNL     1       1.433   9.511  19.286  0.00  0.00    +0.000 A 
ATOM     25  C   UNL     1       2.006   8.569  18.436  0.00  0.00    +0.000 A 
ATOM     26  C   UNL     1       2.128   7.242  18.850  0.00  0.00    +0.000 A 
ENDBRANCH  20  21
ENDBRANCH  16  20
ENDBRANCH   2  16
TORSDOF 9
ENDMDL
MODEL 4
REMARK VINA RESULT:      -6.9      1.209      1.607
REMARK  Name = 
REMARK  10 active torsions:
REMARK  status: ('A' for Active; 'I' for Inactive)
REMARK    1  A    between atoms: C_1  and  O_2
REMARK    2  A    between atoms: O_2  and  C_3
REMARK    3  A    between atoms: C_5  and  C_6
REMARK    4  A    between atoms: C_6  and  N_7
REMARK    5  A    between atoms: C_8  and  C_10
REMARK    6  A    between atoms: C_10  and  C_11
REMARK    7  A    between atoms: C_10  and  C_13
REMARK    8  A    between atoms: C_11  and  S_12
REMARK    9  A    between atoms: C_13  and  C_14
REMARK   10  A    between atoms: C_22  and  O_23
REMARK                            x       y       z     vdW  Elec       q    Type
REMARK                         _______ _______ _______ _____ _____    ______ ____
ROOT
ATOM      1  N   UNL     1       3.704   4.029  18.171  0.00  0.00    +0.000 N 
ATOM      2  C   UNL     1       2.369   4.340  18.299  0.00  0.00    +0.000 C 
ATOM      3  O   UNL     1       1.512   3.939  17.516  0.00  0.00    +0.000 OA
ATOM      4  H   UNL     1       4.400   4.527  18.712  0.00  0.00    +0.000 HD
ENDROOT
BRANCH   1   5
ATOM      5  C   UNL     1       4.179   3.139  17.133  0.00  0.00    +0.000 C 
BRANCH   5   8
ATOM      6  C   UNL     1       6.362   4.062  14.124  0.00  0.00    +0.000 A 
ATOM      7  C   UNL     1       5.398   3.449  14.939  0.00  0.00    +0.000 A 
ATOM      8  C   UNL     1       5.255   3.783  16.297  0.00  0.00    +0.000 A 
ATOM      9  C   UNL     1       6.103   4.757  16.836  0.00  0.00    +0.000 A 
ATOM     10  C   UNL     1       7.067   5.381  16.036  0.00  0.00    +0.000 A 
ATOM     11  C   UNL     1       7.194   5.036  14.686  0.00  0.00    +0.000 A 
BRANCH   6  13
ATOM     12  C   UNL     1       5.082   3.403  12.210  0.00  0.00    +0.000 C 
ATOM     13  O   UNL     1       6.342   3.600  12.835  0.00  0.00    +0.000 OA
ENDBRANCH   6  13
BRANCH  11  14
ATOM     14  O   UNL     1       8.146   5.678  13.946  0.00  0.00    +0.000 OA
ATOM     15  H   UNL     1       7.759   5.967  13.103  0.00  0.00    +0.000 HD
ENDBRANCH  11  14
ENDBRANCH   5   8
ENDBRANCH   1   5
BRANCH   2  16
ATOM     16  C   UNL     1       2.061   5.305  19.441  0.00  0.00    +0.000 C 
BRANCH  16  17
ATOM     17  C   UNL     1       2.258   4.575  20.785  0.00  0.00    +0.000 C 
BRANCH  17  18
ATOM     18  S   UNL     1       1.325   3.017  20.999  0.00  0.00    +0.000 S 
ATOM     19  H   UNL     1       0.103   3.569  21.118  0.00  0.00    +0.000 HD
ENDBRANCH  17  18
ENDBRANCH  16  17
BRANCH  16  20
ATOM     20  C   UNL     1       2.882   6.604  19.371  0.00  0.00    +0.000 C 
BRANCH  20  21
ATOM     21  C   UNL     1       2.091   7.894  19.332  0.00  0.00    +0.000 A 
ATOM     22  C   UNL     1       1.958   8.657  18.167  0.00  0.00    +0.000 A 
ATOM     23  C   UNL     1       1.163   9.809  18.160  0.00  0.00    +0.000 A 
ATOM     24  C   UNL     1       0.492  10.205  19.317  0.00  0.00    +0.000 A 
ATOM     25  C   UNL     1       0.621   9.458  20.485  0.00  0.00    +0.000 A 
ATOM     26  C   UNL     1       1.418   8.311  20.492  0.00  0.00    +0.000 A 
ENDBRANCH  20  21
ENDBRANCH  16  20
ENDBRANCH   2  16
TORSDOF 9
ENDMDL
MODEL 5
REMARK VINA RESULT:      -6.9      0.971      2.292
REMARK  Name = 
REMARK  10 active torsions:
REMARK  status: ('A' for Active; 'I' for Inactive)
REMARK    1  A    between atoms: C_1  and  O_2
REMARK    2  A    between atoms: O_2  and  C_3
REMARK    3  A    between atoms: C_5  and  C_6
REMARK    4  A    between atoms: C_6  and  N_7
REMARK    5  A    between atoms: C_8  and  C_10
REMARK    6  A    between atoms: C_10  and  C_11
REMARK    7  A    between atoms: C_10  and  C_13
REMARK    8  A    between atoms: C_11  and  S_12
REMARK    9  A    between atoms: C_13  and  C_14
REMARK   10  A    between atoms: C_22  and  O_23
REMARK                            x       y       z     vdW  Elec       q    Type
REMARK                         _______ _______ _______ _____ _____    ______ ____
ROOT
ATOM      1  N   UNL     1       3.482   3.997  18.449  0.00  0.00    +0.000 N 
ATOM      2  C   UNL     1       2.137   4.289  18.493  0.00  0.00    +0.000 C 
ATOM      3  O   UNL     1       1.337   3.877  17.658  0.00  0.00    +0.000 OA
ATOM      4  H   UNL     1       4.136   4.504  19.033  0.00  0.00    +0.000 HD
ENDROOT
BRANCH   1   5
ATOM      5  C   UNL     1       4.033   3.115  17.443  0.00  0.00    +0.000 C 
BRANCH   5   8
ATOM      6  C   UNL     1       7.002   5.311  16.426  0.00  0.00    +0.000 A 
ATOM      7  C   UNL     1       6.004   4.679  17.182  0.00  0.00    +0.000 A 
ATOM      8  C   UNL     1       5.064   3.815  16.594  0.00  0.00    +0.000 A 
ATOM      9  C   UNL     1       5.140   3.586  15.215  0.00  0.00    +0.000 A 
ATOM     10  C   UNL     1       6.132   4.206  14.447  0.00  0.00    +0.000 A 
ATOM     11  C   UNL     1       7.060   5.062  15.050  0.00  0.00    +0.000 A 
BRANCH   6  13
ATOM     12  C   UNL     1       7.609   6.150  18.585  0.00  0.00    +0.000 C 
ATOM     13  O   UNL     1       7.817   6.112  17.181  0.00  0.00    +0.000 OA
ENDBRANCH   6  13
BRANCH  11  14
ATOM     14  O   UNL     1       8.013   5.638  14.258  0.00  0.00    +0.000 OA
ATOM     15  H   UNL     1       7.581   6.135  13.545  0.00  0.00    +0.000 HD
ENDBRANCH  11  14
ENDBRANCH   5   8
ENDBRANCH   1   5
BRANCH   2  16
ATOM     16  C   UNL     1       1.745   5.248  19.613  0.00  0.00    +0.000 C 
BRANCH  16  17
ATOM     17  C   UNL     1       1.701   4.475  20.947  0.00  0.00    +0.000 C 
BRANCH  17  18
ATOM     18  S   UNL     1       1.769   2.652  20.824  0.00  0.00    +0.000 S 
ATOM     19  H   UNL     1       0.819   2.388  21.740  0.00  0.00    +0.000 HD
ENDBRANCH  17  18
ENDBRANCH  16  17
BRANCH  16  20
ATOM     20  C   UNL     1       2.658   6.483  19.698  0.00  0.00    +0.000 C 
BRANCH  20  21
ATOM     21  C   UNL     1       2.000   7.821  19.437  0.00  0.00    +0.000 A 
ATOM     22  C   UNL     1       1.366   8.554  20.447  0.00  0.00    +0.000 A 
ATOM     23  C   UNL     1       0.828   9.817  20.175  0.00  0.00    +0.000 A 
ATOM     24  C   UNL     1       0.923  10.359  18.894  0.00  0.00    +0.000 A 
ATOM     25  C   UNL     1       1.548   9.638  17.879  0.00  0.00    +0.000 A 
ATOM     26  C   UNL     1       2.079   8.376  18.150  0.00  0.00    +0.000 A 
ENDBRANCH  20  21
ENDBRANCH  16  20
ENDBRANCH   2  16
TORSDOF 9
ENDMDL
MODEL 6
REMARK VINA RESULT:      -6.8      0.969      1.933
REMARK  Name = 
REMARK  10 active torsions:
REMARK  status: ('A' for Active; 'I' for Inactive)
REMARK    1  A    between atoms: C_1  and  O_2
REMARK    2  A    between atoms: O_2  and  C_3
REMARK    3  A    between atoms: C_5  and  C_6
REMARK    4  A    between atoms: C_6  and  N_7
REMARK    5  A    between atoms: C_8  and  C_10
REMARK    6  A    between atoms: C_10  and  C_11
REMARK    7  A    between atoms: C_10  and  C_13
REMARK    8  A    between atoms: C_11  and  S_12
REMARK    9  A    between atoms: C_13  and  C_14
REMARK   10  A    between atoms: C_22  and  O_23
REMARK                            x       y       z     vdW  Elec       q    Type
REMARK                         _______ _______ _______ _____ _____    ______ ____
ROOT
ATOM      1  N   UNL     1       2.834   3.228  18.504  0.00  0.00    +0.000 N 
ATOM      2  C   UNL     1       1.642   3.914  18.441  0.00  0.00    +0.000 C 
ATOM      3  O   UNL     1       1.114   4.238  17.380  0.00  0.00    +0.000 OA
ATOM      4  H   UNL     1       3.333   3.148  19.381  0.00  0.00    +0.000 HD
ENDROOT
BRANCH   1   5
ATOM      5  C   UNL     1       3.513   2.776  17.308  0.00  0.00    +0.000 C 
BRANCH   5   8
ATOM      6  C   UNL     1       6.809   4.723  17.425  0.00  0.00    +0.000 A 
ATOM      7  C   UNL     1       5.730   3.899  17.776  0.00  0.00    +0.000 A 
ATOM      8  C   UNL     1       4.633   3.706  16.919  0.00  0.00    +0.000 A 
ATOM      9  C   UNL     1       4.632   4.360  15.681  0.00  0.00    +0.000 A 
ATOM     10  C   UNL     1       5.702   5.184  15.313  0.00  0.00    +0.000 A 
ATOM     11  C   UNL     1       6.786   5.362  16.180  0.00  0.00    +0.000 A 
BRANCH   6  13
ATOM     12  C   UNL     1       7.767   5.884  19.286  0.00  0.00    +0.000 C 
ATOM     13  O   UNL     1       7.775   4.781  18.393  0.00  0.00    +0.000 OA
ENDBRANCH   6  13
BRANCH  11  14
ATOM     14  O   UNL     1       7.809   6.171  15.771  0.00  0.00    +0.000 OA
ATOM     15  H   UNL     1       8.216   5.796  14.973  0.00  0.00    +0.000 HD
ENDBRANCH  11  14
ENDBRANCH   5   8
ENDBRANCH   1   5
BRANCH   2  16
ATOM     16  C   UNL     1       1.085   4.322  19.802  0.00  0.00    +0.000 C 
BRANCH  16  17
ATOM     17  C   UNL     1       0.958   3.068  20.691  0.00  0.00    +0.000 C 
BRANCH  17  18
ATOM     18  S   UNL     1       2.254   2.847  21.961  0.00  0.00    +0.000 S 
ATOM     19  H   UNL     1       1.652   3.548  22.939  0.00  0.00    +0.000 HD
ENDBRANCH  17  18
ENDBRANCH  16  17
BRANCH  16  20
ATOM     20  C   UNL     1       1.910   5.426  20.485  0.00  0.00    +0.000 C 
BRANCH  20  21
ATOM     21  C   UNL     1       2.073   6.716  19.711  0.00  0.00    +0.000 A 
ATOM     22  C   UNL     1       2.842   6.799  18.545  0.00  0.00    +0.000 A 
ATOM     23  C   UNL     1       2.912   7.996  17.825  0.00  0.00    +0.000 A 
ATOM     24  C   UNL     1       2.212   9.120  18.263  0.00  0.00    +0.000 A 
ATOM     25  C   UNL     1       1.447   9.053  19.425  0.00  0.00    +0.000 A 
ATOM     26  C   UNL     1       1.382   7.859  20.145  0.00  0.00    +0.000 A 
ENDBRANCH  20  21
ENDBRANCH  16  20
ENDBRANCH   2  16
TORSDOF 9
ENDMDL
MODEL 7
REMARK VINA RESULT:      -6.8      1.194      1.851
REMARK  Name = 
REMARK  10 active torsions:
REMARK  status: ('A' for Active; 'I' for Inactive)
REMARK    1  A    between atoms: C_1  and  O_2
REMARK    2  A    between atoms: O_2  and  C_3
REMARK    3  A    between atoms: C_5  and  C_6
REMARK    4  A    between atoms: C_6  and  N_7
REMARK    5  A    between atoms: C_8  and  C_10
REMARK    6  A    between atoms: C_10  and  C_11
REMARK    7  A    between atoms: C_10  and  C_13
REMARK    8  A    between atoms: C_11  and  S_12
REMARK    9  A    between atoms: C_13  and  C_14
REMARK   10  A    between atoms: C_22  and  O_23
REMARK                            x       y       z     vdW  Elec       q    Type
REMARK                         _______ _______ _______ _____ _____    ______ ____
ROOT
ATOM      1  N   UNL     1       3.565   4.072  18.043  0.00  0.00    +0.000 N 
ATOM      2  C   UNL     1       2.250   4.431  18.241  0.00  0.00    +0.000 C 
ATOM      3  O   UNL     1       1.353   4.138  17.455  0.00  0.00    +0.000 OA
ATOM      4  H   UNL     1       4.299   4.489  18.602  0.00  0.00    +0.000 HD
ENDROOT
BRANCH   1   5
ATOM      5  C   UNL     1       3.966   3.254  16.918  0.00  0.00    +0.000 C 
BRANCH   5   8
ATOM      6  C   UNL     1       6.348   4.182  14.066  0.00  0.00    +0.000 A 
ATOM      7  C   UNL     1       5.309   3.594  14.803  0.00  0.00    +0.000 A 
ATOM      8  C   UNL     1       5.121   3.867  16.169  0.00  0.00    +0.000 A 
ATOM      9  C   UNL     1       6.001   4.755  16.797  0.00  0.00    +0.000 A 
ATOM     10  C   UNL     1       7.041   5.353  16.077  0.00  0.00    +0.000 A 
ATOM     11  C   UNL     1       7.212   5.070  14.717  0.00  0.00    +0.000 A 
BRANCH   6  13
ATOM     12  C   UNL     1       5.180   3.222  12.209  0.00  0.00    +0.000 C 
ATOM     13  O   UNL     1       6.362   3.788  12.755  0.00  0.00    +0.000 OA
ENDBRANCH   6  13
BRANCH  11  14
ATOM     14  O   UNL     1       8.238   5.685  14.056  0.00  0.00    +0.000 OA
ATOM     15  H   UNL     1       8.895   5.020  13.793  0.00  0.00    +0.000 HD
ENDBRANCH  11  14
ENDBRANCH   5   8
ENDBRANCH   1   5
BRANCH   2  16
ATOM     16  C   UNL     1       2.022   5.307  19.469  0.00  0.00    +0.000 C 
BRANCH  16  17
ATOM     17  C   UNL     1       2.421   4.517  20.732  0.00  0.00    +0.000 C 
BRANCH  17  18
ATOM     18  S   UNL     1       1.443   3.013  21.085  0.00  0.00    +0.000 S 
ATOM     19  H   UNL     1       2.482   2.175  21.259  0.00  0.00    +0.000 HD
ENDBRANCH  17  18
ENDBRANCH  16  17
BRANCH  16  20
ATOM     20  C   UNL     1       2.748   6.661  19.389  0.00  0.00    +0.000 C 
BRANCH  20  21
ATOM     21  C   UNL     1       1.893   7.892  19.599  0.00  0.00    +0.000 A 
ATOM     22  C   UNL     1       1.263   8.168  20.817  0.00  0.00    +0.000 A 
ATOM     23  C   UNL     1       0.536   9.352  20.987  0.00  0.00    +0.000 A 
ATOM     24  C   UNL     1       0.436  10.270  19.942  0.00  0.00    +0.000 A 
ATOM     25  C   UNL     1       1.055  10.005  18.723  0.00  0.00    +0.000 A 
ATOM     26  C   UNL     1       1.776   8.822  18.553  0.00  0.00    +0.000 A 
ENDBRANCH  20  21
ENDBRANCH  16  20
ENDBRANCH   2  16
TORSDOF 9
ENDMDL
MODEL 8
REMARK VINA RESULT:      -6.7      3.783      5.357
REMARK  Name = 
REMARK  10 active torsions:
REMARK  status: ('A' for Active; 'I' for Inactive)
REMARK    1  A    between atoms: C_1  and  O_2
REMARK    2  A    between atoms: O_2  and  C_3
REMARK    3  A    between atoms: C_5  and  C_6
REMARK    4  A    between atoms: C_6  and  N_7
REMARK    5  A    between atoms: C_8  and  C_10
REMARK    6  A    between atoms: C_10  and  C_11
REMARK    7  A    between atoms: C_10  and  C_13
REMARK    8  A    between atoms: C_11  and  S_12
REMARK    9  A    between atoms: C_13  and  C_14
REMARK   10  A    between atoms: C_22  and  O_23
REMARK                            x       y       z     vdW  Elec       q    Type
REMARK                         _______ _______ _______ _____ _____    ______ ____
ROOT
ATOM      1  N   UNL     1       2.134   8.086  18.535  0.00  0.00    +0.000 N 
ATOM      2  C   UNL     1       1.588   9.338  18.355  0.00  0.00    +0.000 C 
ATOM      3  O   UNL     1       2.060  10.167  17.583  0.00  0.00    +0.000 OA
ATOM      4  H   UNL     1       1.839   7.506  19.311  0.00  0.00    +0.000 HD
ENDROOT
BRANCH   1   5
ATOM      5  C   UNL     1       3.271   7.638  17.762  0.00  0.00    +0.000 C 
BRANCH   5   8
ATOM      6  C   UNL     1       5.170   4.391  18.487  0.00  0.00    +0.000 A 
ATOM      7  C   UNL     1       4.874   5.738  18.227  0.00  0.00    +0.000 A 
ATOM      8  C   UNL     1       3.559   6.176  17.991  0.00  0.00    +0.000 A 
ATOM      9  C   UNL     1       2.527   5.233  18.024  0.00  0.00    +0.000 A 
ATOM     10  C   UNL     1       2.804   3.886  18.285  0.00  0.00    +0.000 A 
ATOM     11  C   UNL     1       4.119   3.468  18.518  0.00  0.00    +0.000 A 
BRANCH   6  13
ATOM     12  C   UNL     1       7.436   4.875  17.881  0.00  0.00    +0.000 C 
ATOM     13  O   UNL     1       6.506   4.167  18.688  0.00  0.00    +0.000 OA
ENDBRANCH   6  13
BRANCH  11  14
ATOM     14  O   UNL     1       4.336   2.144  18.775  0.00  0.00    +0.000 OA
ATOM     15  H   UNL     1       5.265   1.928  18.592  0.00  0.00    +0.000 HD
ENDBRANCH  11  14
ENDBRANCH   5   8
ENDBRANCH   1   5
BRANCH   2  16
ATOM     16  C   UNL     1       0.404   9.638  19.270  0.00  0.00    +0.000 C 
BRANCH  16  17
ATOM     17  C   UNL     1       0.879   9.599  20.737  0.00  0.00    +0.000 C 
BRANCH  17  18
ATOM     18  S   UNL     1      -0.189  10.452  21.952  0.00  0.00    +0.000 S 
ATOM     19  H   UNL     1      -1.262  10.603  21.155  0.00  0.00    +0.000 HD
ENDBRANCH  17  18
ENDBRANCH  16  17
BRANCH  16  20
ATOM     20  C   UNL     1      -0.299  10.964  18.933  0.00  0.00    +0.000 C 
BRANCH  20  21
ATOM     21  C   UNL     1      -1.633  10.853  18.226  0.00  0.00    +0.000 A 
ATOM     22  C   UNL     1      -2.735  11.639  18.578  0.00  0.00    +0.000 A 
ATOM     23  C   UNL     1      -3.930  11.550  17.854  0.00  0.00    +0.000 A 
ATOM     24  C   UNL     1      -4.031  10.677  16.771  0.00  0.00    +0.000 A 
ATOM     25  C   UNL     1      -2.942   9.885  16.414  0.00  0.00    +0.000 A 
ATOM     26  C   UNL     1      -1.753   9.972  17.139  0.00  0.00    +0.000 A 
ENDBRANCH  20  21
ENDBRANCH  16  20
ENDBRANCH   2  16
TORSDOF 9
ENDMDL
MODEL 9
REMARK VINA RESULT:      -6.7      2.992      7.159
REMARK  Name = 
REMARK  10 active torsions:
REMARK  status: ('A' for Active; 'I' for Inactive)
REMARK    1  A    between atoms: C_1  and  O_2
REMARK    2  A    between atoms: O_2  and  C_3
REMARK    3  A    between atoms: C_5  and  C_6
REMARK    4  A    between atoms: C_6  and  N_7
REMARK    5  A    between atoms: C_8  and  C_10
REMARK    6  A    between atoms: C_10  and  C_11
REMARK    7  A    between atoms: C_10  and  C_13
REMARK    8  A    between atoms: C_11  and  S_12
REMARK    9  A    between atoms: C_13  and  C_14
REMARK   10  A    between atoms: C_22  and  O_23
REMARK                            x       y       z     vdW  Elec       q    Type
REMARK                         _______ _______ _______ _____ _____    ______ ____
ROOT
ATOM      1  N   UNL     1       4.899   6.355  17.771  0.00  0.00    +0.000 N 
ATOM      2  C   UNL     1       5.451   6.743  16.570  0.00  0.00    +0.000 C 
ATOM      3  O   UNL     1       4.783   7.203  15.648  0.00  0.00    +0.000 OA
ATOM      4  H   UNL     1       5.440   5.807  18.429  0.00  0.00    +0.000 HD
ENDROOT
BRANCH   1   5
ATOM      5  C   UNL     1       3.491   6.535  18.052  0.00  0.00    +0.000 C 
BRANCH   5   8
ATOM      6  C   UNL     1       3.064   3.277  20.020  0.00  0.00    +0.000 A 
ATOM      7  C   UNL     1       3.474   4.217  19.063  0.00  0.00    +0.000 A 
ATOM      8  C   UNL     1       2.995   5.539  19.068  0.00  0.00    +0.000 A 
ATOM      9  C   UNL     1       2.086   5.913  20.064  0.00  0.00    +0.000 A 
ATOM     10  C   UNL     1       1.670   4.990  21.029  0.00  0.00    +0.000 A 
ATOM     11  C   UNL     1       2.159   3.679  21.008  0.00  0.00    +0.000 A 
BRANCH   6  13
ATOM     12  C   UNL     1       3.566   1.447  18.560  0.00  0.00    +0.000 C 
ATOM     13  O   UNL     1       3.643   2.048  19.844  0.00  0.00    +0.000 OA
ENDBRANCH   6  13
BRANCH  11  14
ATOM     14  O   UNL     1       1.727   2.817  21.977  0.00  0.00    +0.000 OA
ATOM     15  H   UNL     1       0.988   3.220  22.461  0.00  0.00    +0.000 HD
ENDBRANCH  11  14
ENDBRANCH   5   8
ENDBRANCH   1   5
BRANCH   2  16
ATOM     16  C   UNL     1       6.945   6.459  16.450  0.00  0.00    +0.000 C 
BRANCH  16  17
ATOM     17  C   UNL     1       7.645   6.880  17.759  0.00  0.00    +0.000 C 
BRANCH  17  18
ATOM     18  S   UNL     1       8.050   8.655  17.921  0.00  0.00    +0.000 S 
ATOM     19  H   UNL     1       8.598   8.814  16.702  0.00  0.00    +0.000 HD
ENDBRANCH  17  18
ENDBRANCH  16  17
BRANCH  16  20
ATOM     20  C   UNL     1       7.255   4.999  16.081  0.00  0.00    +0.000 C 
BRANCH  20  21
ATOM     21  C   UNL     1       7.066   4.621  14.628  0.00  0.00    +0.000 A 
ATOM     22  C   UNL     1       6.116   3.681  14.216  0.00  0.00    +0.000 A 
ATOM     23  C   UNL     1       5.929   3.410  12.855  0.00  0.00    +0.000 A 
ATOM     24  C   UNL     1       6.690   4.080  11.896  0.00  0.00    +0.000 A 
ATOM     25  C   UNL     1       7.643   5.014  12.294  0.00  0.00    +0.000 A 
ATOM     26  C   UNL     1       7.831   5.280  13.652  0.00  0.00    +0.000 A 
ENDBRANCH  20  21
ENDBRANCH  16  20
ENDBRANCH   2  16
TORSDOF 9
ENDMDL
