MODEL 1
REMARK VINA RESULT:      -7.9      0.000      0.000
REMARK  Name = 
REMARK  4 active torsions:
REMARK  status: ('A' for Active; 'I' for Inactive)
REMARK    1  A    between atoms: C_1  and  C_2
REMARK    2  A    between atoms: C_8  and  S_9
REMARK    3  A    between atoms: S_9  and  N_12
REMARK    4  A    between atoms: C_15  and  C_16
REMARK                            x       y       z     vdW  Elec       q    Type
REMARK                         _______ _______ _______ _____ _____    ______ ____
ROOT
ATOM      1  S   UNL     1       3.866   5.291  17.971  0.00  0.00    +0.000 S 
ATOM      2  O   UNL     1       3.386   4.871  16.669  0.00  0.00    +0.000 OA
ATOM      3  O   UNL     1       3.872   6.685  18.346  0.00  0.00    +0.000 OA
ENDROOT
BRANCH   1  11
ATOM      4  C   UNL     1       2.871   2.142  17.764  0.00  0.00    +0.000 C 
ATOM      5  C   UNL     1       2.583   2.965  18.988  0.00  0.00    +0.000 A 
ATOM      6  C   UNL     1       1.954   2.295  20.060  0.00  0.00    +0.000 A 
ATOM      7  C   UNL     1       1.716   2.944  21.268  0.00  0.00    +0.000 A 
ATOM      8  F   UNL     1       1.174   2.266  22.287  0.00  0.00    +0.000 F 
ATOM      9  C   UNL     1       2.070   4.273  21.441  0.00  0.00    +0.000 A 
ATOM     10  C   UNL     1       2.649   4.971  20.380  0.00  0.00    +0.000 A 
ATOM     11  C   UNL     1       2.905   4.330  19.149  0.00  0.00    +0.000 A 
ENDBRANCH   1  11
BRANCH   1  12
ATOM     12  N   UNL     1       5.483   4.721  18.154  0.00  0.00    +0.000 NA
ATOM     13  C   UNL     1       6.510   5.759  18.442  0.00  0.00    +0.000 C 
ATOM     14  C   UNL     1       7.060   6.138  17.066  0.00  0.00    +0.000 C 
ATOM     15  C   UNL     1       7.138   4.793  16.347  0.00  0.00    +0.000 C 
ATOM     16  C   UNL     1       6.009   3.955  16.971  0.00  0.00    +0.000 C 
BRANCH  15  17
ATOM     17  C   UNL     1       7.035   4.717  14.846  0.00  0.00    +0.000 A 
ATOM     18  C   UNL     1       6.232   3.809  14.161  0.00  0.00    +0.000 A 
ATOM     19  N   UNL     1       6.284   3.645  12.814  0.00  0.00    +0.000 NA
ATOM     20  C   UNL     1       7.185   4.410  12.165  0.00  0.00    +0.000 A 
ATOM     21  C   UNL     1       7.978   5.328  12.826  0.00  0.00    +0.000 A 
ATOM     22  N   UNL     1       7.917   5.502  14.167  0.00  0.00    +0.000 NA
ENDBRANCH  15  17
ENDBRANCH   1  12
TORSDOF 3
ENDMDL
MODEL 2
REMARK VINA RESULT:      -7.7      0.579      1.523
REMARK  Name = 
REMARK  4 active torsions:
REMARK  status: ('A' for Active; 'I' for Inactive)
REMARK    1  A    between atoms: C_1  and  C_2
REMARK    2  A    between atoms: C_8  and  S_9
REMARK    3  A    between atoms: S_9  and  N_12
REMARK    4  A    between atoms: C_15  and  C_16
REMARK                            x       y       z     vdW  Elec       q    Type
REMARK                         _______ _______ _______ _____ _____    ______ ____
ROOT
ATOM      1  S   UNL     1       4.037   5.342  17.980  0.00  0.00    +0.000 S 
ATOM      2  O   UNL     1       3.478   4.664  16.826  0.00  0.00    +0.000 OA
ATOM      3  O   UNL     1       3.983   6.780  18.095  0.00  0.00    +0.000 OA
ENDROOT
BRANCH   1  11
ATOM      4  C   UNL     1       2.027   6.701  20.230  0.00  0.00    +0.000 C 
ATOM      5  C   UNL     1       2.348   5.234  20.266  0.00  0.00    +0.000 A 
ATOM      6  C   UNL     1       1.677   4.471  21.246  0.00  0.00    +0.000 A 
ATOM      7  C   UNL     1       1.841   3.090  21.312  0.00  0.00    +0.000 A 
ATOM      8  F   UNL     1       1.145   2.384  22.213  0.00  0.00    +0.000 F 
ATOM      9  C   UNL     1       2.686   2.432  20.432  0.00  0.00    +0.000 A 
ATOM     10  C   UNL     1       3.397   3.171  19.485  0.00  0.00    +0.000 A 
ATOM     11  C   UNL     1       3.240   4.571  19.397  0.00  0.00    +0.000 A 
ENDBRANCH   1  11
BRANCH   1  12
ATOM     12  N   UNL     1       5.697   4.895  18.113  0.00  0.00    +0.000 NA
ATOM     13  C   UNL     1       6.660   6.015  18.290  0.00  0.00    +0.000 C 
ATOM     14  C   UNL     1       7.117   6.349  16.869  0.00  0.00    +0.000 C 
ATOM     15  C   UNL     1       7.256   4.972  16.223  0.00  0.00    +0.000 C 
ATOM     16  C   UNL     1       6.219   4.098  16.948  0.00  0.00    +0.000 C 
BRANCH  15  17
ATOM     17  C   UNL     1       7.089   4.802  14.735  0.00  0.00    +0.000 A 
ATOM     18  C   UNL     1       6.230   3.878  14.145  0.00  0.00    +0.000 A 
ATOM     19  N   UNL     1       6.221   3.624  12.811  0.00  0.00    +0.000 NA
ATOM     20  C   UNL     1       7.118   4.314  12.077  0.00  0.00    +0.000 A 
ATOM     21  C   UNL     1       7.964   5.247  12.643  0.00  0.00    +0.000 A 
ATOM     22  N   UNL     1       7.965   5.511  13.971  0.00  0.00    +0.000 NA
ENDBRANCH  15  17
ENDBRANCH   1  12
TORSDOF 3
ENDMDL
MODEL 3
REMARK VINA RESULT:      -7.2      1.200      1.913
REMARK  Name = 
REMARK  4 active torsions:
REMARK  status: ('A' for Active; 'I' for Inactive)
REMARK    1  A    between atoms: C_1  and  C_2
REMARK    2  A    between atoms: C_8  and  S_9
REMARK    3  A    between atoms: S_9  and  N_12
REMARK    4  A    between atoms: C_15  and  C_16
REMARK                            x       y       z     vdW  Elec       q    Type
REMARK                         _______ _______ _______ _____ _____    ______ ____
ROOT
ATOM      1  S   UNL     1       4.188   5.833  18.274  0.00  0.00    +0.000 S 
ATOM      2  O   UNL     1       3.952   6.192  16.889  0.00  0.00    +0.000 OA
ATOM      3  O   UNL     1       4.105   6.823  19.322  0.00  0.00    +0.000 OA
ENDROOT
BRANCH   1  11
ATOM      4  C   UNL     1       1.802   5.627  20.557  0.00  0.00    +0.000 C 
ATOM      5  C   UNL     1       2.022   4.519  19.567  0.00  0.00    +0.000 A 
ATOM      6  C   UNL     1       1.104   3.447  19.613  0.00  0.00    +0.000 A 
ATOM      7  C   UNL     1       1.170   2.410  18.687  0.00  0.00    +0.000 A 
ATOM      8  F   UNL     1       0.249   1.437  18.717  0.00  0.00    +0.000 F 
ATOM      9  C   UNL     1       2.153   2.391  17.710  0.00  0.00    +0.000 A 
ATOM     10  C   UNL     1       3.101   3.415  17.674  0.00  0.00    +0.000 A 
ATOM     11  C   UNL     1       3.048   4.480  18.600  0.00  0.00    +0.000 A 
ENDBRANCH   1  11
BRANCH   1  12
ATOM     12  N   UNL     1       5.755   5.124  18.384  0.00  0.00    +0.000 NA
ATOM     13  C   UNL     1       6.891   6.075  18.534  0.00  0.00    +0.000 C 
ATOM     14  C   UNL     1       7.370   6.318  17.102  0.00  0.00    +0.000 C 
ATOM     15  C   UNL     1       7.273   4.932  16.468  0.00  0.00    +0.000 C 
ATOM     16  C   UNL     1       6.121   4.243  17.220  0.00  0.00    +0.000 C 
BRANCH  15  17
ATOM     17  C   UNL     1       7.053   4.778  14.986  0.00  0.00    +0.000 A 
ATOM     18  C   UNL     1       6.160   3.874  14.416  0.00  0.00    +0.000 A 
ATOM     19  N   UNL     1       6.103   3.633  13.081  0.00  0.00    +0.000 NA
ATOM     20  C   UNL     1       6.986   4.316  12.324  0.00  0.00    +0.000 A 
ATOM     21  C   UNL     1       7.866   5.230  12.870  0.00  0.00    +0.000 A 
ATOM     22  N   UNL     1       7.914   5.480  14.199  0.00  0.00    +0.000 NA
ENDBRANCH  15  17
ENDBRANCH   1  12
TORSDOF 3
ENDMDL
MODEL 4
REMARK VINA RESULT:      -7.1      0.783      1.141
REMARK  Name = 
REMARK  4 active torsions:
REMARK  status: ('A' for Active; 'I' for Inactive)
REMARK    1  A    between atoms: C_1  and  C_2
REMARK    2  A    between atoms: C_8  and  S_9
REMARK    3  A    between atoms: S_9  and  N_12
REMARK    4  A    between atoms: C_15  and  C_16
REMARK                            x       y       z     vdW  Elec       q    Type
REMARK                         _______ _______ _______ _____ _____    ______ ____
ROOT
ATOM      1  S   UNL     1       3.552   4.855  17.574  0.00  0.00    +0.000 S 
ATOM      2  O   UNL     1       3.283   4.065  16.388  0.00  0.00    +0.000 OA
ATOM      3  O   UNL     1       3.273   6.271  17.602  0.00  0.00    +0.000 OA
ENDROOT
BRANCH   1  11
ATOM      4  C   UNL     1       3.461   1.627  18.293  0.00  0.00    +0.000 C 
ATOM      5  C   UNL     1       2.745   2.630  19.151  0.00  0.00    +0.000 A 
ATOM      6  C   UNL     1       2.119   2.127  20.313  0.00  0.00    +0.000 A 
ATOM      7  C   UNL     1       1.498   2.984  21.218  0.00  0.00    +0.000 A 
ATOM      8  F   UNL     1       0.966   2.486  22.342  0.00  0.00    +0.000 F 
ATOM      9  C   UNL     1       1.457   4.351  20.989  0.00  0.00    +0.000 A 
ATOM     10  C   UNL     1       2.026   4.866  19.823  0.00  0.00    +0.000 A 
ATOM     11  C   UNL     1       2.667   4.016  18.896  0.00  0.00    +0.000 A 
ENDBRANCH   1  11
BRANCH   1  12
ATOM     12  N   UNL     1       5.219   4.670  17.974  0.00  0.00    +0.000 NA
ATOM     13  C   UNL     1       5.971   5.929  18.229  0.00  0.00    +0.000 C 
ATOM     14  C   UNL     1       6.588   6.280  16.874  0.00  0.00    +0.000 C 
ATOM     15  C   UNL     1       7.023   4.920  16.333  0.00  0.00    +0.000 C 
ATOM     16  C   UNL     1       6.025   3.923  16.946  0.00  0.00    +0.000 C 
BRANCH  15  17
ATOM     17  C   UNL     1       7.113   4.677  14.849  0.00  0.00    +0.000 A 
ATOM     18  C   UNL     1       7.873   5.449  13.974  0.00  0.00    +0.000 A 
ATOM     19  N   UNL     1       7.806   5.319  12.624  0.00  0.00    +0.000 NA
ATOM     20  C   UNL     1       6.934   4.397  12.167  0.00  0.00    +0.000 A 
ATOM     21  C   UNL     1       6.186   3.610  13.021  0.00  0.00    +0.000 A 
ATOM     22  N   UNL     1       6.262   3.730  14.367  0.00  0.00    +0.000 NA
ENDBRANCH  15  17
ENDBRANCH   1  12
TORSDOF 3
ENDMDL
MODEL 5
REMARK VINA RESULT:      -6.9      1.387      1.679
REMARK  Name = 
REMARK  4 active torsions:
REMARK  status: ('A' for Active; 'I' for Inactive)
REMARK    1  A    between atoms: C_1  and  C_2
REMARK    2  A    between atoms: C_8  and  S_9
REMARK    3  A    between atoms: S_9  and  N_12
REMARK    4  A    between atoms: C_15  and  C_16
REMARK                            x       y       z     vdW  Elec       q    Type
REMARK                         _______ _______ _______ _____ _____    ______ ____
ROOT
ATOM      1  S   UNL     1       4.309   5.678  18.357  0.00  0.00    +0.000 S 
ATOM      2  O   UNL     1       4.113   6.273  17.049  0.00  0.00    +0.000 OA
ATOM      3  O   UNL     1       4.187   6.470  19.558  0.00  0.00    +0.000 OA
ENDROOT
BRANCH   1  11
ATOM      4  C   UNL     1       4.530   2.872  20.095  0.00  0.00    +0.000 C 
ATOM      5  C   UNL     1       3.332   3.155  19.233  0.00  0.00    +0.000 A 
ATOM      6  C   UNL     1       2.286   2.208  19.284  0.00  0.00    +0.000 A 
ATOM      7  C   UNL     1       1.100   2.416  18.587  0.00  0.00    +0.000 A 
ATOM      8  F   UNL     1       0.101   1.531  18.701  0.00  0.00    +0.000 F 
ATOM      9  C   UNL     1       0.924   3.548  17.806  0.00  0.00    +0.000 A 
ATOM     10  C   UNL     1       1.962   4.475  17.701  0.00  0.00    +0.000 A 
ATOM     11  C   UNL     1       3.171   4.287  18.406  0.00  0.00    +0.000 A 
ENDBRANCH   1  11
BRANCH   1  12
ATOM     12  N   UNL     1       5.878   4.964  18.390  0.00  0.00    +0.000 NA
ATOM     13  C   UNL     1       7.020   5.909  18.529  0.00  0.00    +0.000 C 
ATOM     14  C   UNL     1       7.449   6.196  17.089  0.00  0.00    +0.000 C 
ATOM     15  C   UNL     1       7.327   4.830  16.417  0.00  0.00    +0.000 C 
ATOM     16  C   UNL     1       6.201   4.120  17.187  0.00  0.00    +0.000 C 
BRANCH  15  17
ATOM     17  C   UNL     1       7.056   4.723  14.939  0.00  0.00    +0.000 A 
ATOM     18  C   UNL     1       6.142   3.838  14.373  0.00  0.00    +0.000 A 
ATOM     19  N   UNL     1       6.037   3.639  13.034  0.00  0.00    +0.000 NA
ATOM     20  C   UNL     1       6.895   4.344  12.268  0.00  0.00    +0.000 A 
ATOM     21  C   UNL     1       7.795   5.239  12.811  0.00  0.00    +0.000 A 
ATOM     22  N   UNL     1       7.891   5.448  14.144  0.00  0.00    +0.000 NA
ENDBRANCH  15  17
ENDBRANCH   1  12
TORSDOF 3
ENDMDL
MODEL 6
REMARK VINA RESULT:      -6.9      1.471      1.808
REMARK  Name = 
REMARK  4 active torsions:
REMARK  status: ('A' for Active; 'I' for Inactive)
REMARK    1  A    between atoms: C_1  and  C_2
REMARK    2  A    between atoms: C_8  and  S_9
REMARK    3  A    between atoms: S_9  and  N_12
REMARK    4  A    between atoms: C_15  and  C_16
REMARK                            x       y       z     vdW  Elec       q    Type
REMARK                         _______ _______ _______ _____ _____    ______ ____
ROOT
ATOM      1  S   UNL     1       3.458   3.062  17.522  0.00  0.00    +0.000 S 
ATOM      2  O   UNL     1       3.985   1.770  17.127  0.00  0.00    +0.000 OA
ATOM      3  O   UNL     1       2.560   3.793  16.659  0.00  0.00    +0.000 OA
ENDROOT
BRANCH   1  11
ATOM      4  C   UNL     1       4.852   2.022  20.336  0.00  0.00    +0.000 C 
ATOM      5  C   UNL     1       3.396   2.387  20.284  0.00  0.00    +0.000 A 
ATOM      6  C   UNL     1       2.696   2.347  21.510  0.00  0.00    +0.000 A 
ATOM      7  C   UNL     1       1.365   2.745  21.585  0.00  0.00    +0.000 A 
ATOM      8  F   UNL     1       0.744   2.754  22.772  0.00  0.00    +0.000 F 
ATOM      9  C   UNL     1       0.685   3.169  20.454  0.00  0.00    +0.000 A 
ATOM     10  C   UNL     1       1.340   3.171  19.222  0.00  0.00    +0.000 A 
ATOM     11  C   UNL     1       2.693   2.778  19.124  0.00  0.00    +0.000 A 
ENDBRANCH   1  11
BRANCH   1  12
ATOM     12  N   UNL     1       4.790   4.107  17.850  0.00  0.00    +0.000 NA
ATOM     13  C   UNL     1       4.485   5.564  17.872  0.00  0.00    +0.000 C 
ATOM     14  C   UNL     1       4.784   6.033  16.447  0.00  0.00    +0.000 C 
ATOM     15  C   UNL     1       6.051   5.258  16.090  0.00  0.00    +0.000 C 
ATOM     16  C   UNL     1       5.947   3.954  16.899  0.00  0.00    +0.000 C 
BRANCH  15  17
ATOM     17  C   UNL     1       6.367   4.923  14.656  0.00  0.00    +0.000 A 
ATOM     18  C   UNL     1       5.670   3.985  13.899  0.00  0.00    +0.000 A 
ATOM     19  N   UNL     1       6.077   3.576  12.670  0.00  0.00    +0.000 NA
ATOM     20  C   UNL     1       7.225   4.124  12.221  0.00  0.00    +0.000 A 
ATOM     21  C   UNL     1       7.920   5.069  12.950  0.00  0.00    +0.000 A 
ATOM     22  N   UNL     1       7.507   5.486  14.170  0.00  0.00    +0.000 NA
ENDBRANCH  15  17
ENDBRANCH   1  12
TORSDOF 3
ENDMDL
MODEL 7
REMARK VINA RESULT:      -6.8      0.862      1.857
REMARK  Name = 
REMARK  4 active torsions:
REMARK  status: ('A' for Active; 'I' for Inactive)
REMARK    1  A    between atoms: C_1  and  C_2
REMARK    2  A    between atoms: C_8  and  S_9
REMARK    3  A    between atoms: S_9  and  N_12
REMARK    4  A    between atoms: C_15  and  C_16
REMARK                            x       y       z     vdW  Elec       q    Type
REMARK                         _______ _______ _______ _____ _____    ______ ____
ROOT
ATOM      1  S   UNL     1       3.722   4.963  17.641  0.00  0.00    +0.000 S 
ATOM      2  O   UNL     1       3.418   3.965  16.634  0.00  0.00    +0.000 OA
ATOM      3  O   UNL     1       3.344   6.344  17.456  0.00  0.00    +0.000 OA
ENDROOT
BRANCH   1  11
ATOM      4  C   UNL     1       2.247   6.603  20.107  0.00  0.00    +0.000 C 
ATOM      5  C   UNL     1       2.344   5.104  20.126  0.00  0.00    +0.000 A 
ATOM      6  C   UNL     1       1.697   4.448  21.196  0.00  0.00    +0.000 A 
ATOM      7  C   UNL     1       1.657   3.058  21.262  0.00  0.00    +0.000 A 
ATOM      8  F   UNL     1       0.985   2.463  22.255  0.00  0.00    +0.000 F 
ATOM      9  C   UNL     1       2.273   2.283  20.292  0.00  0.00    +0.000 A 
ATOM     10  C   UNL     1       2.960   2.908  19.250  0.00  0.00    +0.000 A 
ATOM     11  C   UNL     1       3.006   4.317  19.160  0.00  0.00    +0.000 A 
ENDBRANCH   1  11
BRANCH   1  12
ATOM     12  N   UNL     1       5.424   4.946  17.916  0.00  0.00    +0.000 NA
ATOM     13  C   UNL     1       6.092   6.276  17.943  0.00  0.00    +0.000 C 
ATOM     14  C   UNL     1       6.572   6.486  16.506  0.00  0.00    +0.000 C 
ATOM     15  C   UNL     1       7.071   5.099  16.106  0.00  0.00    +0.000 C 
ATOM     16  C   UNL     1       6.204   4.126  16.924  0.00  0.00    +0.000 C 
BRANCH  15  17
ATOM     17  C   UNL     1       7.065   4.668  14.662  0.00  0.00    +0.000 A 
ATOM     18  C   UNL     1       7.828   5.267  13.663  0.00  0.00    +0.000 A 
ATOM     19  N   UNL     1       7.680   4.976  12.345  0.00  0.00    +0.000 NA
ATOM     20  C   UNL     1       6.724   4.073  12.048  0.00  0.00    +0.000 A 
ATOM     21  C   UNL     1       5.970   3.456  13.027  0.00  0.00    +0.000 A 
ATOM     22  N   UNL     1       6.126   3.736  14.342  0.00  0.00    +0.000 NA
ENDBRANCH  15  17
ENDBRANCH   1  12
TORSDOF 3
ENDMDL
MODEL 8
REMARK VINA RESULT:      -6.8      2.029      2.729
REMARK  Name = 
REMARK  4 active torsions:
REMARK  status: ('A' for Active; 'I' for Inactive)
REMARK    1  A    between atoms: C_1  and  C_2
REMARK    2  A    between atoms: C_8  and  S_9
REMARK    3  A    between atoms: S_9  and  N_12
REMARK    4  A    between atoms: C_15  and  C_16
REMARK                            x       y       z     vdW  Elec       q    Type
REMARK                         _______ _______ _______ _____ _____    ______ ____
ROOT
ATOM      1  S   UNL     1       3.830   4.016  17.937  0.00  0.00    +0.000 S 
ATOM      2  O   UNL     1       3.589   2.862  18.782  0.00  0.00    +0.000 OA
ATOM      3  O   UNL     1       3.536   3.977  16.524  0.00  0.00    +0.000 OA
ENDROOT
BRANCH   1  11
ATOM      4  C   UNL     1       2.540   4.151  20.981  0.00  0.00    +0.000 C 
ATOM      5  C   UNL     1       2.472   5.335  20.060  0.00  0.00    +0.000 A 
ATOM      6  C   UNL     1       1.916   6.516  20.599  0.00  0.00    +0.000 A 
ATOM      7  C   UNL     1       1.880   7.693  19.856  0.00  0.00    +0.000 A 
ATOM      8  F   UNL     1       1.402   8.813  20.414  0.00  0.00    +0.000 F 
ATOM      9  C   UNL     1       2.369   7.729  18.559  0.00  0.00    +0.000 A 
ATOM     10  C   UNL     1       2.880   6.563  17.988  0.00  0.00    +0.000 A 
ATOM     11  C   UNL     1       2.931   5.360  18.726  0.00  0.00    +0.000 A 
ENDBRANCH   1  11
BRANCH   1  12
ATOM     12  N   UNL     1       5.491   4.451  18.087  0.00  0.00    +0.000 NA
ATOM     13  C   UNL     1       5.775   5.909  18.194  0.00  0.00    +0.000 C 
ATOM     14  C   UNL     1       6.043   6.347  16.753  0.00  0.00    +0.000 C 
ATOM     15  C   UNL     1       6.857   5.185  16.187  0.00  0.00    +0.000 C 
ATOM     16  C   UNL     1       6.366   3.954  16.968  0.00  0.00    +0.000 C 
BRANCH  15  17
ATOM     17  C   UNL     1       6.831   4.876  14.713  0.00  0.00    +0.000 A 
ATOM     18  C   UNL     1       6.036   3.889  14.134  0.00  0.00    +0.000 A 
ATOM     19  N   UNL     1       6.154   3.512  12.835  0.00  0.00    +0.000 NA
ATOM     20  C   UNL     1       7.111   4.145  12.127  0.00  0.00    +0.000 A 
ATOM     21  C   UNL     1       7.896   5.138  12.679  0.00  0.00    +0.000 A 
ATOM     22  N   UNL     1       7.770   5.523  13.971  0.00  0.00    +0.000 NA
ENDBRANCH  15  17
ENDBRANCH   1  12
TORSDOF 3
ENDMDL
MODEL 9
REMARK VINA RESULT:      -6.8      3.569      6.563
REMARK  Name = 
REMARK  4 active torsions:
REMARK  status: ('A' for Active; 'I' for Inactive)
REMARK    1  A    between atoms: C_1  and  C_2
REMARK    2  A    between atoms: C_8  and  S_9
REMARK    3  A    between atoms: S_9  and  N_12
REMARK    4  A    between atoms: C_15  and  C_16
REMARK                            x       y       z     vdW  Elec       q    Type
REMARK                         _______ _______ _______ _____ _____    ______ ____
ROOT
ATOM      1  S   UNL     1       3.716   3.215  18.031  0.00  0.00    +0.000 S 
ATOM      2  O   UNL     1       2.748   3.916  17.211  0.00  0.00    +0.000 OA
ATOM      3  O   UNL     1       4.017   1.822  17.798  0.00  0.00    +0.000 OA
ENDROOT
BRANCH   1  11
ATOM      4  C   UNL     1       5.272   4.348  15.341  0.00  0.00    +0.000 C 
ATOM      5  C   UNL     1       5.764   4.689  16.718  0.00  0.00    +0.000 A 
ATOM      6  C   UNL     1       6.856   5.581  16.791  0.00  0.00    +0.000 A 
ATOM      7  C   UNL     1       7.336   6.024  18.020  0.00  0.00    +0.000 A 
ATOM      8  F   UNL     1       8.333   6.917  18.057  0.00  0.00    +0.000 F 
ATOM      9  C   UNL     1       6.769   5.582  19.205  0.00  0.00    +0.000 A 
ATOM     10  C   UNL     1       5.720   4.662  19.161  0.00  0.00    +0.000 A 
ATOM     11  C   UNL     1       5.213   4.205  17.925  0.00  0.00    +0.000 A 
ENDBRANCH   1  11
BRANCH   1  12
ATOM     12  N   UNL     1       3.219   3.346  19.677  0.00  0.00    +0.000 NA
ATOM     13  C   UNL     1       1.820   2.929  19.969  0.00  0.00    +0.000 C 
ATOM     14  C   UNL     1       1.013   4.225  19.877  0.00  0.00    +0.000 C 
ATOM     15  C   UNL     1       1.934   5.249  20.537  0.00  0.00    +0.000 C 
ATOM     16  C   UNL     1       3.354   4.728  20.258  0.00  0.00    +0.000 C 
BRANCH  15  17
ATOM     17  C   UNL     1       1.862   6.705  20.156  0.00  0.00    +0.000 A 
ATOM     18  C   UNL     1       1.221   7.682  20.915  0.00  0.00    +0.000 A 
ATOM     19  N   UNL     1       1.021   8.949  20.472  0.00  0.00    +0.000 NA
ATOM     20  C   UNL     1       1.467   9.212  19.227  0.00  0.00    +0.000 A 
ATOM     21  C   UNL     1       2.120   8.261  18.467  0.00  0.00    +0.000 A 
ATOM     22  N   UNL     1       2.332   7.001  18.913  0.00  0.00    +0.000 NA
ENDBRANCH  15  17
ENDBRANCH   1  12
TORSDOF 3
ENDMDL
