MODEL 1
REMARK VINA RESULT:      -7.5      0.000      0.000
REMARK  Name = 
REMARK  11 active torsions:
REMARK  status: ('A' for Active; 'I' for Inactive)
REMARK    1  A    between atoms: C_1  and  O_2
REMARK    2  A    between atoms: O_2  and  C_3
REMARK    3  A    between atoms: C_6  and  C_7
REMARK    4  A    between atoms: C_7  and  C_8
REMARK    5  A    between atoms: C_8  and  N_9
REMARK    6  A    between atoms: N_9  and  C_10
REMARK    7  A    between atoms: N_9  and  C_11
REMARK    8  A    between atoms: N_15  and  S_16
REMARK    9  A    between atoms: S_16  and  C_19
REMARK   10  A    between atoms: C_27  and  O_28
REMARK   11  A    between atoms: O_28  and  C_29
REMARK                            x       y       z     vdW  Elec       q    Type
REMARK                         _______ _______ _______ _____ _____    ______ ____
ROOT
ATOM      1  C   UNL     1       2.317   5.079  18.220  0.00  0.00    +0.000 C 
ATOM      2  C   UNL     1       1.934   3.662  17.761  0.00  0.00    +0.000 C 
ATOM      3  C   UNL     1       3.110   2.700  17.759  0.00  0.00    +0.000 C 
ATOM      4  C   UNL     1       4.182   3.202  16.813  0.00  0.00    +0.000 C 
ATOM      5  N   UNL     1       4.686   4.540  17.227  0.00  0.00    +0.000 NA
ATOM      6  C   UNL     1       3.611   5.569  17.495  0.00  0.00    +0.000 C 
ENDROOT
BRANCH   5   7
ATOM      7  S   UNL     1       5.862   5.166  16.095  0.00  0.00    +0.000 S 
ATOM      8  O   UNL     1       6.594   4.037  15.552  0.00  0.00    +0.000 OA
ATOM      9  O   UNL     1       5.190   6.105  15.222  0.00  0.00    +0.000 OA
BRANCH   7  10
ATOM     10  C   UNL     1       6.966   6.125  17.102  0.00  0.00    +0.000 A 
ATOM     11  C   UNL     1       7.191   7.477  16.827  0.00  0.00    +0.000 A 
ATOM     12  C   UNL     1       7.947   8.247  17.721  0.00  0.00    +0.000 A 
ATOM     13  C   UNL     1       8.464   7.658  18.878  0.00  0.00    +0.000 A 
ATOM     14  C   UNL     1       8.232   6.308  19.149  0.00  0.00    +0.000 A 
ATOM     15  C   UNL     1       7.480   5.538  18.261  0.00  0.00    +0.000 A 
ENDBRANCH   7  10
ENDBRANCH   5   7
BRANCH   1  16
ATOM     16  N   UNL     1       2.233   5.351  19.692  0.00  0.00    +0.000 NA
ATOM     17  C   UNL     1       1.096   4.722  20.355  0.00  0.00    +0.000 C 
BRANCH  16  18
ATOM     18  C   UNL     1       2.305   6.811  19.969  0.00  0.00    +0.000 C 
BRANCH  18  19
ATOM     19  C   UNL     1       1.285   7.401  20.968  0.00  0.00    +0.000 C 
BRANCH  19  23
ATOM     20  C   UNL     1       0.274  11.525  20.046  0.00  0.00    +0.000 A 
ATOM     21  C   UNL     1       0.836  10.686  19.070  0.00  0.00    +0.000 A 
ATOM     22  C   UNL     1       1.183   9.362  19.361  0.00  0.00    +0.000 A 
ATOM     23  C   UNL     1       1.013   8.860  20.650  0.00  0.00    +0.000 A 
ATOM     24  C   UNL     1       0.523   9.723  21.641  0.00  0.00    +0.000 A 
ATOM     25  C   UNL     1       0.160  11.054  21.361  0.00  0.00    +0.000 A 
BRANCH  20  27
ATOM     26  C   UNL     1      -0.236  13.106  18.350  0.00  0.00    +0.000 C 
ATOM     27  O   UNL     1      -0.140  12.795  19.740  0.00  0.00    +0.000 OA
ENDBRANCH  20  27
BRANCH  25  28
ATOM     28  O   UNL     1      -0.311  11.701  22.474  0.00  0.00    +0.000 OA
ATOM     29  C   UNL     1      -1.439  11.183  23.158  0.00  0.00    +0.000 C 
ENDBRANCH  25  28
ENDBRANCH  19  23
ENDBRANCH  18  19
ENDBRANCH  16  18
ENDBRANCH   1  16
TORSDOF 8
ENDMDL
MODEL 2
REMARK VINA RESULT:      -7.4      1.015      1.057
REMARK  Name = 
REMARK  11 active torsions:
REMARK  status: ('A' for Active; 'I' for Inactive)
REMARK    1  A    between atoms: C_1  and  O_2
REMARK    2  A    between atoms: O_2  and  C_3
REMARK    3  A    between atoms: C_6  and  C_7
REMARK    4  A    between atoms: C_7  and  C_8
REMARK    5  A    between atoms: C_8  and  N_9
REMARK    6  A    between atoms: N_9  and  C_10
REMARK    7  A    between atoms: N_9  and  C_11
REMARK    8  A    between atoms: N_15  and  S_16
REMARK    9  A    between atoms: S_16  and  C_19
REMARK   10  A    between atoms: C_27  and  O_28
REMARK   11  A    between atoms: O_28  and  C_29
REMARK                            x       y       z     vdW  Elec       q    Type
REMARK                         _______ _______ _______ _____ _____    ______ ____
ROOT
ATOM      1  C   UNL     1       2.124   4.966  18.589  0.00  0.00    +0.000 C 
ATOM      2  C   UNL     1       1.542   3.622  18.120  0.00  0.00    +0.000 C 
ATOM      3  C   UNL     1       2.590   2.527  18.014  0.00  0.00    +0.000 C 
ATOM      4  C   UNL     1       3.653   2.929  17.011  0.00  0.00    +0.000 C 
ATOM      5  N   UNL     1       4.342   4.182  17.425  0.00  0.00    +0.000 NA
ATOM      6  C   UNL     1       3.419   5.322  17.791  0.00  0.00    +0.000 C 
ENDROOT
BRANCH   5   7
ATOM      7  S   UNL     1       5.510   4.700  16.233  0.00  0.00    +0.000 S 
ATOM      8  O   UNL     1       6.180   3.515  15.729  0.00  0.00    +0.000 OA
ATOM      9  O   UNL     1       4.854   5.622  15.331  0.00  0.00    +0.000 OA
BRANCH   7  10
ATOM     10  C   UNL     1       6.681   5.659  17.162  0.00  0.00    +0.000 A 
ATOM     11  C   UNL     1       6.921   6.999  16.842  0.00  0.00    +0.000 A 
ATOM     12  C   UNL     1       7.734   7.774  17.680  0.00  0.00    +0.000 A 
ATOM     13  C   UNL     1       8.293   7.203  18.826  0.00  0.00    +0.000 A 
ATOM     14  C   UNL     1       8.047   5.865  19.142  0.00  0.00    +0.000 A 
ATOM     15  C   UNL     1       7.237   5.090  18.311  0.00  0.00    +0.000 A 
ENDBRANCH   7  10
ENDBRANCH   5   7
BRANCH   1  16
ATOM     16  N   UNL     1       2.168   5.196  20.070  0.00  0.00    +0.000 NA
ATOM     17  C   UNL     1       1.568   4.127  20.861  0.00  0.00    +0.000 C 
BRANCH  16  18
ATOM     18  C   UNL     1       1.609   6.530  20.418  0.00  0.00    +0.000 C 
BRANCH  18  19
ATOM     19  C   UNL     1       2.228   7.767  19.730  0.00  0.00    +0.000 C 
BRANCH  19  23
ATOM     20  C   UNL     1      -0.818  10.864  19.610  0.00  0.00    +0.000 A 
ATOM     21  C   UNL     1      -0.185  10.430  18.434  0.00  0.00    +0.000 A 
ATOM     22  C   UNL     1       0.810   9.448  18.463  0.00  0.00    +0.000 A 
ATOM     23  C   UNL     1       1.224   8.905  19.679  0.00  0.00    +0.000 A 
ATOM     24  C   UNL     1       0.644   9.395  20.858  0.00  0.00    +0.000 A 
ATOM     25  C   UNL     1      -0.366  10.374  20.844  0.00  0.00    +0.000 A 
BRANCH  20  27
ATOM     26  C   UNL     1      -2.738  11.658  18.462  0.00  0.00    +0.000 C 
ATOM     27  O   UNL     1      -1.848  11.767  19.573  0.00  0.00    +0.000 OA
ENDBRANCH  20  27
BRANCH  25  28
ATOM     28  O   UNL     1      -0.796  10.684  22.107  0.00  0.00    +0.000 OA
ATOM     29  C   UNL     1      -0.462   9.829  23.187  0.00  0.00    +0.000 C 
ENDBRANCH  25  28
ENDBRANCH  19  23
ENDBRANCH  18  19
ENDBRANCH  16  18
ENDBRANCH   1  16
TORSDOF 8
ENDMDL
MODEL 3
REMARK VINA RESULT:      -7.4      1.045      1.879
REMARK  Name = 
REMARK  11 active torsions:
REMARK  status: ('A' for Active; 'I' for Inactive)
REMARK    1  A    between atoms: C_1  and  O_2
REMARK    2  A    between atoms: O_2  and  C_3
REMARK    3  A    between atoms: C_6  and  C_7
REMARK    4  A    between atoms: C_7  and  C_8
REMARK    5  A    between atoms: C_8  and  N_9
REMARK    6  A    between atoms: N_9  and  C_10
REMARK    7  A    between atoms: N_9  and  C_11
REMARK    8  A    between atoms: N_15  and  S_16
REMARK    9  A    between atoms: S_16  and  C_19
REMARK   10  A    between atoms: C_27  and  O_28
REMARK   11  A    between atoms: O_28  and  C_29
REMARK                            x       y       z     vdW  Elec       q    Type
REMARK                         _______ _______ _______ _____ _____    ______ ____
ROOT
ATOM      1  C   UNL     1       2.162   5.022  18.846  0.00  0.00    +0.000 C 
ATOM      2  C   UNL     1       1.595   3.656  18.423  0.00  0.00    +0.000 C 
ATOM      3  C   UNL     1       2.664   2.584  18.298  0.00  0.00    +0.000 C 
ATOM      4  C   UNL     1       3.679   2.991  17.249  0.00  0.00    +0.000 C 
ATOM      5  N   UNL     1       4.353   4.267  17.613  0.00  0.00    +0.000 NA
ATOM      6  C   UNL     1       3.418   5.392  17.994  0.00  0.00    +0.000 C 
ENDROOT
BRANCH   5   7
ATOM      7  S   UNL     1       5.464   4.789  16.369  0.00  0.00    +0.000 S 
ATOM      8  O   UNL     1       6.115   3.607  15.836  0.00  0.00    +0.000 OA
ATOM      9  O   UNL     1       4.764   5.708  15.498  0.00  0.00    +0.000 OA
BRANCH   7  10
ATOM     10  C   UNL     1       6.672   5.754  17.244  0.00  0.00    +0.000 A 
ATOM     11  C   UNL     1       6.933   7.077  16.874  0.00  0.00    +0.000 A 
ATOM     12  C   UNL     1       7.778   7.862  17.670  0.00  0.00    +0.000 A 
ATOM     13  C   UNL     1       8.346   7.318  18.825  0.00  0.00    +0.000 A 
ATOM     14  C   UNL     1       8.079   5.997  19.190  0.00  0.00    +0.000 A 
ATOM     15  C   UNL     1       7.238   5.211  18.400  0.00  0.00    +0.000 A 
ENDBRANCH   7  10
ENDBRANCH   5   7
BRANCH   1  16
ATOM     16  N   UNL     1       2.256   5.280  20.320  0.00  0.00    +0.000 NA
ATOM     17  C   UNL     1       2.058   4.097  21.150  0.00  0.00    +0.000 C 
BRANCH  16  18
ATOM     18  C   UNL     1       1.364   6.401  20.722  0.00  0.00    +0.000 C 
BRANCH  18  19
ATOM     19  C   UNL     1       1.832   7.838  20.403  0.00  0.00    +0.000 C 
BRANCH  19  23
ATOM     20  C   UNL     1      -0.764  10.906  22.056  0.00  0.00    +0.000 A 
ATOM     21  C   UNL     1      -0.224   9.901  22.875  0.00  0.00    +0.000 A 
ATOM     22  C   UNL     1       0.597   8.898  22.350  0.00  0.00    +0.000 A 
ATOM     23  C   UNL     1       0.864   8.853  20.983  0.00  0.00    +0.000 A 
ATOM     24  C   UNL     1       0.262   9.813  20.157  0.00  0.00    +0.000 A 
ATOM     25  C   UNL     1      -0.557  10.835  20.671  0.00  0.00    +0.000 A 
BRANCH  20  27
ATOM     26  C   UNL     1      -0.832  13.189  22.702  0.00  0.00    +0.000 C 
ATOM     27  O   UNL     1      -1.501  11.934  22.582  0.00  0.00    +0.000 OA
ENDBRANCH  20  27
BRANCH  25  28
ATOM     28  O   UNL     1      -1.018  11.668  19.685  0.00  0.00    +0.000 OA
ATOM     29  C   UNL     1      -1.972  11.186  18.754  0.00  0.00    +0.000 C 
ENDBRANCH  25  28
ENDBRANCH  19  23
ENDBRANCH  18  19
ENDBRANCH  16  18
ENDBRANCH   1  16
TORSDOF 8
ENDMDL
MODEL 4
REMARK VINA RESULT:      -7.2      0.692      1.138
REMARK  Name = 
REMARK  11 active torsions:
REMARK  status: ('A' for Active; 'I' for Inactive)
REMARK    1  A    between atoms: C_1  and  O_2
REMARK    2  A    between atoms: O_2  and  C_3
REMARK    3  A    between atoms: C_6  and  C_7
REMARK    4  A    between atoms: C_7  and  C_8
REMARK    5  A    between atoms: C_8  and  N_9
REMARK    6  A    between atoms: N_9  and  C_10
REMARK    7  A    between atoms: N_9  and  C_11
REMARK    8  A    between atoms: N_15  and  S_16
REMARK    9  A    between atoms: S_16  and  C_19
REMARK   10  A    between atoms: C_27  and  O_28
REMARK   11  A    between atoms: O_28  and  C_29
REMARK                            x       y       z     vdW  Elec       q    Type
REMARK                         _______ _______ _______ _____ _____    ______ ____
ROOT
ATOM      1  C   UNL     1       2.206   4.461  18.301  0.00  0.00    +0.000 C 
ATOM      2  C   UNL     1       1.967   3.013  17.842  0.00  0.00    +0.000 C 
ATOM      3  C   UNL     1       3.226   2.163  17.880  0.00  0.00    +0.000 C 
ATOM      4  C   UNL     1       4.273   2.756  16.959  0.00  0.00    +0.000 C 
ATOM      5  N   UNL     1       4.642   4.137  17.376  0.00  0.00    +0.000 NA
ATOM      6  C   UNL     1       3.469   5.064  17.606  0.00  0.00    +0.000 C 
ENDROOT
BRANCH   5   7
ATOM      7  S   UNL     1       5.786   4.862  16.271  0.00  0.00    +0.000 S 
ATOM      8  O   UNL     1       6.671   3.812  15.804  0.00  0.00    +0.000 OA
ATOM      9  O   UNL     1       5.048   5.683  15.335  0.00  0.00    +0.000 OA
BRANCH   7  10
ATOM     10  C   UNL     1       6.720   5.980  17.286  0.00  0.00    +0.000 A 
ATOM     11  C   UNL     1       7.388   5.522  18.425  0.00  0.00    +0.000 A 
ATOM     12  C   UNL     1       8.239   6.391  19.123  0.00  0.00    +0.000 A 
ATOM     13  C   UNL     1       8.412   7.702  18.672  0.00  0.00    +0.000 A 
ATOM     14  C   UNL     1       7.744   8.153  17.532  0.00  0.00    +0.000 A 
ATOM     15  C   UNL     1       6.897   7.291  16.834  0.00  0.00    +0.000 A 
ENDBRANCH   7  10
ENDBRANCH   5   7
BRANCH   1  16
ATOM     16  N   UNL     1       2.058   4.732  19.768  0.00  0.00    +0.000 NA
ATOM     17  C   UNL     1       0.775   4.321  20.327  0.00  0.00    +0.000 C 
BRANCH  16  18
ATOM     18  C   UNL     1       2.375   6.151  20.082  0.00  0.00    +0.000 C 
BRANCH  18  19
ATOM     19  C   UNL     1       1.431   6.898  21.050  0.00  0.00    +0.000 C 
BRANCH  19  23
ATOM     20  C   UNL     1       0.311  10.787  19.465  0.00  0.00    +0.000 A 
ATOM     21  C   UNL     1       1.199   9.952  18.766  0.00  0.00    +0.000 A 
ATOM     22  C   UNL     1       1.581   8.707  19.276  0.00  0.00    +0.000 A 
ATOM     23  C   UNL     1       1.114   8.285  20.520  0.00  0.00    +0.000 A 
ATOM     24  C   UNL     1       0.290   9.153  21.251  0.00  0.00    +0.000 A 
ATOM     25  C   UNL     1      -0.112  10.404  20.746  0.00  0.00    +0.000 A 
BRANCH  20  27
ATOM     26  C   UNL     1      -1.377  11.923  18.245  0.00  0.00    +0.000 C 
ATOM     27  O   UNL     1      -0.126  11.969  18.930  0.00  0.00    +0.000 OA
ENDBRANCH  20  27
BRANCH  25  28
ATOM     28  O   UNL     1      -0.930  11.070  21.621  0.00  0.00    +0.000 OA
ATOM     29  C   UNL     1      -0.977  10.665  22.979  0.00  0.00    +0.000 C 
ENDBRANCH  25  28
ENDBRANCH  19  23
ENDBRANCH  18  19
ENDBRANCH  16  18
ENDBRANCH   1  16
TORSDOF 8
ENDMDL
MODEL 5
REMARK VINA RESULT:      -7.2      3.869     10.212
REMARK  Name = 
REMARK  11 active torsions:
REMARK  status: ('A' for Active; 'I' for Inactive)
REMARK    1  A    between atoms: C_1  and  O_2
REMARK    2  A    between atoms: O_2  and  C_3
REMARK    3  A    between atoms: C_6  and  C_7
REMARK    4  A    between atoms: C_7  and  C_8
REMARK    5  A    between atoms: C_8  and  N_9
REMARK    6  A    between atoms: N_9  and  C_10
REMARK    7  A    between atoms: N_9  and  C_11
REMARK    8  A    between atoms: N_15  and  S_16
REMARK    9  A    between atoms: S_16  and  C_19
REMARK   10  A    between atoms: C_27  and  O_28
REMARK   11  A    between atoms: O_28  and  C_29
REMARK                            x       y       z     vdW  Elec       q    Type
REMARK                         _______ _______ _______ _____ _____    ______ ____
ROOT
ATOM      1  C   UNL     1       0.962  10.754  20.837  0.00  0.00    +0.000 C 
ATOM      2  C   UNL     1       0.960   9.723  21.978  0.00  0.00    +0.000 C 
ATOM      3  C   UNL     1      -0.430   9.441  22.521  0.00  0.00    +0.000 C 
ATOM      4  C   UNL     1      -1.035  10.717  23.070  0.00  0.00    +0.000 C 
ATOM      5  N   UNL     1      -1.160  11.757  22.013  0.00  0.00    +0.000 NA
ATOM      6  C   UNL     1       0.099  12.001  21.212  0.00  0.00    +0.000 C 
ENDROOT
BRANCH   5   7
ATOM      7  S   UNL     1      -1.777  13.261  22.654  0.00  0.00    +0.000 S 
ATOM      8  O   UNL     1      -1.083  13.525  23.901  0.00  0.00    +0.000 OA
ATOM      9  O   UNL     1      -1.782  14.237  21.586  0.00  0.00    +0.000 OA
BRANCH   7  10
ATOM     10  C   UNL     1      -3.480  12.911  23.018  0.00  0.00    +0.000 A 
ATOM     11  C   UNL     1      -3.900  12.699  24.334  0.00  0.00    +0.000 A 
ATOM     12  C   UNL     1      -5.268  12.574  24.610  0.00  0.00    +0.000 A 
ATOM     13  C   UNL     1      -6.197  12.667  23.571  0.00  0.00    +0.000 A 
ATOM     14  C   UNL     1      -5.771  12.882  22.259  0.00  0.00    +0.000 A 
ATOM     15  C   UNL     1      -4.410  13.007  21.979  0.00  0.00    +0.000 A 
ENDBRANCH   7  10
ENDBRANCH   5   7
BRANCH   1  16
ATOM     16  N   UNL     1       0.790  10.215  19.448  0.00  0.00    +0.000 NA
ATOM     17  C   UNL     1      -0.582  10.255  18.956  0.00  0.00    +0.000 C 
BRANCH  16  18
ATOM     18  C   UNL     1       1.389   8.859  19.325  0.00  0.00    +0.000 C 
BRANCH  18  19
ATOM     19  C   UNL     1       1.911   8.431  17.936  0.00  0.00    +0.000 C 
BRANCH  19  23
ATOM     20  C   UNL     1       4.977   5.408  18.524  0.00  0.00    +0.000 A 
ATOM     21  C   UNL     1       5.112   6.386  17.526  0.00  0.00    +0.000 A 
ATOM     22  C   UNL     1       4.122   7.352  17.315  0.00  0.00    +0.000 A 
ATOM     23  C   UNL     1       2.953   7.336  18.074  0.00  0.00    +0.000 A 
ATOM     24  C   UNL     1       2.787   6.312  19.018  0.00  0.00    +0.000 A 
ATOM     25  C   UNL     1       3.778   5.339  19.249  0.00  0.00    +0.000 A 
BRANCH  20  27
ATOM     26  C   UNL     1       7.160   4.645  17.992  0.00  0.00    +0.000 C 
ATOM     27  O   UNL     1       5.980   4.512  18.784  0.00  0.00    +0.000 OA
ENDBRANCH  20  27
BRANCH  25  28
ATOM     28  O   UNL     1       3.408   4.454  20.227  0.00  0.00    +0.000 OA
ATOM     29  C   UNL     1       2.193   4.656  20.928  0.00  0.00    +0.000 C 
ENDBRANCH  25  28
ENDBRANCH  19  23
ENDBRANCH  18  19
ENDBRANCH  16  18
ENDBRANCH   1  16
TORSDOF 8
ENDMDL
MODEL 6
REMARK VINA RESULT:      -7.2      1.226      1.943
REMARK  Name = 
REMARK  11 active torsions:
REMARK  status: ('A' for Active; 'I' for Inactive)
REMARK    1  A    between atoms: C_1  and  O_2
REMARK    2  A    between atoms: O_2  and  C_3
REMARK    3  A    between atoms: C_6  and  C_7
REMARK    4  A    between atoms: C_7  and  C_8
REMARK    5  A    between atoms: C_8  and  N_9
REMARK    6  A    between atoms: N_9  and  C_10
REMARK    7  A    between atoms: N_9  and  C_11
REMARK    8  A    between atoms: N_15  and  S_16
REMARK    9  A    between atoms: S_16  and  C_19
REMARK   10  A    between atoms: C_27  and  O_28
REMARK   11  A    between atoms: O_28  and  C_29
REMARK                            x       y       z     vdW  Elec       q    Type
REMARK                         _______ _______ _______ _____ _____    ______ ____
ROOT
ATOM      1  C   UNL     1       2.331   5.868  18.371  0.00  0.00    +0.000 C 
ATOM      2  C   UNL     1       1.531   4.675  17.820  0.00  0.00    +0.000 C 
ATOM      3  C   UNL     1       2.351   3.400  17.733  0.00  0.00    +0.000 C 
ATOM      4  C   UNL     1       3.531   3.612  16.806  0.00  0.00    +0.000 C 
ATOM      5  N   UNL     1       4.423   4.695  17.303  0.00  0.00    +0.000 NA
ATOM      6  C   UNL     1       3.717   5.984  17.660  0.00  0.00    +0.000 C 
ENDROOT
BRANCH   5   7
ATOM      7  S   UNL     1       5.741   5.005  16.198  0.00  0.00    +0.000 S 
ATOM      8  O   UNL     1       6.370   3.733  15.896  0.00  0.00    +0.000 OA
ATOM      9  O   UNL     1       5.249   5.860  15.140  0.00  0.00    +0.000 OA
BRANCH   7  10
ATOM     10  C   UNL     1       6.878   5.988  17.144  0.00  0.00    +0.000 A 
ATOM     11  C   UNL     1       7.128   7.320  16.801  0.00  0.00    +0.000 A 
ATOM     12  C   UNL     1       7.911   8.116  17.648  0.00  0.00    +0.000 A 
ATOM     13  C   UNL     1       8.430   7.573  18.826  0.00  0.00    +0.000 A 
ATOM     14  C   UNL     1       8.174   6.243  19.165  0.00  0.00    +0.000 A 
ATOM     15  C   UNL     1       7.394   5.447  18.325  0.00  0.00    +0.000 A 
ENDBRANCH   7  10
ENDBRANCH   5   7
BRANCH   1  16
ATOM     16  N   UNL     1       2.328   6.046  19.860  0.00  0.00    +0.000 NA
ATOM     17  C   UNL     1       1.526   5.063  20.580  0.00  0.00    +0.000 C 
BRANCH  16  18
ATOM     18  C   UNL     1       1.965   7.441  20.227  0.00  0.00    +0.000 C 
BRANCH  18  19
ATOM     19  C   UNL     1       1.781   8.459  19.080  0.00  0.00    +0.000 C 
BRANCH  19  23
ATOM     20  C   UNL     1      -1.066  11.593  20.057  0.00  0.00    +0.000 A 
ATOM     21  C   UNL     1      -0.300  10.978  21.061  0.00  0.00    +0.000 A 
ATOM     22  C   UNL     1       0.606   9.955  20.759  0.00  0.00    +0.000 A 
ATOM     23  C   UNL     1       0.735   9.495  19.450  0.00  0.00    +0.000 A 
ATOM     24  C   UNL     1      -0.087  10.059  18.463  0.00  0.00    +0.000 A 
ATOM     25  C   UNL     1      -0.994  11.096  18.748  0.00  0.00    +0.000 A 
BRANCH  20  27
ATOM     26  C   UNL     1      -1.284  13.940  20.339  0.00  0.00    +0.000 C 
ATOM     27  O   UNL     1      -1.893  12.649  20.340  0.00  0.00    +0.000 OA
ENDBRANCH  20  27
BRANCH  25  28
ATOM     28  O   UNL     1      -1.674  11.503  17.630  0.00  0.00    +0.000 OA
ATOM     29  C   UNL     1      -3.085  11.377  17.587  0.00  0.00    +0.000 C 
ENDBRANCH  25  28
ENDBRANCH  19  23
ENDBRANCH  18  19
ENDBRANCH  16  18
ENDBRANCH   1  16
TORSDOF 8
ENDMDL
MODEL 7
REMARK VINA RESULT:      -7.0      3.058      8.977
REMARK  Name = 
REMARK  11 active torsions:
REMARK  status: ('A' for Active; 'I' for Inactive)
REMARK    1  A    between atoms: C_1  and  O_2
REMARK    2  A    between atoms: O_2  and  C_3
REMARK    3  A    between atoms: C_6  and  C_7
REMARK    4  A    between atoms: C_7  and  C_8
REMARK    5  A    between atoms: C_8  and  N_9
REMARK    6  A    between atoms: N_9  and  C_10
REMARK    7  A    between atoms: N_9  and  C_11
REMARK    8  A    between atoms: N_15  and  S_16
REMARK    9  A    between atoms: S_16  and  C_19
REMARK   10  A    between atoms: C_27  and  O_28
REMARK   11  A    between atoms: O_28  and  C_29
REMARK                            x       y       z     vdW  Elec       q    Type
REMARK                         _______ _______ _______ _____ _____    ______ ____
ROOT
ATOM      1  C   UNL     1       1.739   8.446  20.496  0.00  0.00    +0.000 C 
ATOM      2  C   UNL     1       1.394   8.609  21.986  0.00  0.00    +0.000 C 
ATOM      3  C   UNL     1      -0.075   8.910  22.225  0.00  0.00    +0.000 C 
ATOM      4  C   UNL     1      -0.453  10.205  21.535  0.00  0.00    +0.000 C 
ATOM      5  N   UNL     1      -0.238  10.119  20.065  0.00  0.00    +0.000 NA
ATOM      6  C   UNL     1       1.124   9.608  19.652  0.00  0.00    +0.000 C 
ENDROOT
BRANCH   5   7
ATOM      7  S   UNL     1      -0.589  11.636  19.270  0.00  0.00    +0.000 S 
ATOM      8  O   UNL     1      -1.161  12.529  20.261  0.00  0.00    +0.000 OA
ATOM      9  O   UNL     1       0.577  12.023  18.506  0.00  0.00    +0.000 OA
BRANCH   7  10
ATOM     10  C   UNL     1      -1.847  11.224  18.086  0.00  0.00    +0.000 A 
ATOM     11  C   UNL     1      -1.628  10.230  17.128  0.00  0.00    +0.000 A 
ATOM     12  C   UNL     1      -2.685   9.820  16.304  0.00  0.00    +0.000 A 
ATOM     13  C   UNL     1      -3.946  10.405  16.451  0.00  0.00    +0.000 A 
ATOM     14  C   UNL     1      -4.159  11.395  17.412  0.00  0.00    +0.000 A 
ATOM     15  C   UNL     1      -3.109  11.806  18.235  0.00  0.00    +0.000 A 
ENDBRANCH   7  10
ENDBRANCH   5   7
BRANCH   1  16
ATOM     16  N   UNL     1       1.609   7.066  19.925  0.00  0.00    +0.000 NA
ATOM     17  C   UNL     1       1.523   6.009  20.926  0.00  0.00    +0.000 C 
BRANCH  16  18
ATOM     18  C   UNL     1       2.676   6.801  18.923  0.00  0.00    +0.000 C 
BRANCH  18  19
ATOM     19  C   UNL     1       3.098   5.333  18.697  0.00  0.00    +0.000 C 
BRANCH  19  23
ATOM     20  C   UNL     1       6.540   5.347  16.045  0.00  0.00    +0.000 A 
ATOM     21  C   UNL     1       5.392   4.601  15.731  0.00  0.00    +0.000 A 
ATOM     22  C   UNL     1       4.286   4.574  16.587  0.00  0.00    +0.000 A 
ATOM     23  C   UNL     1       4.319   5.262  17.799  0.00  0.00    +0.000 A 
ATOM     24  C   UNL     1       5.496   5.943  18.144  0.00  0.00    +0.000 A 
ATOM     25  C   UNL     1       6.613   5.989  17.289  0.00  0.00    +0.000 A 
BRANCH  20  27
ATOM     26  C   UNL     1       7.330   5.020  13.831  0.00  0.00    +0.000 C 
ATOM     27  O   UNL     1       7.591   5.439  15.170  0.00  0.00    +0.000 OA
ENDBRANCH  20  27
BRANCH  25  28
ATOM     28  O   UNL     1       7.636   6.726  17.823  0.00  0.00    +0.000 OA
ATOM     29  C   UNL     1       7.721   8.112  17.538  0.00  0.00    +0.000 C 
ENDBRANCH  25  28
ENDBRANCH  19  23
ENDBRANCH  18  19
ENDBRANCH  16  18
ENDBRANCH   1  16
TORSDOF 8
ENDMDL
MODEL 8
REMARK VINA RESULT:      -7.0      4.499      7.282
REMARK  Name = 
REMARK  11 active torsions:
REMARK  status: ('A' for Active; 'I' for Inactive)
REMARK    1  A    between atoms: C_1  and  O_2
REMARK    2  A    between atoms: O_2  and  C_3
REMARK    3  A    between atoms: C_6  and  C_7
REMARK    4  A    between atoms: C_7  and  C_8
REMARK    5  A    between atoms: C_8  and  N_9
REMARK    6  A    between atoms: N_9  and  C_10
REMARK    7  A    between atoms: N_9  and  C_11
REMARK    8  A    between atoms: N_15  and  S_16
REMARK    9  A    between atoms: S_16  and  C_19
REMARK   10  A    between atoms: C_27  and  O_28
REMARK   11  A    between atoms: O_28  and  C_29
REMARK                            x       y       z     vdW  Elec       q    Type
REMARK                         _______ _______ _______ _____ _____    ______ ____
ROOT
ATOM      1  C   UNL     1       6.110   6.187  16.790  0.00  0.00    +0.000 C 
ATOM      2  C   UNL     1       5.029   7.265  16.608  0.00  0.00    +0.000 C 
ATOM      3  C   UNL     1       3.935   7.192  17.659  0.00  0.00    +0.000 C 
ATOM      4  C   UNL     1       3.242   5.846  17.584  0.00  0.00    +0.000 C 
ATOM      5  N   UNL     1       4.194   4.731  17.838  0.00  0.00    +0.000 NA
ATOM      6  C   UNL     1       5.464   4.783  17.019  0.00  0.00    +0.000 C 
ENDROOT
BRANCH   5   7
ATOM      7  S   UNL     1       3.423   3.172  17.670  0.00  0.00    +0.000 S 
ATOM      8  O   UNL     1       2.405   3.293  16.642  0.00  0.00    +0.000 OA
ATOM      9  O   UNL     1       4.458   2.166  17.574  0.00  0.00    +0.000 OA
BRANCH   7  10
ATOM     10  C   UNL     1       2.621   2.914  19.233  0.00  0.00    +0.000 A 
ATOM     11  C   UNL     1       3.362   2.581  20.370  0.00  0.00    +0.000 A 
ATOM     12  C   UNL     1       2.727   2.530  21.619  0.00  0.00    +0.000 A 
ATOM     13  C   UNL     1       1.363   2.816  21.715  0.00  0.00    +0.000 A 
ATOM     14  C   UNL     1       0.628   3.150  20.576  0.00  0.00    +0.000 A 
ATOM     15  C   UNL     1       1.257   3.202  19.330  0.00  0.00    +0.000 A 
ENDBRANCH   7  10
ENDBRANCH   5   7
BRANCH   1  16
ATOM     16  N   UNL     1       7.268   6.542  17.675  0.00  0.00    +0.000 NA
ATOM     17  C   UNL     1       7.370   5.731  18.883  0.00  0.00    +0.000 C 
BRANCH  16  18
ATOM     18  C   UNL     1       7.279   7.998  17.977  0.00  0.00    +0.000 C 
BRANCH  18  19
ATOM     19  C   UNL     1       8.417   8.847  17.368  0.00  0.00    +0.000 C 
BRANCH  19  23
ATOM     20  C   UNL     1       9.494  12.296  19.782  0.00  0.00    +0.000 A 
ATOM     21  C   UNL     1       9.597  10.994  20.299  0.00  0.00    +0.000 A 
ATOM     22  C   UNL     1       9.236   9.878  19.537  0.00  0.00    +0.000 A 
ATOM     23  C   UNL     1       8.721  10.042  18.252  0.00  0.00    +0.000 A 
ATOM     24  C   UNL     1       8.547  11.347  17.767  0.00  0.00    +0.000 A 
ATOM     25  C   UNL     1       8.916  12.479  18.517  0.00  0.00    +0.000 A 
BRANCH  20  27
ATOM     26  C   UNL     1       8.950  14.006  21.336  0.00  0.00    +0.000 C 
ATOM     27  O   UNL     1       9.923  13.383  20.497  0.00  0.00    +0.000 OA
ENDBRANCH  20  27
BRANCH  25  28
ATOM     28  O   UNL     1       8.675  13.644  17.837  0.00  0.00    +0.000 OA
ATOM     29  C   UNL     1       7.344  14.115  17.710  0.00  0.00    +0.000 C 
ENDBRANCH  25  28
ENDBRANCH  19  23
ENDBRANCH  18  19
ENDBRANCH  16  18
ENDBRANCH   1  16
TORSDOF 8
ENDMDL
MODEL 9
REMARK VINA RESULT:      -7.0      0.907      1.968
REMARK  Name = 
REMARK  11 active torsions:
REMARK  status: ('A' for Active; 'I' for Inactive)
REMARK    1  A    between atoms: C_1  and  O_2
REMARK    2  A    between atoms: O_2  and  C_3
REMARK    3  A    between atoms: C_6  and  C_7
REMARK    4  A    between atoms: C_7  and  C_8
REMARK    5  A    between atoms: C_8  and  N_9
REMARK    6  A    between atoms: N_9  and  C_10
REMARK    7  A    between atoms: N_9  and  C_11
REMARK    8  A    between atoms: N_15  and  S_16
REMARK    9  A    between atoms: S_16  and  C_19
REMARK   10  A    between atoms: C_27  and  O_28
REMARK   11  A    between atoms: O_28  and  C_29
REMARK                            x       y       z     vdW  Elec       q    Type
REMARK                         _______ _______ _______ _____ _____    ______ ____
ROOT
ATOM      1  C   UNL     1       2.271   5.461  18.235  0.00  0.00    +0.000 C 
ATOM      2  C   UNL     1       1.804   4.108  17.673  0.00  0.00    +0.000 C 
ATOM      3  C   UNL     1       2.903   3.059  17.663  0.00  0.00    +0.000 C 
ATOM      4  C   UNL     1       4.055   3.530  16.798  0.00  0.00    +0.000 C 
ATOM      5  N   UNL     1       4.638   4.798  17.315  0.00  0.00    +0.000 NA
ATOM      6  C   UNL     1       3.631   5.890  17.599  0.00  0.00    +0.000 C 
ENDROOT
BRANCH   5   7
ATOM      7  S   UNL     1       5.911   5.395  16.277  0.00  0.00    +0.000 S 
ATOM      8  O   UNL     1       6.739   4.263  15.903  0.00  0.00    +0.000 OA
ATOM      9  O   UNL     1       5.309   6.240  15.269  0.00  0.00    +0.000 OA
BRANCH   7  10
ATOM     10  C   UNL     1       6.859   6.468  17.327  0.00  0.00    +0.000 A 
ATOM     11  C   UNL     1       7.567   5.956  18.418  0.00  0.00    +0.000 A 
ATOM     12  C   UNL     1       8.426   6.797  19.140  0.00  0.00    +0.000 A 
ATOM     13  C   UNL     1       8.568   8.134  18.760  0.00  0.00    +0.000 A 
ATOM     14  C   UNL     1       7.861   8.638  17.667  0.00  0.00    +0.000 A 
ATOM     15  C   UNL     1       7.005   7.804  16.945  0.00  0.00    +0.000 A 
ENDBRANCH   7  10
ENDBRANCH   5   7
BRANCH   1  16
ATOM     16  N   UNL     1       2.136   5.652  19.716  0.00  0.00    +0.000 NA
ATOM     17  C   UNL     1       1.181   4.753  20.353  0.00  0.00    +0.000 C 
BRANCH  16  18
ATOM     18  C   UNL     1       1.868   7.078  20.046  0.00  0.00    +0.000 C 
BRANCH  18  19
ATOM     19  C   UNL     1       1.351   7.398  21.466  0.00  0.00    +0.000 C 
BRANCH  19  23
ATOM     20  C   UNL     1      -0.542  11.309  21.516  0.00  0.00    +0.000 A 
ATOM     21  C   UNL     1      -0.552  10.490  22.656  0.00  0.00    +0.000 A 
ATOM     22  C   UNL     1       0.037   9.221  22.645  0.00  0.00    +0.000 A 
ATOM     23  C   UNL     1       0.616   8.726  21.478  0.00  0.00    +0.000 A 
ATOM     24  C   UNL     1       0.557   9.516  20.320  0.00  0.00    +0.000 A 
ATOM     25  C   UNL     1      -0.023  10.798  20.318  0.00  0.00    +0.000 A 
BRANCH  20  27
ATOM     26  C   UNL     1      -0.111  13.622  21.829  0.00  0.00    +0.000 C 
ATOM     27  O   UNL     1      -1.048  12.582  21.549  0.00  0.00    +0.000 OA
ENDBRANCH  20  27
BRANCH  25  28
ATOM     28  O   UNL     1       0.051  11.391  19.085  0.00  0.00    +0.000 OA
ATOM     29  C   UNL     1      -1.113  11.476  18.280  0.00  0.00    +0.000 C 
ENDBRANCH  25  28
ENDBRANCH  19  23
ENDBRANCH  18  19
ENDBRANCH  16  18
ENDBRANCH   1  16
TORSDOF 8
ENDMDL
