MODEL 1
REMARK VINA RESULT:      -8.6      0.000      0.000
REMARK  Name = 
REMARK  3 active torsions:
REMARK  status: ('A' for Active; 'I' for Inactive)
REMARK    1  A    between atoms: N_1  and  C_2
REMARK    2  A    between atoms: C_7  and  C_8
REMARK    3  A    between atoms: N_10  and  N_11
REMARK                            x       y       z     vdW  Elec       q    Type
REMARK                         _______ _______ _______ _____ _____    ______ ____
ROOT
ATOM      1  N   UNL     1       3.491   7.674  17.380  0.00  0.00    +0.000 NA
ATOM      2  C   UNL     1       3.873   6.434  17.409  0.00  0.00    +0.000 C 
ATOM      3  C   UNL     1       4.796   5.819  16.410  0.00  0.00    +0.000 A 
ATOM      4  C   UNL     1       5.410   6.364  15.296  0.00  0.00    +0.000 A 
ATOM      5  C   UNL     1       6.223   5.524  14.529  0.00  0.00    +0.000 A 
ATOM      6  C   UNL     1       6.411   4.170  14.883  0.00  0.00    +0.000 A 
ATOM      7  C   UNL     1       5.785   3.635  16.013  0.00  0.00    +0.000 A 
ATOM      8  C   UNL     1       4.978   4.470  16.768  0.00  0.00    +0.000 A 
ATOM      9  C   UNL     1       4.216   4.209  17.956  0.00  0.00    +0.000 A 
ATOM     10  N   UNL     1       4.136   3.045  18.615  0.00  0.00    +0.000 NA
ATOM     11  C   UNL     1       3.345   3.082  19.710  0.00  0.00    +0.000 A 
ATOM     12  C   UNL     1       3.193   1.928  20.463  0.00  0.00    +0.000 A 
ATOM     13  C   UNL     1       2.389   1.904  21.603  0.00  0.00    +0.000 A 
ATOM     14  C   UNL     1       1.726   3.057  22.002  0.00  0.00    +0.000 A 
ATOM     15  C   UNL     1       1.865   4.233  21.259  0.00  0.00    +0.000 A 
ATOM     16  C   UNL     1       2.657   4.280  20.121  0.00  0.00    +0.000 A 
ATOM     17  N   UNL     1       2.756   5.443  19.439  0.00  0.00    +0.000 NA
ATOM     18  C   UNL     1       3.546   5.353  18.359  0.00  0.00    +0.000 A 
ENDROOT
BRANCH   1  21
ATOM     19  C   UNL     1       1.999   9.345  18.237  0.00  0.00    +0.000 C 
ATOM     20  O   UNL     1       2.185  10.131  17.306  0.00  0.00    +0.000 OA
ATOM     21  N   UNL     1       2.612   8.102  18.351  0.00  0.00    +0.000 N 
ATOM     22  H   UNL     1       2.351   7.465  19.109  0.00  0.00    +0.000 HD
BRANCH  19  28
ATOM     23  C   UNL     1       0.048  10.737  19.218  0.00  0.00    +0.000 A 
ATOM     24  C   UNL     1      -0.772  10.997  20.337  0.00  0.00    +0.000 A 
ATOM     25  C   UNL     1      -0.693  10.228  21.499  0.00  0.00    +0.000 A 
ATOM     26  C   UNL     1       0.241   9.205  21.582  0.00  0.00    +0.000 A 
ATOM     27  C   UNL     1       1.094   8.957  20.502  0.00  0.00    +0.000 A 
ATOM     28  C   UNL     1       1.027   9.725  19.318  0.00  0.00    +0.000 A 
BRANCH  23  29
ATOM     29  N   UNL     1      -0.062  11.620  18.127  0.00  0.00    +0.000 N 
ATOM     30  H   UNL     1       0.180  12.580  18.367  0.00  0.00    +0.000 HD
ATOM     31  H   UNL     1      -0.975  11.585  17.673  0.00  0.00    +0.000 HD
ENDBRANCH  23  29
ENDBRANCH  19  28
ENDBRANCH   1  21
TORSDOF 3
ENDMDL
MODEL 2
REMARK VINA RESULT:      -8.3      3.229      9.501
REMARK  Name = 
REMARK  3 active torsions:
REMARK  status: ('A' for Active; 'I' for Inactive)
REMARK    1  A    between atoms: N_1  and  C_2
REMARK    2  A    between atoms: C_7  and  C_8
REMARK    3  A    between atoms: N_10  and  N_11
REMARK                            x       y       z     vdW  Elec       q    Type
REMARK                         _______ _______ _______ _____ _____    ______ ____
ROOT
ATOM      1  N   UNL     1       0.377  11.269  21.490  0.00  0.00    +0.000 NA
ATOM      2  C   UNL     1      -0.796  11.710  21.153  0.00  0.00    +0.000 C 
ATOM      3  C   UNL     1      -1.635  12.598  22.012  0.00  0.00    +0.000 A 
ATOM      4  C   UNL     1      -1.399  13.116  23.273  0.00  0.00    +0.000 A 
ATOM      5  C   UNL     1      -2.395  13.918  23.838  0.00  0.00    +0.000 A 
ATOM      6  C   UNL     1      -3.593  14.191  23.144  0.00  0.00    +0.000 A 
ATOM      7  C   UNL     1      -3.816  13.661  21.869  0.00  0.00    +0.000 A 
ATOM      8  C   UNL     1      -2.829  12.864  21.313  0.00  0.00    +0.000 A 
ATOM      9  C   UNL     1      -2.775  12.189  20.048  0.00  0.00    +0.000 A 
ATOM     10  N   UNL     1      -3.715  12.204  19.094  0.00  0.00    +0.000 NA
ATOM     11  C   UNL     1      -3.402  11.481  17.996  0.00  0.00    +0.000 A 
ATOM     12  C   UNL     1      -4.309  11.429  16.949  0.00  0.00    +0.000 A 
ATOM     13  C   UNL     1      -4.043  10.699  15.791  0.00  0.00    +0.000 A 
ATOM     14  C   UNL     1      -2.843  10.008  15.673  0.00  0.00    +0.000 A 
ATOM     15  C   UNL     1      -1.912  10.047  16.716  0.00  0.00    +0.000 A 
ATOM     16  C   UNL     1      -2.157  10.765  17.878  0.00  0.00    +0.000 A 
ATOM     17  N   UNL     1      -1.223  10.767  18.856  0.00  0.00    +0.000 NA
ATOM     18  C   UNL     1      -1.584  11.493  19.924  0.00  0.00    +0.000 A 
ENDROOT
BRANCH   1  21
ATOM     19  C   UNL     1       1.058   9.062  20.845  0.00  0.00    +0.000 C 
ATOM     20  O   UNL     1       0.533   8.508  21.813  0.00  0.00    +0.000 OA
ATOM     21  N   UNL     1       1.030  10.433  20.611  0.00  0.00    +0.000 N 
ATOM     22  H   UNL     1       1.418  10.817  19.746  0.00  0.00    +0.000 HD
BRANCH  19  28
ATOM     23  C   UNL     1       2.123   6.859  19.994  0.00  0.00    +0.000 A 
ATOM     24  C   UNL     1       2.808   6.206  18.948  0.00  0.00    +0.000 A 
ATOM     25  C   UNL     1       3.059   6.837  17.728  0.00  0.00    +0.000 A 
ATOM     26  C   UNL     1       2.665   8.154  17.545  0.00  0.00    +0.000 A 
ATOM     27  C   UNL     1       2.023   8.836  18.582  0.00  0.00    +0.000 A 
ATOM     28  C   UNL     1       1.760   8.213  19.822  0.00  0.00    +0.000 A 
BRANCH  23  29
ATOM     29  N   UNL     1       1.989   6.156  21.207  0.00  0.00    +0.000 N 
ATOM     30  H   UNL     1       1.073   6.275  21.636  0.00  0.00    +0.000 HD
ATOM     31  H   UNL     1       2.727   6.369  21.877  0.00  0.00    +0.000 HD
ENDBRANCH  23  29
ENDBRANCH  19  28
ENDBRANCH   1  21
TORSDOF 3
ENDMDL
MODEL 3
REMARK VINA RESULT:      -8.3      0.858      1.316
REMARK  Name = 
REMARK  3 active torsions:
REMARK  status: ('A' for Active; 'I' for Inactive)
REMARK    1  A    between atoms: N_1  and  C_2
REMARK    2  A    between atoms: C_7  and  C_8
REMARK    3  A    between atoms: N_10  and  N_11
REMARK                            x       y       z     vdW  Elec       q    Type
REMARK                         _______ _______ _______ _____ _____    ______ ____
ROOT
ATOM      1  N   UNL     1       3.490   7.647  17.409  0.00  0.00    +0.000 NA
ATOM      2  C   UNL     1       3.874   6.408  17.439  0.00  0.00    +0.000 C 
ATOM      3  C   UNL     1       4.802   5.794  16.444  0.00  0.00    +0.000 A 
ATOM      4  C   UNL     1       5.419   6.340  15.332  0.00  0.00    +0.000 A 
ATOM      5  C   UNL     1       6.236   5.500  14.569  0.00  0.00    +0.000 A 
ATOM      6  C   UNL     1       6.424   4.146  14.924  0.00  0.00    +0.000 A 
ATOM      7  C   UNL     1       5.794   3.610  16.051  0.00  0.00    +0.000 A 
ATOM      8  C   UNL     1       4.983   4.445  16.803  0.00  0.00    +0.000 A 
ATOM      9  C   UNL     1       4.216   4.183  17.988  0.00  0.00    +0.000 A 
ATOM     10  N   UNL     1       4.135   3.019  18.647  0.00  0.00    +0.000 NA
ATOM     11  C   UNL     1       3.339   3.055  19.738  0.00  0.00    +0.000 A 
ATOM     12  C   UNL     1       3.185   1.901  20.491  0.00  0.00    +0.000 A 
ATOM     13  C   UNL     1       2.377   1.876  21.627  0.00  0.00    +0.000 A 
ATOM     14  C   UNL     1       1.711   3.029  22.024  0.00  0.00    +0.000 A 
ATOM     15  C   UNL     1       1.852   4.205  21.282  0.00  0.00    +0.000 A 
ATOM     16  C   UNL     1       2.649   4.253  20.147  0.00  0.00    +0.000 A 
ATOM     17  N   UNL     1       2.750   5.416  19.465  0.00  0.00    +0.000 NA
ATOM     18  C   UNL     1       3.544   5.326  18.388  0.00  0.00    +0.000 A 
ENDROOT
BRANCH   1  21
ATOM     19  C   UNL     1       1.984   9.311  18.253  0.00  0.00    +0.000 C 
ATOM     20  O   UNL     1       2.163  10.093  17.317  0.00  0.00    +0.000 OA
ATOM     21  N   UNL     1       2.608   8.074  18.377  0.00  0.00    +0.000 N 
ATOM     22  H   UNL     1       2.352   7.441  19.139  0.00  0.00    +0.000 HD
BRANCH  19  28
ATOM     23  C   UNL     1       0.942   9.107  20.616  0.00  0.00    +0.000 A 
ATOM     24  C   UNL     1      -0.056   9.552  21.509  0.00  0.00    +0.000 A 
ATOM     25  C   UNL     1      -0.917  10.602  21.184  0.00  0.00    +0.000 A 
ATOM     26  C   UNL     1      -0.824  11.203  19.937  0.00  0.00    +0.000 A 
ATOM     27  C   UNL     1       0.128  10.750  19.019  0.00  0.00    +0.000 A 
ATOM     28  C   UNL     1       1.008   9.690  19.332  0.00  0.00    +0.000 A 
BRANCH  23  29
ATOM     29  N   UNL     1       1.706   7.994  21.015  0.00  0.00    +0.000 N 
ATOM     30  H   UNL     1       2.698   8.205  21.107  0.00  0.00    +0.000 HD
ATOM     31  H   UNL     1       1.569   7.179  20.418  0.00  0.00    +0.000 HD
ENDBRANCH  23  29
ENDBRANCH  19  28
ENDBRANCH   1  21
TORSDOF 3
ENDMDL
MODEL 4
REMARK VINA RESULT:      -8.1      3.535      9.520
REMARK  Name = 
REMARK  3 active torsions:
REMARK  status: ('A' for Active; 'I' for Inactive)
REMARK    1  A    between atoms: N_1  and  C_2
REMARK    2  A    between atoms: C_7  and  C_8
REMARK    3  A    between atoms: N_10  and  N_11
REMARK                            x       y       z     vdW  Elec       q    Type
REMARK                         _______ _______ _______ _____ _____    ______ ____
ROOT
ATOM      1  N   UNL     1       0.250  11.503  21.683  0.00  0.00    +0.000 NA
ATOM      2  C   UNL     1      -0.932  11.908  21.332  0.00  0.00    +0.000 C 
ATOM      3  C   UNL     1      -1.808  12.770  22.179  0.00  0.00    +0.000 A 
ATOM      4  C   UNL     1      -1.604  13.296  23.442  0.00  0.00    +0.000 A 
ATOM      5  C   UNL     1      -2.630  14.068  23.994  0.00  0.00    +0.000 A 
ATOM      6  C   UNL     1      -3.828  14.303  23.286  0.00  0.00    +0.000 A 
ATOM      7  C   UNL     1      -4.019  13.766  22.009  0.00  0.00    +0.000 A 
ATOM      8  C   UNL     1      -3.001  12.999  21.466  0.00  0.00    +0.000 A 
ATOM      9  C   UNL     1      -2.912  12.325  20.202  0.00  0.00    +0.000 A 
ATOM     10  N   UNL     1      -3.840  12.310  19.237  0.00  0.00    +0.000 NA
ATOM     11  C   UNL     1      -3.492  11.595  18.144  0.00  0.00    +0.000 A 
ATOM     12  C   UNL     1      -4.384  11.515  17.086  0.00  0.00    +0.000 A 
ATOM     13  C   UNL     1      -4.081  10.793  15.932  0.00  0.00    +0.000 A 
ATOM     14  C   UNL     1      -2.859  10.139  15.830  0.00  0.00    +0.000 A 
ATOM     15  C   UNL     1      -1.943  10.207  16.883  0.00  0.00    +0.000 A 
ATOM     16  C   UNL     1      -2.224  10.918  18.041  0.00  0.00    +0.000 A 
ATOM     17  N   UNL     1      -1.302  10.950  19.030  0.00  0.00    +0.000 NA
ATOM     18  C   UNL     1      -1.698  11.666  20.093  0.00  0.00    +0.000 A 
ENDROOT
BRANCH   1  21
ATOM     19  C   UNL     1       0.779   9.307  20.880  0.00  0.00    +0.000 C 
ATOM     20  O   UNL     1       0.049   8.727  21.686  0.00  0.00    +0.000 OA
ATOM     21  N   UNL     1       0.939  10.687  20.813  0.00  0.00    +0.000 N 
ATOM     22  H   UNL     1       1.499  11.106  20.067  0.00  0.00    +0.000 HD
BRANCH  19  28
ATOM     23  C   UNL     1       1.854   8.893  18.559  0.00  0.00    +0.000 A 
ATOM     24  C   UNL     1       2.546   7.993  17.722  0.00  0.00    +0.000 A 
ATOM     25  C   UNL     1       2.992   6.754  18.186  0.00  0.00    +0.000 A 
ATOM     26  C   UNL     1       2.717   6.372  19.491  0.00  0.00    +0.000 A 
ATOM     27  C   UNL     1       1.995   7.229  20.326  0.00  0.00    +0.000 A 
ATOM     28  C   UNL     1       1.537   8.486  19.874  0.00  0.00    +0.000 A 
BRANCH  23  29
ATOM     29  N   UNL     1       1.385  10.082  17.969  0.00  0.00    +0.000 N 
ATOM     30  H   UNL     1       2.022  10.456  17.268  0.00  0.00    +0.000 HD
ATOM     31  H   UNL     1       1.143  10.800  18.651  0.00  0.00    +0.000 HD
ENDBRANCH  23  29
ENDBRANCH  19  28
ENDBRANCH   1  21
TORSDOF 3
ENDMDL
MODEL 5
REMARK VINA RESULT:      -7.7      4.135     10.363
REMARK  Name = 
REMARK  3 active torsions:
REMARK  status: ('A' for Active; 'I' for Inactive)
REMARK    1  A    between atoms: N_1  and  C_2
REMARK    2  A    between atoms: C_7  and  C_8
REMARK    3  A    between atoms: N_10  and  N_11
REMARK                            x       y       z     vdW  Elec       q    Type
REMARK                         _______ _______ _______ _____ _____    ______ ____
ROOT
ATOM      1  N   UNL     1      -0.114  12.510  22.060  0.00  0.00    +0.000 NA
ATOM      2  C   UNL     1      -1.358  12.849  21.912  0.00  0.00    +0.000 C 
ATOM      3  C   UNL     1      -2.125  13.668  22.896  0.00  0.00    +0.000 A 
ATOM      4  C   UNL     1      -1.740  14.213  24.109  0.00  0.00    +0.000 A 
ATOM      5  C   UNL     1      -2.700  14.932  24.827  0.00  0.00    +0.000 A 
ATOM      6  C   UNL     1      -4.011  15.098  24.330  0.00  0.00    +0.000 A 
ATOM      7  C   UNL     1      -4.383  14.543  23.102  0.00  0.00    +0.000 A 
ATOM      8  C   UNL     1      -3.431  13.828  22.394  0.00  0.00    +0.000 A 
ATOM      9  C   UNL     1      -3.518  13.152  21.131  0.00  0.00    +0.000 A 
ATOM     10  N   UNL     1      -4.593  13.081  20.335  0.00  0.00    +0.000 NA
ATOM     11  C   UNL     1      -4.394  12.380  19.197  0.00  0.00    +0.000 A 
ATOM     12  C   UNL     1      -5.445  12.245  18.304  0.00  0.00    +0.000 A 
ATOM     13  C   UNL     1      -5.302  11.532  17.113  0.00  0.00    +0.000 A 
ATOM     14  C   UNL     1      -4.081  10.944  16.806  0.00  0.00    +0.000 A 
ATOM     15  C   UNL     1      -3.006  11.068  17.691  0.00  0.00    +0.000 A 
ATOM     16  C   UNL     1      -3.127  11.770  18.882  0.00  0.00    +0.000 A 
ATOM     17  N   UNL     1      -2.056  11.858  19.703  0.00  0.00    +0.000 NA
ATOM     18  C   UNL     1      -2.306  12.558  20.819  0.00  0.00    +0.000 A 
ENDROOT
BRANCH   1  21
ATOM     19  C   UNL     1       0.528  10.347  21.249  0.00  0.00    +0.000 C 
ATOM     20  O   UNL     1       0.102   9.740  22.234  0.00  0.00    +0.000 OA
ATOM     21  N   UNL     1       0.463  11.726  21.084  0.00  0.00    +0.000 N 
ATOM     22  H   UNL     1       0.763  12.156  20.206  0.00  0.00    +0.000 HD
BRANCH  19  28
ATOM     23  C   UNL     1       1.625   8.235  20.225  0.00  0.00    +0.000 A 
ATOM     24  C   UNL     1       2.202   7.640  19.084  0.00  0.00    +0.000 A 
ATOM     25  C   UNL     1       2.228   8.292  17.849  0.00  0.00    +0.000 A 
ATOM     26  C   UNL     1       1.713   9.575  17.742  0.00  0.00    +0.000 A 
ATOM     27  C   UNL     1       1.175  10.202  18.869  0.00  0.00    +0.000 A 
ATOM     28  C   UNL     1       1.139   9.557  20.125  0.00  0.00    +0.000 A 
BRANCH  23  29
ATOM     29  N   UNL     1       1.720   7.521  21.435  0.00  0.00    +0.000 N 
ATOM     30  H   UNL     1       2.668   7.212  21.641  0.00  0.00    +0.000 HD
ATOM     31  H   UNL     1       1.069   6.738  21.490  0.00  0.00    +0.000 HD
ENDBRANCH  23  29
ENDBRANCH  19  28
ENDBRANCH   1  21
TORSDOF 3
ENDMDL
MODEL 6
REMARK VINA RESULT:      -7.5      4.183     10.151
REMARK  Name = 
REMARK  3 active torsions:
REMARK  status: ('A' for Active; 'I' for Inactive)
REMARK    1  A    between atoms: N_1  and  C_2
REMARK    2  A    between atoms: C_7  and  C_8
REMARK    3  A    between atoms: N_10  and  N_11
REMARK                            x       y       z     vdW  Elec       q    Type
REMARK                         _______ _______ _______ _____ _____    ______ ____
ROOT
ATOM      1  N   UNL     1      -0.001  12.340  22.019  0.00  0.00    +0.000 NA
ATOM      2  C   UNL     1      -1.238  12.705  21.865  0.00  0.00    +0.000 C 
ATOM      3  C   UNL     1      -1.989  13.549  22.840  0.00  0.00    +0.000 A 
ATOM      4  C   UNL     1      -1.596  14.095  24.049  0.00  0.00    +0.000 A 
ATOM      5  C   UNL     1      -2.541  14.842  24.759  0.00  0.00    +0.000 A 
ATOM      6  C   UNL     1      -3.846  15.032  24.257  0.00  0.00    +0.000 A 
ATOM      7  C   UNL     1      -4.228  14.476  23.032  0.00  0.00    +0.000 A 
ATOM      8  C   UNL     1      -3.289  13.734  22.333  0.00  0.00    +0.000 A 
ATOM      9  C   UNL     1      -3.388  13.049  21.075  0.00  0.00    +0.000 A 
ATOM     10  N   UNL     1      -4.463  12.996  20.276  0.00  0.00    +0.000 NA
ATOM     11  C   UNL     1      -4.276  12.281  19.145  0.00  0.00    +0.000 A 
ATOM     12  C   UNL     1      -5.328  12.162  18.250  0.00  0.00    +0.000 A 
ATOM     13  C   UNL     1      -5.197  11.436  17.065  0.00  0.00    +0.000 A 
ATOM     14  C   UNL     1      -3.988  10.819  16.767  0.00  0.00    +0.000 A 
ATOM     15  C   UNL     1      -2.913  10.926  17.654  0.00  0.00    +0.000 A 
ATOM     16  C   UNL     1      -3.022  11.641  18.839  0.00  0.00    +0.000 A 
ATOM     17  N   UNL     1      -1.952  11.712  19.662  0.00  0.00    +0.000 NA
ATOM     18  C   UNL     1      -2.189  12.426  20.771  0.00  0.00    +0.000 A 
ENDROOT
BRANCH   1  21
ATOM     19  C   UNL     1       0.542  10.153  21.200  0.00  0.00    +0.000 C 
ATOM     20  O   UNL     1       0.052   9.561  22.163  0.00  0.00    +0.000 OA
ATOM     21  N   UNL     1       0.560  11.536  21.051  0.00  0.00    +0.000 N 
ATOM     22  H   UNL     1       0.912  11.958  20.188  0.00  0.00    +0.000 HD
BRANCH  19  28
ATOM     23  C   UNL     1       1.237   9.751  18.736  0.00  0.00    +0.000 A 
ATOM     24  C   UNL     1       1.801   8.860  17.800  0.00  0.00    +0.000 A 
ATOM     25  C   UNL     1       2.338   7.631  18.186  0.00  0.00    +0.000 A 
ATOM     26  C   UNL     1       2.284   7.248  19.518  0.00  0.00    +0.000 A 
ATOM     27  C   UNL     1       1.691   8.095  20.459  0.00  0.00    +0.000 A 
ATOM     28  C   UNL     1       1.143   9.343  20.085  0.00  0.00    +0.000 A 
BRANCH  23  29
ATOM     29  N   UNL     1       0.657  10.929  18.229  0.00  0.00    +0.000 N 
ATOM     30  H   UNL     1       0.765  11.023  17.221  0.00  0.00    +0.000 HD
ATOM     31  H   UNL     1       0.981  11.772  18.702  0.00  0.00    +0.000 HD
ENDBRANCH  23  29
ENDBRANCH  19  28
ENDBRANCH   1  21
TORSDOF 3
ENDMDL
MODEL 7
REMARK VINA RESULT:      -7.3      3.372      9.838
REMARK  Name = 
REMARK  3 active torsions:
REMARK  status: ('A' for Active; 'I' for Inactive)
REMARK    1  A    between atoms: N_1  and  C_2
REMARK    2  A    between atoms: C_7  and  C_8
REMARK    3  A    between atoms: N_10  and  N_11
REMARK                            x       y       z     vdW  Elec       q    Type
REMARK                         _______ _______ _______ _____ _____    ______ ____
ROOT
ATOM      1  N   UNL     1      -0.814  10.184  21.361  0.00  0.00    +0.000 NA
ATOM      2  C   UNL     1      -0.721  11.475  21.463  0.00  0.00    +0.000 C 
ATOM      3  C   UNL     1      -1.549  12.303  22.388  0.00  0.00    +0.000 A 
ATOM      4  C   UNL     1      -2.543  11.937  23.279  0.00  0.00    +0.000 A 
ATOM      5  C   UNL     1      -3.160  12.955  24.012  0.00  0.00    +0.000 A 
ATOM      6  C   UNL     1      -2.780  14.305  23.849  0.00  0.00    +0.000 A 
ATOM      7  C   UNL     1      -1.773  14.658  22.946  0.00  0.00    +0.000 A 
ATOM      8  C   UNL     1      -1.165  13.647  22.219  0.00  0.00    +0.000 A 
ATOM      9  C   UNL     1      -0.124  13.702  21.232  0.00  0.00    +0.000 A 
ATOM     10  N   UNL     1       0.511  14.799  20.800  0.00  0.00    +0.000 NA
ATOM     11  C   UNL     1       1.456  14.560  19.864  0.00  0.00    +0.000 A 
ATOM     12  C   UNL     1       2.172  15.629  19.349  0.00  0.00    +0.000 A 
ATOM     13  C   UNL     1       3.158  15.446  18.381  0.00  0.00    +0.000 A 
ATOM     14  C   UNL     1       3.440  14.166  17.919  0.00  0.00    +0.000 A 
ATOM     15  C   UNL     1       2.732  13.072  18.424  0.00  0.00    +0.000 A 
ATOM     16  C   UNL     1       1.745  13.231  19.387  0.00  0.00    +0.000 A 
ATOM     17  N   UNL     1       1.089  12.139  19.841  0.00  0.00    +0.000 NA
ATOM     18  C   UNL     1       0.160  12.430  20.762  0.00  0.00    +0.000 A 
ENDROOT
BRANCH   1  21
ATOM     19  C   UNL     1       1.021   8.717  20.879  0.00  0.00    +0.000 C 
ATOM     20  O   UNL     1       1.284   8.494  22.062  0.00  0.00    +0.000 OA
ATOM     21  N   UNL     1      -0.005   9.549  20.444  0.00  0.00    +0.000 N 
ATOM     22  H   UNL     1      -0.219   9.626  19.446  0.00  0.00    +0.000 HD
BRANCH  19  28
ATOM     23  C   UNL     1       2.321   6.708  19.886  0.00  0.00    +0.000 A 
ATOM     24  C   UNL     1       3.102   6.219  18.819  0.00  0.00    +0.000 A 
ATOM     25  C   UNL     1       3.334   6.978  17.670  0.00  0.00    +0.000 A 
ATOM     26  C   UNL     1       2.821   8.264  17.585  0.00  0.00    +0.000 A 
ATOM     27  C   UNL     1       2.081   8.787  18.648  0.00  0.00    +0.000 A 
ATOM     28  C   UNL     1       1.836   8.032  19.817  0.00  0.00    +0.000 A 
BRANCH  23  29
ATOM     29  N   UNL     1       2.213   5.889  21.027  0.00  0.00    +0.000 N 
ATOM     30  H   UNL     1       1.500   6.210  21.680  0.00  0.00    +0.000 HD
ATOM     31  H   UNL     1       3.102   5.753  21.508  0.00  0.00    +0.000 HD
ENDBRANCH  23  29
ENDBRANCH  19  28
ENDBRANCH   1  21
TORSDOF 3
ENDMDL
MODEL 8
REMARK VINA RESULT:      -7.2      7.062     11.444
REMARK  Name = 
REMARK  3 active torsions:
REMARK  status: ('A' for Active; 'I' for Inactive)
REMARK    1  A    between atoms: N_1  and  C_2
REMARK    2  A    between atoms: C_7  and  C_8
REMARK    3  A    between atoms: N_10  and  N_11
REMARK                            x       y       z     vdW  Elec       q    Type
REMARK                         _______ _______ _______ _____ _____    ______ ____
ROOT
ATOM      1  N   UNL     1      -1.346  14.252  20.854  0.00  0.00    +0.000 NA
ATOM      2  C   UNL     1      -2.074  14.371  21.921  0.00  0.00    +0.000 C 
ATOM      3  C   UNL     1      -1.650  15.109  23.147  0.00  0.00    +0.000 A 
ATOM      4  C   UNL     1      -0.474  15.780  23.433  0.00  0.00    +0.000 A 
ATOM      5  C   UNL     1      -0.357  16.373  24.693  0.00  0.00    +0.000 A 
ATOM      6  C   UNL     1      -1.404  16.290  25.638  0.00  0.00    +0.000 A 
ATOM      7  C   UNL     1      -2.587  15.610  25.334  0.00  0.00    +0.000 A 
ATOM      8  C   UNL     1      -2.697  15.022  24.084  0.00  0.00    +0.000 A 
ATOM      9  C   UNL     1      -3.768  14.267  23.499  0.00  0.00    +0.000 A 
ATOM     10  N   UNL     1      -4.944  13.972  24.069  0.00  0.00    +0.000 NA
ATOM     11  C   UNL     1      -5.774  13.247  23.287  0.00  0.00    +0.000 A 
ATOM     12  C   UNL     1      -7.017  12.889  23.784  0.00  0.00    +0.000 A 
ATOM     13  C   UNL     1      -7.916  12.140  23.024  0.00  0.00    +0.000 A 
ATOM     14  C   UNL     1      -7.568  11.745  21.738  0.00  0.00    +0.000 A 
ATOM     15  C   UNL     1      -6.321  12.096  21.215  0.00  0.00    +0.000 A 
ATOM     16  C   UNL     1      -5.410  12.838  21.953  0.00  0.00    +0.000 A 
ATOM     17  N   UNL     1      -4.216  13.150  21.400  0.00  0.00    +0.000 NA
ATOM     18  C   UNL     1      -3.428  13.864  22.217  0.00  0.00    +0.000 A 
ENDROOT
BRANCH   1  21
ATOM     19  C   UNL     1      -1.450  12.200  19.619  0.00  0.00    +0.000 C 
ATOM     20  O   UNL     1      -0.642  11.608  20.338  0.00  0.00    +0.000 OA
ATOM     21  N   UNL     1      -1.852  13.518  19.804  0.00  0.00    +0.000 N 
ATOM     22  H   UNL     1      -2.587  13.921  19.217  0.00  0.00    +0.000 HD
BRANCH  19  28
ATOM     23  C   UNL     1      -1.432  10.466  17.694  0.00  0.00    +0.000 A 
ATOM     24  C   UNL     1      -2.145   9.879  16.628  0.00  0.00    +0.000 A 
ATOM     25  C   UNL     1      -3.483  10.190  16.379  0.00  0.00    +0.000 A 
ATOM     26  C   UNL     1      -4.126  11.130  17.170  0.00  0.00    +0.000 A 
ATOM     27  C   UNL     1      -3.428  11.758  18.206  0.00  0.00    +0.000 A 
ATOM     28  C   UNL     1      -2.074  11.454  18.472  0.00  0.00    +0.000 A 
BRANCH  23  29
ATOM     29  N   UNL     1      -0.068  10.137  17.808  0.00  0.00    +0.000 N 
ATOM     30  H   UNL     1       0.086   9.225  18.235  0.00  0.00    +0.000 HD
ATOM     31  H   UNL     1       0.478  10.852  18.288  0.00  0.00    +0.000 HD
ENDBRANCH  23  29
ENDBRANCH  19  28
ENDBRANCH   1  21
TORSDOF 3
ENDMDL
MODEL 9
REMARK VINA RESULT:      -7.2      1.634      6.494
REMARK  Name = 
REMARK  3 active torsions:
REMARK  status: ('A' for Active; 'I' for Inactive)
REMARK    1  A    between atoms: N_1  and  C_2
REMARK    2  A    between atoms: C_7  and  C_8
REMARK    3  A    between atoms: N_10  and  N_11
REMARK                            x       y       z     vdW  Elec       q    Type
REMARK                         _______ _______ _______ _____ _____    ______ ____
ROOT
ATOM      1  N   UNL     1       2.920   8.287  17.307  0.00  0.00    +0.000 NA
ATOM      2  C   UNL     1       2.408   7.962  18.454  0.00  0.00    +0.000 C 
ATOM      3  C   UNL     1       1.625   8.895  19.316  0.00  0.00    +0.000 A 
ATOM      4  C   UNL     1       1.289  10.224  19.132  0.00  0.00    +0.000 A 
ATOM      5  C   UNL     1       0.546  10.849  20.138  0.00  0.00    +0.000 A 
ATOM      6  C   UNL     1       0.152  10.146  21.297  0.00  0.00    +0.000 A 
ATOM      7  C   UNL     1       0.498   8.802  21.468  0.00  0.00    +0.000 A 
ATOM      8  C   UNL     1       1.237   8.187  20.470  0.00  0.00    +0.000 A 
ATOM      9  C   UNL     1       1.735   6.845  20.369  0.00  0.00    +0.000 A 
ATOM     10  N   UNL     1       1.568   5.861  21.263  0.00  0.00    +0.000 NA
ATOM     11  C   UNL     1       2.143   4.690  20.911  0.00  0.00    +0.000 A 
ATOM     12  C   UNL     1       2.029   3.606  21.767  0.00  0.00    +0.000 A 
ATOM     13  C   UNL     1       2.602   2.372  21.459  0.00  0.00    +0.000 A 
ATOM     14  C   UNL     1       3.300   2.215  20.268  0.00  0.00    +0.000 A 
ATOM     15  C   UNL     1       3.426   3.293  19.388  0.00  0.00    +0.000 A 
ATOM     16  C   UNL     1       2.867   4.531  19.674  0.00  0.00    +0.000 A 
ATOM     17  N   UNL     1       3.020   5.540  18.789  0.00  0.00    +0.000 NA
ATOM     18  C   UNL     1       2.437   6.681  19.186  0.00  0.00    +0.000 A 
ENDROOT
BRANCH   1  21
ATOM     19  C   UNL     1       4.995   7.153  16.910  0.00  0.00    +0.000 C 
ATOM     20  O   UNL     1       5.627   7.805  17.744  0.00  0.00    +0.000 OA
ATOM     21  N   UNL     1       3.645   7.332  16.628  0.00  0.00    +0.000 N 
ATOM     22  H   UNL     1       3.165   6.702  15.981  0.00  0.00    +0.000 HD
BRANCH  19  28
ATOM     23  C   UNL     1       6.908   5.442  16.557  0.00  0.00    +0.000 A 
ATOM     24  C   UNL     1       7.472   4.459  15.718  0.00  0.00    +0.000 A 
ATOM     25  C   UNL     1       6.836   4.037  14.550  0.00  0.00    +0.000 A 
ATOM     26  C   UNL     1       5.636   4.623  14.174  0.00  0.00    +0.000 A 
ATOM     27  C   UNL     1       5.078   5.630  14.967  0.00  0.00    +0.000 A 
ATOM     28  C   UNL     1       5.709   6.068  16.152  0.00  0.00    +0.000 A 
BRANCH  23  29
ATOM     29  N   UNL     1       7.669   5.846  17.670  0.00  0.00    +0.000 N 
ATOM     30  H   UNL     1       7.097   6.184  18.442  0.00  0.00    +0.000 HD
ATOM     31  H   UNL     1       8.391   6.527  17.436  0.00  0.00    +0.000 HD
ENDBRANCH  23  29
ENDBRANCH  19  28
ENDBRANCH   1  21
TORSDOF 3
ENDMDL
