MODEL 1
REMARK VINA RESULT:      -6.0      0.000      0.000
REMARK  Name = 
REMARK  3 active torsions:
REMARK  status: ('A' for Active; 'I' for Inactive)
REMARK    1  A    between atoms: C_1  and  N_2
REMARK    2  A    between atoms: N_10  and  C_11
REMARK    3  A    between atoms: N_12  and  C_13
REMARK                            x       y       z     vdW  Elec       q    Type
REMARK                         _______ _______ _______ _____ _____    ______ ____
ROOT
ATOM      1  C   UNL     1       1.592   5.167  20.755  0.00  0.00    +0.000 C 
ATOM      2  N   UNL     1       2.449   4.695  19.684  0.00  0.00    +0.000 N 
ATOM      3  C   UNL     1       3.063   5.641  18.856  0.00  0.00    +0.000 A 
ATOM      4  O   UNL     1       2.928   6.855  18.969  0.00  0.00    +0.000 OA
ATOM      5  C   UNL     1       3.876   5.047  17.847  0.00  0.00    +0.000 A 
ATOM      6  C   UNL     1       4.030   3.701  17.715  0.00  0.00    +0.000 A 
ATOM      7  N   UNL     1       4.853   3.383  16.683  0.00  0.00    +0.000 NA
ATOM      8  C   UNL     1       5.214   4.542  16.169  0.00  0.00    +0.000 A 
ATOM      9 BR   UNL     1       6.368   4.646  14.694  0.00  0.00    +0.000 Br
ATOM     10  N   UNL     1       4.642   5.592  16.849  0.00  0.00    +0.000 N 
ATOM     11  C   UNL     1       4.800   7.001  16.584  0.00  0.00    +0.000 C 
ATOM     12  N   UNL     1       3.402   2.815  18.553  0.00  0.00    +0.000 N 
ATOM     13  C   UNL     1       3.564   1.382  18.410  0.00  0.00    +0.000 C 
ATOM     14  C   UNL     1       2.583   3.298  19.573  0.00  0.00    +0.000 A 
ATOM     15  O   UNL     1       2.000   2.533  20.348  0.00  0.00    +0.000 OA
ENDROOT
TORSDOF 0
ENDMDL
MODEL 2
REMARK VINA RESULT:      -5.6      2.898      5.007
REMARK  Name = 
REMARK  3 active torsions:
REMARK  status: ('A' for Active; 'I' for Inactive)
REMARK    1  A    between atoms: C_1  and  N_2
REMARK    2  A    between atoms: N_10  and  C_11
REMARK    3  A    between atoms: N_12  and  C_13
REMARK                            x       y       z     vdW  Elec       q    Type
REMARK                         _______ _______ _______ _____ _____    ______ ____
ROOT
ATOM      1  C   UNL     1       4.932   6.666  16.143  0.00  0.00    +0.000 C 
ATOM      2  N   UNL     1       4.162   6.230  17.293  0.00  0.00    +0.000 N 
ATOM      3  C   UNL     1       4.219   4.882  17.662  0.00  0.00    +0.000 A 
ATOM      4  O   UNL     1       4.879   4.029  17.076  0.00  0.00    +0.000 OA
ATOM      5  C   UNL     1       3.421   4.588  18.805  0.00  0.00    +0.000 A 
ATOM      6  C   UNL     1       2.686   5.529  19.460  0.00  0.00    +0.000 A 
ATOM      7  N   UNL     1       2.013   5.004  20.516  0.00  0.00    +0.000 NA
ATOM      8  C   UNL     1       2.333   3.726  20.519  0.00  0.00    +0.000 A 
ATOM      9 BR   UNL     1       1.650   2.544  21.805  0.00  0.00    +0.000 Br
ATOM     10  N   UNL     1       3.195   3.421  19.489  0.00  0.00    +0.000 N 
ATOM     11  C   UNL     1       3.763   2.135  19.170  0.00  0.00    +0.000 C 
ATOM     12  N   UNL     1       2.663   6.840  19.054  0.00  0.00    +0.000 N 
ATOM     13  C   UNL     1       1.878   7.840  19.749  0.00  0.00    +0.000 C 
ATOM     14  C   UNL     1       3.411   7.228  17.944  0.00  0.00    +0.000 A 
ATOM     15  O   UNL     1       3.417   8.398  17.547  0.00  0.00    +0.000 OA
ENDROOT
TORSDOF 0
ENDMDL
MODEL 3
REMARK VINA RESULT:      -5.5      2.031      2.133
REMARK  Name = 
REMARK  3 active torsions:
REMARK  status: ('A' for Active; 'I' for Inactive)
REMARK    1  A    between atoms: C_1  and  N_2
REMARK    2  A    between atoms: N_10  and  C_11
REMARK    3  A    between atoms: N_12  and  C_13
REMARK                            x       y       z     vdW  Elec       q    Type
REMARK                         _______ _______ _______ _____ _____    ______ ____
ROOT
ATOM      1  C   UNL     1       0.580   3.217  18.690  0.00  0.00    +0.000 C 
ATOM      2  N   UNL     1       1.996   3.482  18.849  0.00  0.00    +0.000 N 
ATOM      3  C   UNL     1       2.527   4.643  18.274  0.00  0.00    +0.000 A 
ATOM      4  O   UNL     1       1.874   5.461  17.635  0.00  0.00    +0.000 OA
ATOM      5  C   UNL     1       3.926   4.784  18.505  0.00  0.00    +0.000 A 
ATOM      6  C   UNL     1       4.657   3.880  19.213  0.00  0.00    +0.000 A 
ATOM      7  N   UNL     1       5.964   4.237  19.297  0.00  0.00    +0.000 NA
ATOM      8  C   UNL     1       6.046   5.374  18.635  0.00  0.00    +0.000 A 
ATOM      9 BR   UNL     1       7.673   6.291  18.455  0.00  0.00    +0.000 Br
ATOM     10  N   UNL     1       4.822   5.752  18.131  0.00  0.00    +0.000 N 
ATOM     11  C   UNL     1       4.516   6.930  17.359  0.00  0.00    +0.000 C 
ATOM     12  N   UNL     1       4.088   2.755  19.755  0.00  0.00    +0.000 N 
ATOM     13  C   UNL     1       4.867   1.791  20.506  0.00  0.00    +0.000 C 
ATOM     14  C   UNL     1       2.723   2.526  19.583  0.00  0.00    +0.000 A 
ATOM     15  O   UNL     1       2.174   1.525  20.055  0.00  0.00    +0.000 OA
ENDROOT
TORSDOF 0
ENDMDL
MODEL 4
REMARK VINA RESULT:      -5.5      3.017      4.154
REMARK  Name = 
REMARK  3 active torsions:
REMARK  status: ('A' for Active; 'I' for Inactive)
REMARK    1  A    between atoms: C_1  and  N_2
REMARK    2  A    between atoms: N_10  and  C_11
REMARK    3  A    between atoms: N_12  and  C_13
REMARK                            x       y       z     vdW  Elec       q    Type
REMARK                         _______ _______ _______ _____ _____    ______ ____
ROOT
ATOM      1  C   UNL     1       4.888   3.623  16.927  0.00  0.00    +0.000 C 
ATOM      2  N   UNL     1       4.075   4.274  17.937  0.00  0.00    +0.000 N 
ATOM      3  C   UNL     1       3.754   5.625  17.766  0.00  0.00    +0.000 A 
ATOM      4  O   UNL     1       4.116   6.310  16.815  0.00  0.00    +0.000 OA
ATOM      5  C   UNL     1       2.952   6.140  18.825  0.00  0.00    +0.000 A 
ATOM      6  C   UNL     1       2.546   5.387  19.884  0.00  0.00    +0.000 A 
ATOM      7  N   UNL     1       1.791   6.102  20.757  0.00  0.00    +0.000 NA
ATOM      8  C   UNL     1       1.726   7.311  20.236  0.00  0.00    +0.000 A 
ATOM      9 BR   UNL     1       0.781   8.694  21.078  0.00  0.00    +0.000 Br
ATOM     10  N   UNL     1       2.421   7.385  19.050  0.00  0.00    +0.000 N 
ATOM     11  C   UNL     1       2.577   8.533  18.193  0.00  0.00    +0.000 C 
ATOM     12  N   UNL     1       2.891   4.064  20.005  0.00  0.00    +0.000 N 
ATOM     13  C   UNL     1       2.463   3.263  21.134  0.00  0.00    +0.000 C 
ATOM     14  C   UNL     1       3.676   3.467  19.020  0.00  0.00    +0.000 A 
ATOM     15  O   UNL     1       4.008   2.279  19.093  0.00  0.00    +0.000 OA
ENDROOT
TORSDOF 0
ENDMDL
MODEL 5
REMARK VINA RESULT:      -5.5      2.830      5.130
REMARK  Name = 
REMARK  3 active torsions:
REMARK  status: ('A' for Active; 'I' for Inactive)
REMARK    1  A    between atoms: C_1  and  N_2
REMARK    2  A    between atoms: N_10  and  C_11
REMARK    3  A    between atoms: N_12  and  C_13
REMARK                            x       y       z     vdW  Elec       q    Type
REMARK                         _______ _______ _______ _____ _____    ______ ____
ROOT
ATOM      1  C   UNL     1       6.449   5.007  15.017  0.00  0.00    +0.000 C 
ATOM      2  N   UNL     1       5.411   5.039  16.029  0.00  0.00    +0.000 N 
ATOM      3  C   UNL     1       4.979   3.827  16.581  0.00  0.00    +0.000 A 
ATOM      4  O   UNL     1       5.419   2.726  16.267  0.00  0.00    +0.000 OA
ATOM      5  C   UNL     1       3.959   3.999  17.561  0.00  0.00    +0.000 A 
ATOM      6  C   UNL     1       3.466   5.218  17.914  0.00  0.00    +0.000 A 
ATOM      7  N   UNL     1       2.504   5.121  18.868  0.00  0.00    +0.000 NA
ATOM      8  C   UNL     1       2.399   3.829  19.110  0.00  0.00    +0.000 A 
ATOM      9 BR   UNL     1       1.184   3.163  20.373  0.00  0.00    +0.000 Br
ATOM     10  N   UNL     1       3.271   3.100  18.335  0.00  0.00    +0.000 N 
ATOM     11  C   UNL     1       3.447   1.669  18.319  0.00  0.00    +0.000 C 
ATOM     12  N   UNL     1       3.922   6.378  17.339  0.00  0.00    +0.000 N 
ATOM     13  C   UNL     1       3.395   7.675  17.712  0.00  0.00    +0.000 C 
ATOM     14  C   UNL     1       4.920   6.315  16.367  0.00  0.00    +0.000 A 
ATOM     15  O   UNL     1       5.357   7.335  15.826  0.00  0.00    +0.000 OA
ENDROOT
TORSDOF 0
ENDMDL
MODEL 6
REMARK VINA RESULT:      -5.5      2.913      4.602
REMARK  Name = 
REMARK  3 active torsions:
REMARK  status: ('A' for Active; 'I' for Inactive)
REMARK    1  A    between atoms: C_1  and  N_2
REMARK    2  A    between atoms: N_10  and  C_11
REMARK    3  A    between atoms: N_12  and  C_13
REMARK                            x       y       z     vdW  Elec       q    Type
REMARK                         _______ _______ _______ _____ _____    ______ ____
ROOT
ATOM      1  C   UNL     1       7.923   6.555  18.098  0.00  0.00    +0.000 C 
ATOM      2  N   UNL     1       6.772   5.741  17.757  0.00  0.00    +0.000 N 
ATOM      3  C   UNL     1       5.923   5.322  18.787  0.00  0.00    +0.000 A 
ATOM      4  O   UNL     1       6.083   5.594  19.973  0.00  0.00    +0.000 OA
ATOM      5  C   UNL     1       4.833   4.532  18.318  0.00  0.00    +0.000 A 
ATOM      6  C   UNL     1       4.650   4.226  17.004  0.00  0.00    +0.000 A 
ATOM      7  N   UNL     1       3.542   3.465  16.809  0.00  0.00    +0.000 NA
ATOM      8  C   UNL     1       3.032   3.297  18.013  0.00  0.00    +0.000 A 
ATOM      9 BR   UNL     1       1.468   2.299  18.288  0.00  0.00    +0.000 Br
ATOM     10  N   UNL     1       3.788   3.933  18.972  0.00  0.00    +0.000 N 
ATOM     11  C   UNL     1       3.548   3.977  20.393  0.00  0.00    +0.000 C 
ATOM     12  N   UNL     1       5.515   4.661  16.032  0.00  0.00    +0.000 N 
ATOM     13  C   UNL     1       5.321   4.332  14.634  0.00  0.00    +0.000 C 
ATOM     14  C   UNL     1       6.614   5.440  16.391  0.00  0.00    +0.000 A 
ATOM     15  O   UNL     1       7.417   5.850  15.546  0.00  0.00    +0.000 OA
ENDROOT
TORSDOF 0
ENDMDL
MODEL 7
REMARK VINA RESULT:      -5.4      1.054      1.054
REMARK  Name = 
REMARK  3 active torsions:
REMARK  status: ('A' for Active; 'I' for Inactive)
REMARK    1  A    between atoms: C_1  and  N_2
REMARK    2  A    between atoms: N_10  and  C_11
REMARK    3  A    between atoms: N_12  and  C_13
REMARK                            x       y       z     vdW  Elec       q    Type
REMARK                         _______ _______ _______ _____ _____    ______ ____
ROOT
ATOM      1  C   UNL     1       1.501   6.116  20.868  0.00  0.00    +0.000 C 
ATOM      2  N   UNL     1       2.520   5.511  20.032  0.00  0.00    +0.000 N 
ATOM      3  C   UNL     1       3.038   6.256  18.967  0.00  0.00    +0.000 A 
ATOM      4  O   UNL     1       2.688   7.397  18.682  0.00  0.00    +0.000 OA
ATOM      5  C   UNL     1       4.030   5.548  18.228  0.00  0.00    +0.000 A 
ATOM      6  C   UNL     1       4.423   4.282  18.537  0.00  0.00    +0.000 A 
ATOM      7  N   UNL     1       5.380   3.826  17.689  0.00  0.00    +0.000 NA
ATOM      8  C   UNL     1       5.584   4.818  16.845  0.00  0.00    +0.000 A 
ATOM      9 BR   UNL     1       6.835   4.683  15.454  0.00  0.00    +0.000 Br
ATOM     10  N   UNL     1       4.780   5.897  17.135  0.00  0.00    +0.000 N 
ATOM     11  C   UNL     1       4.720   7.159  16.440  0.00  0.00    +0.000 C 
ATOM     12  N   UNL     1       3.881   3.593  19.593  0.00  0.00    +0.000 N 
ATOM     13  C   UNL     1       4.297   2.244  19.920  0.00  0.00    +0.000 C 
ATOM     14  C   UNL     1       2.901   4.200  20.377  0.00  0.00    +0.000 A 
ATOM     15  O   UNL     1       2.388   3.614  21.335  0.00  0.00    +0.000 OA
ENDROOT
TORSDOF 0
ENDMDL
MODEL 8
REMARK VINA RESULT:      -5.4      2.964      4.254
REMARK  Name = 
REMARK  3 active torsions:
REMARK  status: ('A' for Active; 'I' for Inactive)
REMARK    1  A    between atoms: C_1  and  N_2
REMARK    2  A    between atoms: N_10  and  C_11
REMARK    3  A    between atoms: N_12  and  C_13
REMARK                            x       y       z     vdW  Elec       q    Type
REMARK                         _______ _______ _______ _____ _____    ______ ____
ROOT
ATOM      1  C   UNL     1       4.006   2.896  19.914  0.00  0.00    +0.000 C 
ATOM      2  N   UNL     1       3.757   4.200  19.331  0.00  0.00    +0.000 N 
ATOM      3  C   UNL     1       2.918   5.088  20.013  0.00  0.00    +0.000 A 
ATOM      4  O   UNL     1       2.367   4.840  21.081  0.00  0.00    +0.000 OA
ATOM      5  C   UNL     1       2.758   6.330  19.334  0.00  0.00    +0.000 A 
ATOM      6  C   UNL     1       3.366   6.612  18.148  0.00  0.00    +0.000 A 
ATOM      7  N   UNL     1       3.061   7.859  17.705  0.00  0.00    +0.000 NA
ATOM      8  C   UNL     1       2.257   8.357  18.623  0.00  0.00    +0.000 A 
ATOM      9 BR   UNL     1       1.544  10.085  18.473  0.00  0.00    +0.000 Br
ATOM     10  N   UNL     1       2.042   7.458  19.643  0.00  0.00    +0.000 N 
ATOM     11  C   UNL     1       1.227   7.641  20.819  0.00  0.00    +0.000 C 
ATOM     12  N   UNL     1       4.179   5.704  17.518  0.00  0.00    +0.000 N 
ATOM     13  C   UNL     1       4.823   6.003  16.255  0.00  0.00    +0.000 C 
ATOM     14  C   UNL     1       4.397   4.457  18.103  0.00  0.00    +0.000 A 
ATOM     15  O   UNL     1       5.122   3.613  17.567  0.00  0.00    +0.000 OA
ENDROOT
TORSDOF 0
ENDMDL
MODEL 9
REMARK VINA RESULT:      -5.3      1.827      3.085
REMARK  Name = 
REMARK  3 active torsions:
REMARK  status: ('A' for Active; 'I' for Inactive)
REMARK    1  A    between atoms: C_1  and  N_2
REMARK    2  A    between atoms: N_10  and  C_11
REMARK    3  A    between atoms: N_12  and  C_13
REMARK                            x       y       z     vdW  Elec       q    Type
REMARK                         _______ _______ _______ _____ _____    ______ ____
ROOT
ATOM      1  C   UNL     1       0.931   2.096  18.889  0.00  0.00    +0.000 C 
ATOM      2  N   UNL     1       1.850   3.215  18.804  0.00  0.00    +0.000 N 
ATOM      3  C   UNL     1       2.947   3.113  17.941  0.00  0.00    +0.000 A 
ATOM      4  O   UNL     1       3.194   2.134  17.244  0.00  0.00    +0.000 OA
ATOM      5  C   UNL     1       3.768   4.278  17.951  0.00  0.00    +0.000 A 
ATOM      6  C   UNL     1       3.501   5.368  18.722  0.00  0.00    +0.000 A 
ATOM      7  N   UNL     1       4.427   6.347  18.555  0.00  0.00    +0.000 NA
ATOM      8  C   UNL     1       5.276   5.862  17.671  0.00  0.00    +0.000 A 
ATOM      9 BR   UNL     1       6.763   6.848  17.094  0.00  0.00    +0.000 Br
ATOM     10  N   UNL     1       4.915   4.596  17.270  0.00  0.00    +0.000 N 
ATOM     11  C   UNL     1       5.592   3.749  16.320  0.00  0.00    +0.000 C 
ATOM     12  N   UNL     1       2.412   5.416  19.555  0.00  0.00    +0.000 N 
ATOM     13  C   UNL     1       2.130   6.574  20.378  0.00  0.00    +0.000 C 
ATOM     14  C   UNL     1       1.547   4.324  19.617  0.00  0.00    +0.000 A 
ATOM     15  O   UNL     1       0.556   4.328  20.354  0.00  0.00    +0.000 OA
ENDROOT
TORSDOF 0
ENDMDL
