MODEL 1
REMARK VINA RESULT:      -7.5      0.000      0.000
REMARK  Name = 
REMARK  13 active torsions:
REMARK  status: ('A' for Active; 'I' for Inactive)
REMARK    1  A    between atoms: C_1  and  C_2
REMARK    2  A    between atoms: C_5  and  C_6
REMARK    3  A    between atoms: C_6  and  O_8
REMARK    4  A    between atoms: O_8  and  C_9
REMARK    5  A    between atoms: C_9  and  C_10
REMARK    6  A    between atoms: N_12  and  C_13
REMARK    7  A    between atoms: C_13  and  C_14
REMARK    8  A    between atoms: C_14  and  N_15
REMARK    9  A    between atoms: C_16  and  C_18
REMARK   10  A    between atoms: C_18  and  O_19
REMARK   11  A    between atoms: O_19  and  C_20
REMARK   12  A    between atoms: C_20  and  C_22
REMARK   13  A    between atoms: C_25  and  C_26
REMARK                            x       y       z     vdW  Elec       q    Type
REMARK                         _______ _______ _______ _____ _____    ______ ____
ROOT
ATOM      1  C   UNL     1       3.299   1.656  18.664  0.00  0.00    +0.000 C 
ENDROOT
BRANCH   1   4
ATOM      2  C   UNL     1       4.401   3.727  17.866  0.00  0.00    +0.000 C 
ATOM      3  O   UNL     1       4.466   4.209  18.994  0.00  0.00    +0.000 OA
ATOM      4  N   UNL     1       3.850   2.490  17.609  0.00  0.00    +0.000 N 
ATOM      5  H   UNL     1       3.712   2.210  16.644  0.00  0.00    +0.000 HD
BRANCH   2   6
ATOM      6  C   UNL     1       4.868   4.490  16.627  0.00  0.00    +0.000 C 
BRANCH   6   7
ATOM      7  O   UNL     1       6.065   3.981  16.042  0.00  0.00    +0.000 OA
BRANCH   7   8
ATOM      8  C   UNL     1       6.955   4.936  15.639  0.00  0.00    +0.000 C 
ATOM      9  O   UNL     1       7.360   5.063  14.489  0.00  0.00    +0.000 OA
BRANCH   8  14
ATOM     10  C   UNL     1       7.987   9.118  17.858  0.00  0.00    +0.000 C 
ATOM     11  C   UNL     1       7.818   7.651  17.798  0.00  0.00    +0.000 A 
ATOM     12  C   UNL     1       7.964   6.647  18.729  0.00  0.00    +0.000 A 
ATOM     13  C   UNL     1       7.653   5.440  18.058  0.00  0.00    +0.000 A 
ATOM     14  C   UNL     1       7.337   5.772  16.753  0.00  0.00    +0.000 A 
ATOM     15  O   UNL     1       7.439   7.131  16.598  0.00  0.00    +0.000 OA
ENDBRANCH   8  14
ENDBRANCH   7   8
ENDBRANCH   6   7
ENDBRANCH   2   6
ENDBRANCH   1   4
BRANCH   1  16
ATOM     16  C   UNL     1       1.781   1.830  18.845  0.00  0.00    +0.000 C 
BRANCH  16  17
ATOM     17  N   UNL     1       1.378   3.194  19.142  0.00  0.00    +0.000 N 
ATOM     18  C   UNL     1       1.477   3.729  20.407  0.00  0.00    +0.000 C 
ATOM     19  O   UNL     1       1.780   3.064  21.394  0.00  0.00    +0.000 OA
ATOM     20  H   UNL     1       1.181   3.820  18.367  0.00  0.00    +0.000 HD
BRANCH  18  21
ATOM     21  C   UNL     1       1.073   5.200  20.510  0.00  0.00    +0.000 C 
BRANCH  21  22
ATOM     22  O   UNL     1       2.167   6.111  20.633  0.00  0.00    +0.000 OA
BRANCH  22  23
ATOM     23  C   UNL     1       2.157   7.147  19.743  0.00  0.00    +0.000 C 
ATOM     24  O   UNL     1       2.715   7.126  18.653  0.00  0.00    +0.000 OA
BRANCH  23  25
ATOM     25  C   UNL     1       1.425   8.275  20.278  0.00  0.00    +0.000 A 
ATOM     26  C   UNL     1       1.064   9.470  19.685  0.00  0.00    +0.000 A 
ATOM     27  C   UNL     1       0.379  10.231  20.660  0.00  0.00    +0.000 A 
ATOM     28  C   UNL     1       0.335   9.450  21.794  0.00  0.00    +0.000 A 
ATOM     29  C   UNL     1      -0.254   9.649  23.134  0.00  0.00    +0.000 C 
ATOM     30  O   UNL     1       0.973   8.264  21.575  0.00  0.00    +0.000 OA
ENDBRANCH  23  25
ENDBRANCH  22  23
ENDBRANCH  21  22
ENDBRANCH  18  21
ENDBRANCH  16  17
ENDBRANCH   1  16
TORSDOF 11
ENDMDL
MODEL 2
REMARK VINA RESULT:      -7.1      2.917      5.546
REMARK  Name = 
REMARK  13 active torsions:
REMARK  status: ('A' for Active; 'I' for Inactive)
REMARK    1  A    between atoms: C_1  and  C_2
REMARK    2  A    between atoms: C_5  and  C_6
REMARK    3  A    between atoms: C_6  and  O_8
REMARK    4  A    between atoms: O_8  and  C_9
REMARK    5  A    between atoms: C_9  and  C_10
REMARK    6  A    between atoms: N_12  and  C_13
REMARK    7  A    between atoms: C_13  and  C_14
REMARK    8  A    between atoms: C_14  and  N_15
REMARK    9  A    between atoms: C_16  and  C_18
REMARK   10  A    between atoms: C_18  and  O_19
REMARK   11  A    between atoms: O_19  and  C_20
REMARK   12  A    between atoms: C_20  and  C_22
REMARK   13  A    between atoms: C_25  and  C_26
REMARK                            x       y       z     vdW  Elec       q    Type
REMARK                         _______ _______ _______ _____ _____    ______ ____
ROOT
ATOM      1  C   UNL     1       7.537   6.826  17.940  0.00  0.00    +0.000 C 
ENDROOT
BRANCH   1   4
ATOM      2  C   UNL     1       5.562   6.578  16.464  0.00  0.00    +0.000 C 
ATOM      3  O   UNL     1       4.817   7.159  17.249  0.00  0.00    +0.000 OA
ATOM      4  N   UNL     1       6.901   6.369  16.716  0.00  0.00    +0.000 N 
ATOM      5  H   UNL     1       7.427   5.772  16.087  0.00  0.00    +0.000 HD
BRANCH   2   6
ATOM      6  C   UNL     1       5.053   5.968  15.158  0.00  0.00    +0.000 C 
BRANCH   6   7
ATOM      7  O   UNL     1       5.528   4.647  14.905  0.00  0.00    +0.000 OA
BRANCH   7   8
ATOM      8  C   UNL     1       6.436   4.552  13.889  0.00  0.00    +0.000 C 
ATOM      9  O   UNL     1       7.525   5.114  13.880  0.00  0.00    +0.000 OA
BRANCH   8  14
ATOM     10  C   UNL     1       3.228   3.049  10.584  0.00  0.00    +0.000 C 
ATOM     11  C   UNL     1       4.501   2.975  11.330  0.00  0.00    +0.000 A 
ATOM     12  C   UNL     1       5.573   2.112  11.284  0.00  0.00    +0.000 A 
ATOM     13  C   UNL     1       6.494   2.574  12.253  0.00  0.00    +0.000 A 
ATOM     14  C   UNL     1       5.934   3.694  12.842  0.00  0.00    +0.000 A 
ATOM     15  O   UNL     1       4.710   3.937  12.271  0.00  0.00    +0.000 OA
ENDBRANCH   8  14
ENDBRANCH   7   8
ENDBRANCH   6   7
ENDBRANCH   2   6
ENDBRANCH   1   4
BRANCH   1  16
ATOM     16  C   UNL     1       7.799   5.694  18.947  0.00  0.00    +0.000 C 
BRANCH  16  17
ATOM     17  N   UNL     1       6.957   4.526  18.749  0.00  0.00    +0.000 N 
ATOM     18  C   UNL     1       5.651   4.482  19.183  0.00  0.00    +0.000 C 
ATOM     19  O   UNL     1       5.146   5.359  19.880  0.00  0.00    +0.000 OA
ATOM     20  H   UNL     1       7.283   3.793  18.127  0.00  0.00    +0.000 HD
BRANCH  18  21
ATOM     21  C   UNL     1       4.902   3.199  18.821  0.00  0.00    +0.000 C 
BRANCH  21  22
ATOM     22  O   UNL     1       4.102   3.289  17.640  0.00  0.00    +0.000 OA
BRANCH  22  23
ATOM     23  C   UNL     1       2.802   2.901  17.794  0.00  0.00    +0.000 C 
ATOM     24  O   UNL     1       2.191   2.202  16.994  0.00  0.00    +0.000 OA
BRANCH  23  25
ATOM     25  C   UNL     1       2.243   3.451  19.010  0.00  0.00    +0.000 A 
ATOM     26  C   UNL     1       1.745   2.817  20.133  0.00  0.00    +0.000 A 
ATOM     27  C   UNL     1       1.302   3.825  21.020  0.00  0.00    +0.000 A 
ATOM     28  C   UNL     1       1.574   5.026  20.403  0.00  0.00    +0.000 A 
ATOM     29  C   UNL     1       1.383   6.434  20.807  0.00  0.00    +0.000 C 
ATOM     30  O   UNL     1       2.139   4.810  19.180  0.00  0.00    +0.000 OA
ENDBRANCH  23  25
ENDBRANCH  22  23
ENDBRANCH  21  22
ENDBRANCH  18  21
ENDBRANCH  16  17
ENDBRANCH   1  16
TORSDOF 11
ENDMDL
MODEL 3
REMARK VINA RESULT:      -6.7      1.943      3.346
REMARK  Name = 
REMARK  13 active torsions:
REMARK  status: ('A' for Active; 'I' for Inactive)
REMARK    1  A    between atoms: C_1  and  C_2
REMARK    2  A    between atoms: C_5  and  C_6
REMARK    3  A    between atoms: C_6  and  O_8
REMARK    4  A    between atoms: O_8  and  C_9
REMARK    5  A    between atoms: C_9  and  C_10
REMARK    6  A    between atoms: N_12  and  C_13
REMARK    7  A    between atoms: C_13  and  C_14
REMARK    8  A    between atoms: C_14  and  N_15
REMARK    9  A    between atoms: C_16  and  C_18
REMARK   10  A    between atoms: C_18  and  O_19
REMARK   11  A    between atoms: O_19  and  C_20
REMARK   12  A    between atoms: C_20  and  C_22
REMARK   13  A    between atoms: C_25  and  C_26
REMARK                            x       y       z     vdW  Elec       q    Type
REMARK                         _______ _______ _______ _____ _____    ______ ____
ROOT
ATOM      1  C   UNL     1       3.998   2.640  17.850  0.00  0.00    +0.000 C 
ENDROOT
BRANCH   1   4
ATOM      2  C   UNL     1       5.723   4.385  18.204  0.00  0.00    +0.000 C 
ATOM      3  O   UNL     1       5.223   4.762  19.261  0.00  0.00    +0.000 OA
ATOM      4  N   UNL     1       5.196   3.359  17.448  0.00  0.00    +0.000 N 
ATOM      5  H   UNL     1       5.583   3.186  16.526  0.00  0.00    +0.000 HD
BRANCH   2   6
ATOM      6  C   UNL     1       6.945   5.069  17.591  0.00  0.00    +0.000 C 
BRANCH   6   7
ATOM      7  O   UNL     1       7.167   4.751  16.218  0.00  0.00    +0.000 OA
BRANCH   7   8
ATOM      8  C   UNL     1       6.284   5.325  15.350  0.00  0.00    +0.000 C 
ATOM      9  O   UNL     1       5.553   6.269  15.629  0.00  0.00    +0.000 OA
BRANCH   8  14
ATOM     10  C   UNL     1       4.474   2.976  11.517  0.00  0.00    +0.000 C 
ATOM     11  C   UNL     1       5.559   3.597  12.305  0.00  0.00    +0.000 A 
ATOM     12  C   UNL     1       6.911   3.748  12.093  0.00  0.00    +0.000 A 
ATOM     13  C   UNL     1       7.413   4.438  13.222  0.00  0.00    +0.000 A 
ATOM     14  C   UNL     1       6.341   4.670  14.064  0.00  0.00    +0.000 A 
ATOM     15  O   UNL     1       5.204   4.152  13.497  0.00  0.00    +0.000 OA
ENDBRANCH   8  14
ENDBRANCH   7   8
ENDBRANCH   6   7
ENDBRANCH   2   6
ENDBRANCH   1   4
BRANCH   1  16
ATOM     16  C   UNL     1       2.700   3.309  17.369  0.00  0.00    +0.000 C 
BRANCH  16  17
ATOM     17  N   UNL     1       2.171   4.298  18.293  0.00  0.00    +0.000 N 
ATOM     18  C   UNL     1       1.562   3.944  19.476  0.00  0.00    +0.000 C 
ATOM     19  O   UNL     1       1.301   2.781  19.774  0.00  0.00    +0.000 OA
ATOM     20  H   UNL     1       2.408   5.274  18.146  0.00  0.00    +0.000 HD
BRANCH  18  21
ATOM     21  C   UNL     1       1.135   5.124  20.351  0.00  0.00    +0.000 C 
BRANCH  21  22
ATOM     22  O   UNL     1       2.175   6.061  20.637  0.00  0.00    +0.000 OA
BRANCH  22  23
ATOM     23  C   UNL     1       2.192   7.166  19.834  0.00  0.00    +0.000 C 
ATOM     24  O   UNL     1       2.763   7.224  18.752  0.00  0.00    +0.000 OA
BRANCH  23  25
ATOM     25  C   UNL     1       1.470   8.258  20.451  0.00  0.00    +0.000 A 
ATOM     26  C   UNL     1       1.190   8.507  21.781  0.00  0.00    +0.000 A 
ATOM     27  C   UNL     1       0.433   9.700  21.832  0.00  0.00    +0.000 A 
ATOM     28  C   UNL     1       0.308  10.131  20.530  0.00  0.00    +0.000 A 
ATOM     29  C   UNL     1      -0.335  11.311  19.915  0.00  0.00    +0.000 C 
ATOM     30  O   UNL     1       0.928   9.260  19.683  0.00  0.00    +0.000 OA
ENDBRANCH  23  25
ENDBRANCH  22  23
ENDBRANCH  21  22
ENDBRANCH  18  21
ENDBRANCH  16  17
ENDBRANCH   1  16
TORSDOF 11
ENDMDL
MODEL 4
REMARK VINA RESULT:      -6.7      2.932      9.533
REMARK  Name = 
REMARK  13 active torsions:
REMARK  status: ('A' for Active; 'I' for Inactive)
REMARK    1  A    between atoms: C_1  and  C_2
REMARK    2  A    between atoms: C_5  and  C_6
REMARK    3  A    between atoms: C_6  and  O_8
REMARK    4  A    between atoms: O_8  and  C_9
REMARK    5  A    between atoms: C_9  and  C_10
REMARK    6  A    between atoms: N_12  and  C_13
REMARK    7  A    between atoms: C_13  and  C_14
REMARK    8  A    between atoms: C_14  and  N_15
REMARK    9  A    between atoms: C_16  and  C_18
REMARK   10  A    between atoms: C_18  and  O_19
REMARK   11  A    between atoms: O_19  and  C_20
REMARK   12  A    between atoms: C_20  and  C_22
REMARK   13  A    between atoms: C_25  and  C_26
REMARK                            x       y       z     vdW  Elec       q    Type
REMARK                         _______ _______ _______ _____ _____    ______ ____
ROOT
ATOM      1  C   UNL     1       2.300   9.342  18.233  0.00  0.00    +0.000 C 
ENDROOT
BRANCH   1   4
ATOM      2  C   UNL     1       0.833   9.085  20.214  0.00  0.00    +0.000 C 
ATOM      3  O   UNL     1       1.609   8.313  20.773  0.00  0.00    +0.000 OA
ATOM      4  N   UNL     1       1.086   9.636  18.976  0.00  0.00    +0.000 N 
ATOM      5  H   UNL     1       0.348  10.160  18.518  0.00  0.00    +0.000 HD
BRANCH   2   6
ATOM      6  C   UNL     1      -0.523   9.453  20.815  0.00  0.00    +0.000 C 
BRANCH   6   7
ATOM      7  O   UNL     1      -0.706   9.012  22.159  0.00  0.00    +0.000 OA
BRANCH   7   8
ATOM      8  C   UNL     1      -0.305   9.904  23.112  0.00  0.00    +0.000 C 
ATOM      9  O   UNL     1       0.586   9.691  23.927  0.00  0.00    +0.000 OA
BRANCH   8  14
ATOM     10  C   UNL     1      -4.199  12.724  23.709  0.00  0.00    +0.000 C 
ATOM     11  C   UNL     1      -2.819  12.440  23.264  0.00  0.00    +0.000 A 
ATOM     12  C   UNL     1      -1.854  13.200  22.640  0.00  0.00    +0.000 A 
ATOM     13  C   UNL     1      -0.729  12.356  22.482  0.00  0.00    +0.000 A 
ATOM     14  C   UNL     1      -1.068  11.125  23.015  0.00  0.00    +0.000 A 
ATOM     15  O   UNL     1      -2.352  11.182  23.496  0.00  0.00    +0.000 OA
ENDBRANCH   8  14
ENDBRANCH   7   8
ENDBRANCH   6   7
ENDBRANCH   2   6
ENDBRANCH   1   4
BRANCH   1  16
ATOM     16  C   UNL     1       2.309   7.931  17.620  0.00  0.00    +0.000 C 
BRANCH  16  17
ATOM     17  N   UNL     1       3.230   7.014  18.271  0.00  0.00    +0.000 N 
ATOM     18  C   UNL     1       4.376   6.566  17.653  0.00  0.00    +0.000 C 
ATOM     19  O   UNL     1       4.636   6.794  16.474  0.00  0.00    +0.000 OA
ATOM     20  H   UNL     1       3.115   6.836  19.263  0.00  0.00    +0.000 HD
BRANCH  18  21
ATOM     21  C   UNL     1       5.256   5.665  18.521  0.00  0.00    +0.000 C 
BRANCH  21  22
ATOM     22  O   UNL     1       5.636   4.433  17.906  0.00  0.00    +0.000 OA
BRANCH  22  23
ATOM     23  C   UNL     1       6.876   4.432  17.334  0.00  0.00    +0.000 C 
ATOM     24  O   UNL     1       7.926   4.482  17.963  0.00  0.00    +0.000 OA
BRANCH  23  25
ATOM     25  C   UNL     1       6.775   4.393  15.891  0.00  0.00    +0.000 A 
ATOM     26  C   UNL     1       5.909   3.690  15.073  0.00  0.00    +0.000 A 
ATOM     27  C   UNL     1       6.257   3.994  13.737  0.00  0.00    +0.000 A 
ATOM     28  C   UNL     1       7.304   4.887  13.807  0.00  0.00    +0.000 A 
ATOM     29  C   UNL     1       8.093   5.599  12.781  0.00  0.00    +0.000 C 
ATOM     30  O   UNL     1       7.630   5.130  15.109  0.00  0.00    +0.000 OA
ENDBRANCH  23  25
ENDBRANCH  22  23
ENDBRANCH  21  22
ENDBRANCH  18  21
ENDBRANCH  16  17
ENDBRANCH   1  16
TORSDOF 11
ENDMDL
MODEL 5
REMARK VINA RESULT:      -6.7      2.157      8.713
REMARK  Name = 
REMARK  13 active torsions:
REMARK  status: ('A' for Active; 'I' for Inactive)
REMARK    1  A    between atoms: C_1  and  C_2
REMARK    2  A    between atoms: C_5  and  C_6
REMARK    3  A    between atoms: C_6  and  O_8
REMARK    4  A    between atoms: O_8  and  C_9
REMARK    5  A    between atoms: C_9  and  C_10
REMARK    6  A    between atoms: N_12  and  C_13
REMARK    7  A    between atoms: C_13  and  C_14
REMARK    8  A    between atoms: C_14  and  N_15
REMARK    9  A    between atoms: C_16  and  C_18
REMARK   10  A    between atoms: C_18  and  O_19
REMARK   11  A    between atoms: O_19  and  C_20
REMARK   12  A    between atoms: C_20  and  C_22
REMARK   13  A    between atoms: C_25  and  C_26
REMARK                            x       y       z     vdW  Elec       q    Type
REMARK                         _______ _______ _______ _____ _____    ______ ____
ROOT
ATOM      1  C   UNL     1       2.505   4.575  18.449  0.00  0.00    +0.000 C 
ENDROOT
BRANCH   1   4
ATOM      2  C   UNL     1       2.170   6.659  19.749  0.00  0.00    +0.000 C 
ATOM      3  O   UNL     1       2.620   7.370  18.853  0.00  0.00    +0.000 OA
ATOM      4  N   UNL     1       2.076   5.287  19.642  0.00  0.00    +0.000 N 
ATOM      5  H   UNL     1       1.818   4.752  20.464  0.00  0.00    +0.000 HD
BRANCH   2   6
ATOM      6  C   UNL     1       1.737   7.227  21.100  0.00  0.00    +0.000 C 
BRANCH   6   7
ATOM      7  O   UNL     1       0.795   8.295  21.010  0.00  0.00    +0.000 OA
BRANCH   7   8
ATOM      8  C   UNL     1       0.995   9.309  21.902  0.00  0.00    +0.000 C 
ATOM      9  O   UNL     1       1.898   9.333  22.731  0.00  0.00    +0.000 OA
BRANCH   8  14
ATOM     10  C   UNL     1      -2.613  12.240  23.268  0.00  0.00    +0.000 C 
ATOM     11  C   UNL     1      -1.640  11.691  22.301  0.00  0.00    +0.000 A 
ATOM     12  C   UNL     1      -1.369  11.964  20.979  0.00  0.00    +0.000 A 
ATOM     13  C   UNL     1      -0.311  11.100  20.607  0.00  0.00    +0.000 A 
ATOM     14  C   UNL     1       0.004  10.344  21.721  0.00  0.00    +0.000 A 
ATOM     15  O   UNL     1      -0.813  10.711  22.760  0.00  0.00    +0.000 OA
ENDBRANCH   8  14
ENDBRANCH   7   8
ENDBRANCH   6   7
ENDBRANCH   2   6
ENDBRANCH   1   4
BRANCH   1  16
ATOM     16  C   UNL     1       3.533   3.469  18.741  0.00  0.00    +0.000 C 
BRANCH  16  17
ATOM     17  N   UNL     1       4.823   3.684  18.107  0.00  0.00    +0.000 N 
ATOM     18  C   UNL     1       5.717   4.625  18.566  0.00  0.00    +0.000 C 
ATOM     19  O   UNL     1       5.443   5.436  19.447  0.00  0.00    +0.000 OA
ATOM     20  H   UNL     1       5.143   3.010  17.418  0.00  0.00    +0.000 HD
BRANCH  18  21
ATOM     21  C   UNL     1       7.049   4.657  17.815  0.00  0.00    +0.000 C 
BRANCH  21  22
ATOM     22  O   UNL     1       6.974   4.246  16.450  0.00  0.00    +0.000 OA
BRANCH  22  23
ATOM     23  C   UNL     1       6.761   5.255  15.554  0.00  0.00    +0.000 C 
ATOM     24  O   UNL     1       6.512   6.413  15.867  0.00  0.00    +0.000 OA
BRANCH  23  25
ATOM     25  C   UNL     1       6.841   4.761  14.197  0.00  0.00    +0.000 A 
ATOM     26  C   UNL     1       7.705   5.100  13.171  0.00  0.00    +0.000 A 
ATOM     27  C   UNL     1       7.332   4.334  12.042  0.00  0.00    +0.000 A 
ATOM     28  C   UNL     1       6.274   3.549  12.444  0.00  0.00    +0.000 A 
ATOM     29  C   UNL     1       5.461   2.525  11.756  0.00  0.00    +0.000 C 
ATOM     30  O   UNL     1       5.964   3.805  13.747  0.00  0.00    +0.000 OA
ENDBRANCH  23  25
ENDBRANCH  22  23
ENDBRANCH  21  22
ENDBRANCH  18  21
ENDBRANCH  16  17
ENDBRANCH   1  16
TORSDOF 11
ENDMDL
MODEL 6
REMARK VINA RESULT:      -6.7      1.605      2.387
REMARK  Name = 
REMARK  13 active torsions:
REMARK  status: ('A' for Active; 'I' for Inactive)
REMARK    1  A    between atoms: C_1  and  C_2
REMARK    2  A    between atoms: C_5  and  C_6
REMARK    3  A    between atoms: C_6  and  O_8
REMARK    4  A    between atoms: O_8  and  C_9
REMARK    5  A    between atoms: C_9  and  C_10
REMARK    6  A    between atoms: N_12  and  C_13
REMARK    7  A    between atoms: C_13  and  C_14
REMARK    8  A    between atoms: C_14  and  N_15
REMARK    9  A    between atoms: C_16  and  C_18
REMARK   10  A    between atoms: C_18  and  O_19
REMARK   11  A    between atoms: O_19  and  C_20
REMARK   12  A    between atoms: C_20  and  C_22
REMARK   13  A    between atoms: C_25  and  C_26
REMARK                            x       y       z     vdW  Elec       q    Type
REMARK                         _______ _______ _______ _____ _____    ______ ____
ROOT
ATOM      1  C   UNL     1       3.745   2.906  20.114  0.00  0.00    +0.000 C 
ENDROOT
BRANCH   1   4
ATOM      2  C   UNL     1       4.006   3.448  17.710  0.00  0.00    +0.000 C 
ATOM      3  O   UNL     1       3.308   2.503  17.351  0.00  0.00    +0.000 OA
ATOM      4  N   UNL     1       4.274   3.722  19.034  0.00  0.00    +0.000 N 
ATOM      5  H   UNL     1       4.960   4.436  19.254  0.00  0.00    +0.000 HD
BRANCH   2   6
ATOM      6  C   UNL     1       4.703   4.370  16.711  0.00  0.00    +0.000 C 
BRANCH   6   7
ATOM      7  O   UNL     1       5.831   3.785  16.062  0.00  0.00    +0.000 OA
BRANCH   7   8
ATOM      8  C   UNL     1       6.776   4.678  15.644  0.00  0.00    +0.000 C 
ATOM      9  O   UNL     1       7.190   4.759  14.493  0.00  0.00    +0.000 OA
BRANCH   8  14
ATOM     10  C   UNL     1       7.947   8.850  17.811  0.00  0.00    +0.000 C 
ATOM     11  C   UNL     1       7.748   7.387  17.764  0.00  0.00    +0.000 A 
ATOM     12  C   UNL     1       7.900   6.385  18.696  0.00  0.00    +0.000 A 
ATOM     13  C   UNL     1       7.549   5.180  18.040  0.00  0.00    +0.000 A 
ATOM     14  C   UNL     1       7.204   5.512  16.742  0.00  0.00    +0.000 A 
ATOM     15  O   UNL     1       7.327   6.869  16.577  0.00  0.00    +0.000 OA
ENDBRANCH   8  14
ENDBRANCH   7   8
ENDBRANCH   6   7
ENDBRANCH   2   6
ENDBRANCH   1   4
BRANCH   1  16
ATOM     16  C   UNL     1       2.303   3.274  20.502  0.00  0.00    +0.000 C 
BRANCH  16  17
ATOM     17  N   UNL     1       2.172   4.599  21.086  0.00  0.00    +0.000 N 
ATOM     18  C   UNL     1       1.931   5.717  20.319  0.00  0.00    +0.000 C 
ATOM     19  O   UNL     1       1.945   5.703  19.091  0.00  0.00    +0.000 OA
ATOM     20  H   UNL     1       2.084   4.677  22.094  0.00  0.00    +0.000 HD
BRANCH  18  21
ATOM     21  C   UNL     1       1.753   7.010  21.116  0.00  0.00    +0.000 C 
BRANCH  21  22
ATOM     22  O   UNL     1       1.421   8.154  20.328  0.00  0.00    +0.000 OA
BRANCH  22  23
ATOM     23  C   UNL     1       0.348   8.871  20.777  0.00  0.00    +0.000 C 
ATOM     24  O   UNL     1      -0.467   8.457  21.592  0.00  0.00    +0.000 OA
BRANCH  23  25
ATOM     25  C   UNL     1       0.295  10.168  20.137  0.00  0.00    +0.000 A 
ATOM     26  C   UNL     1      -0.759  11.050  19.988  0.00  0.00    +0.000 A 
ATOM     27  C   UNL     1      -0.273  12.162  19.262  0.00  0.00    +0.000 A 
ATOM     28  C   UNL     1       1.061  11.913  19.025  0.00  0.00    +0.000 A 
ATOM     29  C   UNL     1       2.126  12.683  18.351  0.00  0.00    +0.000 C 
ATOM     30  O   UNL     1       1.414  10.702  19.546  0.00  0.00    +0.000 OA
ENDBRANCH  23  25
ENDBRANCH  22  23
ENDBRANCH  21  22
ENDBRANCH  18  21
ENDBRANCH  16  17
ENDBRANCH   1  16
TORSDOF 11
ENDMDL
MODEL 7
REMARK VINA RESULT:      -6.6      2.045      7.936
REMARK  Name = 
REMARK  13 active torsions:
REMARK  status: ('A' for Active; 'I' for Inactive)
REMARK    1  A    between atoms: C_1  and  C_2
REMARK    2  A    between atoms: C_5  and  C_6
REMARK    3  A    between atoms: C_6  and  O_8
REMARK    4  A    between atoms: O_8  and  C_9
REMARK    5  A    between atoms: C_9  and  C_10
REMARK    6  A    between atoms: N_12  and  C_13
REMARK    7  A    between atoms: C_13  and  C_14
REMARK    8  A    between atoms: C_14  and  N_15
REMARK    9  A    between atoms: C_16  and  C_18
REMARK   10  A    between atoms: C_18  and  O_19
REMARK   11  A    between atoms: O_19  and  C_20
REMARK   12  A    between atoms: C_20  and  C_22
REMARK   13  A    between atoms: C_25  and  C_26
REMARK                            x       y       z     vdW  Elec       q    Type
REMARK                         _______ _______ _______ _____ _____    ______ ____
ROOT
ATOM      1  C   UNL     1       1.496   3.874  18.097  0.00  0.00    +0.000 C 
ENDROOT
BRANCH   1   4
ATOM      2  C   UNL     1       2.249   6.050  19.014  0.00  0.00    +0.000 C 
ATOM      3  O   UNL     1       2.313   5.621  20.163  0.00  0.00    +0.000 OA
ATOM      4  N   UNL     1       1.861   5.272  17.943  0.00  0.00    +0.000 N 
ATOM      5  H   UNL     1       1.707   5.721  17.047  0.00  0.00    +0.000 HD
BRANCH   2   6
ATOM      6  C   UNL     1       2.530   7.514  18.674  0.00  0.00    +0.000 C 
BRANCH   6   7
ATOM      7  O   UNL     1       1.359   8.314  18.523  0.00  0.00    +0.000 OA
BRANCH   7   8
ATOM      8  C   UNL     1       1.588   9.660  18.491  0.00  0.00    +0.000 C 
ATOM      9  O   UNL     1       2.208  10.235  17.602  0.00  0.00    +0.000 OA
BRANCH   8  14
ATOM     10  C   UNL     1      -0.271   9.850  22.961  0.00  0.00    +0.000 C 
ATOM     11  C   UNL     1       0.137  10.431  21.665  0.00  0.00    +0.000 A 
ATOM     12  C   UNL     1       0.085  11.705  21.145  0.00  0.00    +0.000 A 
ATOM     13  C   UNL     1       0.637  11.623  19.844  0.00  0.00    +0.000 A 
ATOM     14  C   UNL     1       0.992  10.302  19.638  0.00  0.00    +0.000 A 
ATOM     15  O   UNL     1       0.685   9.574  20.760  0.00  0.00    +0.000 OA
ENDBRANCH   8  14
ENDBRANCH   7   8
ENDBRANCH   6   7
ENDBRANCH   2   6
ENDBRANCH   1   4
BRANCH   1  16
ATOM     16  C   UNL     1       2.711   2.939  18.216  0.00  0.00    +0.000 C 
BRANCH  16  17
ATOM     17  N   UNL     1       3.907   3.443  17.562  0.00  0.00    +0.000 N 
ATOM     18  C   UNL     1       5.056   3.737  18.261  0.00  0.00    +0.000 C 
ATOM     19  O   UNL     1       5.116   3.726  19.488  0.00  0.00    +0.000 OA
ATOM     20  H   UNL     1       3.952   3.415  16.548  0.00  0.00    +0.000 HD
BRANCH  18  21
ATOM     21  C   UNL     1       6.232   4.187  17.392  0.00  0.00    +0.000 C 
BRANCH  21  22
ATOM     22  O   UNL     1       5.871   4.626  16.082  0.00  0.00    +0.000 OA
BRANCH  22  23
ATOM     23  C   UNL     1       6.877   5.221  15.375  0.00  0.00    +0.000 C 
ATOM     24  O   UNL     1       7.631   6.072  15.832  0.00  0.00    +0.000 OA
BRANCH  23  25
ATOM     25  C   UNL     1       6.908   4.729  14.015  0.00  0.00    +0.000 A 
ATOM     26  C   UNL     1       7.664   5.138  12.932  0.00  0.00    +0.000 A 
ATOM     27  C   UNL     1       7.286   4.336  11.831  0.00  0.00    +0.000 A 
ATOM     28  C   UNL     1       6.334   3.459  12.305  0.00  0.00    +0.000 A 
ATOM     29  C   UNL     1       5.572   2.362  11.675  0.00  0.00    +0.000 C 
ATOM     30  O   UNL     1       6.092   3.694  13.626  0.00  0.00    +0.000 OA
ENDBRANCH  23  25
ENDBRANCH  22  23
ENDBRANCH  21  22
ENDBRANCH  18  21
ENDBRANCH  16  17
ENDBRANCH   1  16
TORSDOF 11
ENDMDL
MODEL 8
REMARK VINA RESULT:      -6.6      1.685      7.565
REMARK  Name = 
REMARK  13 active torsions:
REMARK  status: ('A' for Active; 'I' for Inactive)
REMARK    1  A    between atoms: C_1  and  C_2
REMARK    2  A    between atoms: C_5  and  C_6
REMARK    3  A    between atoms: C_6  and  O_8
REMARK    4  A    between atoms: O_8  and  C_9
REMARK    5  A    between atoms: C_9  and  C_10
REMARK    6  A    between atoms: N_12  and  C_13
REMARK    7  A    between atoms: C_13  and  C_14
REMARK    8  A    between atoms: C_14  and  N_15
REMARK    9  A    between atoms: C_16  and  C_18
REMARK   10  A    between atoms: C_18  and  O_19
REMARK   11  A    between atoms: O_19  and  C_20
REMARK   12  A    between atoms: C_20  and  C_22
REMARK   13  A    between atoms: C_25  and  C_26
REMARK                            x       y       z     vdW  Elec       q    Type
REMARK                         _______ _______ _______ _____ _____    ______ ____
ROOT
ATOM      1  C   UNL     1       1.788   3.799  19.983  0.00  0.00    +0.000 C 
ENDROOT
BRANCH   1   4
ATOM      2  C   UNL     1       1.651   6.249  20.333  0.00  0.00    +0.000 C 
ATOM      3  O   UNL     1       2.252   6.500  19.291  0.00  0.00    +0.000 OA
ATOM      4  N   UNL     1       1.379   4.964  20.751  0.00  0.00    +0.000 N 
ATOM      5  H   UNL     1       0.995   4.825  21.679  0.00  0.00    +0.000 HD
BRANCH   2   6
ATOM      6  C   UNL     1       1.206   7.345  21.301  0.00  0.00    +0.000 C 
BRANCH   6   7
ATOM      7  O   UNL     1       1.489   8.670  20.853  0.00  0.00    +0.000 OA
BRANCH   7   8
ATOM      8  C   UNL     1       1.130   9.656  21.728  0.00  0.00    +0.000 C 
ATOM      9  O   UNL     1       1.142   9.536  22.948  0.00  0.00    +0.000 OA
BRANCH   8  14
ATOM     10  C   UNL     1      -0.043  14.335  21.281  0.00  0.00    +0.000 C 
ATOM     11  C   UNL     1       0.207  12.973  20.767  0.00  0.00    +0.000 A 
ATOM     12  C   UNL     1       0.160  12.416  19.508  0.00  0.00    +0.000 A 
ATOM     13  C   UNL     1       0.510  11.054  19.666  0.00  0.00    +0.000 A 
ATOM     14  C   UNL     1       0.749  10.851  21.013  0.00  0.00    +0.000 A 
ATOM     15  O   UNL     1       0.564  12.033  21.686  0.00  0.00    +0.000 OA
ENDBRANCH   8  14
ENDBRANCH   7   8
ENDBRANCH   6   7
ENDBRANCH   2   6
ENDBRANCH   1   4
BRANCH   1  16
ATOM     16  C   UNL     1       3.313   3.603  19.943  0.00  0.00    +0.000 C 
BRANCH  16  17
ATOM     17  N   UNL     1       3.939   4.114  18.735  0.00  0.00    +0.000 N 
ATOM     18  C   UNL     1       4.049   3.358  17.590  0.00  0.00    +0.000 C 
ATOM     19  O   UNL     1       3.753   2.166  17.543  0.00  0.00    +0.000 OA
ATOM     20  H   UNL     1       4.146   5.106  18.680  0.00  0.00    +0.000 HD
BRANCH  18  21
ATOM     21  C   UNL     1       4.672   4.089  16.400  0.00  0.00    +0.000 C 
BRANCH  21  22
ATOM     22  O   UNL     1       5.972   3.625  16.032  0.00  0.00    +0.000 OA
BRANCH  22  23
ATOM     23  C   UNL     1       6.840   4.601  15.630  0.00  0.00    +0.000 C 
ATOM     24  O   UNL     1       7.234   4.742  14.479  0.00  0.00    +0.000 OA
BRANCH  23  25
ATOM     25  C   UNL     1       7.245   5.419  16.752  0.00  0.00    +0.000 A 
ATOM     26  C   UNL     1       7.507   5.072  18.065  0.00  0.00    +0.000 A 
ATOM     27  C   UNL     1       7.842   6.261  18.752  0.00  0.00    +0.000 A 
ATOM     28  C   UNL     1       7.792   7.272  17.818  0.00  0.00    +0.000 A 
ATOM     29  C   UNL     1       8.059   8.723  17.887  0.00  0.00    +0.000 C 
ATOM     30  O   UNL     1       7.424   6.773  16.603  0.00  0.00    +0.000 OA
ENDBRANCH  23  25
ENDBRANCH  22  23
ENDBRANCH  21  22
ENDBRANCH  18  21
ENDBRANCH  16  17
ENDBRANCH   1  16
TORSDOF 11
ENDMDL
MODEL 9
REMARK VINA RESULT:      -6.6      1.593      2.373
REMARK  Name = 
REMARK  13 active torsions:
REMARK  status: ('A' for Active; 'I' for Inactive)
REMARK    1  A    between atoms: C_1  and  C_2
REMARK    2  A    between atoms: C_5  and  C_6
REMARK    3  A    between atoms: C_6  and  O_8
REMARK    4  A    between atoms: O_8  and  C_9
REMARK    5  A    between atoms: C_9  and  C_10
REMARK    6  A    between atoms: N_12  and  C_13
REMARK    7  A    between atoms: C_13  and  C_14
REMARK    8  A    between atoms: C_14  and  N_15
REMARK    9  A    between atoms: C_16  and  C_18
REMARK   10  A    between atoms: C_18  and  O_19
REMARK   11  A    between atoms: O_19  and  C_20
REMARK   12  A    between atoms: C_20  and  C_22
REMARK   13  A    between atoms: C_25  and  C_26
REMARK                            x       y       z     vdW  Elec       q    Type
REMARK                         _______ _______ _______ _____ _____    ______ ____
ROOT
ATOM      1  C   UNL     1       2.937   2.847  20.127  0.00  0.00    +0.000 C 
ENDROOT
BRANCH   1   4
ATOM      2  C   UNL     1       3.610   3.189  17.766  0.00  0.00    +0.000 C 
ATOM      3  O   UNL     1       2.668   2.530  17.331  0.00  0.00    +0.000 OA
ATOM      4  N   UNL     1       3.821   3.396  19.113  0.00  0.00    +0.000 N 
ATOM      5  H   UNL     1       4.686   3.838  19.407  0.00  0.00    +0.000 HD
BRANCH   2   6
ATOM      6  C   UNL     1       4.679   3.784  16.850  0.00  0.00    +0.000 C 
BRANCH   6   7
ATOM      7  O   UNL     1       4.666   5.209  16.785  0.00  0.00    +0.000 OA
BRANCH   7   8
ATOM      8  C   UNL     1       5.729   5.760  16.127  0.00  0.00    +0.000 C 
ATOM      9  O   UNL     1       5.865   5.755  14.909  0.00  0.00    +0.000 OA
BRANCH   8  14
ATOM     10  C   UNL     1       8.368   9.338  18.052  0.00  0.00    +0.000 C 
ATOM     11  C   UNL     1       7.872   7.949  17.969  0.00  0.00    +0.000 A 
ATOM     12  C   UNL     1       8.114   6.815  18.712  0.00  0.00    +0.000 A 
ATOM     13  C   UNL     1       7.330   5.789  18.133  0.00  0.00    +0.000 A 
ATOM     14  C   UNL     1       6.654   6.350  17.065  0.00  0.00    +0.000 A 
ATOM     15  O   UNL     1       6.989   7.677  16.968  0.00  0.00    +0.000 OA
ENDBRANCH   8  14
ENDBRANCH   7   8
ENDBRANCH   6   7
ENDBRANCH   2   6
ENDBRANCH   1   4
BRANCH   1  16
ATOM     16  C   UNL     1       1.493   3.366  20.019  0.00  0.00    +0.000 C 
BRANCH  16  17
ATOM     17  N   UNL     1       1.249   4.585  20.772  0.00  0.00    +0.000 N 
ATOM     18  C   UNL     1       1.568   5.829  20.276  0.00  0.00    +0.000 C 
ATOM     19  O   UNL     1       2.197   5.995  19.234  0.00  0.00    +0.000 OA
ATOM     20  H   UNL     1       0.676   4.531  21.608  0.00  0.00    +0.000 HD
BRANCH  18  21
ATOM     21  C   UNL     1       1.172   6.997  21.181  0.00  0.00    +0.000 C 
BRANCH  21  22
ATOM     22  O   UNL     1       1.855   8.221  20.907  0.00  0.00    +0.000 OA
BRANCH  22  23
ATOM     23  C   UNL     1       1.426   9.295  21.634  0.00  0.00    +0.000 C 
ATOM     24  O   UNL     1       1.839   9.582  22.751  0.00  0.00    +0.000 OA
BRANCH  23  25
ATOM     25  C   UNL     1       0.404  10.025  20.915  0.00  0.00    +0.000 A 
ATOM     26  C   UNL     1      -0.402  11.072  21.323  0.00  0.00    +0.000 A 
ATOM     27  C   UNL     1      -1.246  11.397  20.236  0.00  0.00    +0.000 A 
ATOM     28  C   UNL     1      -0.895  10.546  19.211  0.00  0.00    +0.000 A 
ATOM     29  C   UNL     1      -1.372  10.392  17.821  0.00  0.00    +0.000 C 
ATOM     30  O   UNL     1       0.100   9.705  19.615  0.00  0.00    +0.000 OA
ENDBRANCH  23  25
ENDBRANCH  22  23
ENDBRANCH  21  22
ENDBRANCH  18  21
ENDBRANCH  16  17
ENDBRANCH   1  16
TORSDOF 11
ENDMDL
