MODEL 1
REMARK VINA RESULT:      -9.4      0.000      0.000
REMARK  Name = 
REMARK  6 active torsions:
REMARK  status: ('A' for Active; 'I' for Inactive)
REMARK    1  A    between atoms: C_1  and  C_2
REMARK    2  A    between atoms: C_7  and  N_8
REMARK    3  A    between atoms: C_9  and  C_11
REMARK    4  A    between atoms: N_15  and  C_16
REMARK    5  A    between atoms: C_16  and  C_17
REMARK    6  A    between atoms: C_20  and  C_21
REMARK                            x       y       z     vdW  Elec       q    Type
REMARK                         _______ _______ _______ _____ _____    ______ ____
ROOT
ATOM      1  C   UNL     1       5.534   4.588  16.895  0.00  0.00    +0.000 A 
ATOM      2  C   UNL     1       5.300   3.993  15.661  0.00  0.00    +0.000 A 
ATOM      3  C   UNL     1       6.415   4.242  14.828  0.00  0.00    +0.000 A 
ATOM      4  C   UNL     1       7.335   4.931  15.580  0.00  0.00    +0.000 A 
ATOM      5  N   UNL     1       6.829   5.082  16.851  0.00  0.00    +0.000 N 
ENDROOT
BRANCH   1   7
ATOM      6  N   UNL     1       4.190   3.502  18.525  0.00  0.00    +0.000 N 
ATOM      7  C   UNL     1       4.643   4.719  18.039  0.00  0.00    +0.000 C 
ATOM      8  O   UNL     1       4.328   5.820  18.473  0.00  0.00    +0.000 OA
ATOM      9  H   UNL     1       4.624   2.680  18.134  0.00  0.00    +0.000 HD
BRANCH   6  16
ATOM     10  C   UNL     1       1.395   4.047  17.727  0.00  0.00    +0.000 C 
ATOM     11  C   UNL     1       1.806   3.550  19.088  0.00  0.00    +0.000 A 
ATOM     12  C   UNL     1       0.778   3.298  20.016  0.00  0.00    +0.000 A 
ATOM     13  C   UNL     1       1.062   2.853  21.306  0.00  0.00    +0.000 A 
ATOM     14  C   UNL     1       2.381   2.646  21.681  0.00  0.00    +0.000 A 
ATOM     15  C   UNL     1       3.409   2.853  20.760  0.00  0.00    +0.000 A 
ATOM     16  C   UNL     1       3.145   3.283  19.454  0.00  0.00    +0.000 A 
ENDBRANCH   6  16
ENDBRANCH   1   7
BRANCH   5  17
ATOM     17  C   UNL     1       7.585   5.680  17.952  0.00  0.00    +0.000 C 
BRANCH  17  18
ATOM     18  C   UNL     1       7.704   7.158  17.852  0.00  0.00    +0.000 A 
ATOM     19  N   UNL     1       6.979   7.914  17.015  0.00  0.00    +0.000 NA
ATOM     20  O   UNL     1       7.420   9.210  17.285  0.00  0.00    +0.000 OA
ATOM     21  C   UNL     1       8.392   9.104  18.239  0.00  0.00    +0.000 A 
ATOM     22  N   UNL     1       8.637   7.858  18.584  0.00  0.00    +0.000 NA
BRANCH  21  23
ATOM     23  C   UNL     1       8.935  10.345  18.779  0.00  0.00    +0.000 A 
ATOM     24  C   UNL     1       9.504  10.411  20.061  0.00  0.00    +0.000 A 
ATOM     25  C   UNL     1      10.131  11.578  20.503  0.00  0.00    +0.000 A 
ATOM     26  C   UNL     1      10.185  12.698  19.676  0.00  0.00    +0.000 A 
ATOM     27  C   UNL     1       9.587  12.663  18.419  0.00  0.00    +0.000 A 
ATOM     28  C   UNL     1       8.962  11.496  17.975  0.00  0.00    +0.000 A 
ENDBRANCH  21  23
ENDBRANCH  17  18
ENDBRANCH   5  17
TORSDOF 5
ENDMDL
MODEL 2
REMARK VINA RESULT:      -9.2      4.168      6.457
REMARK  Name = 
REMARK  6 active torsions:
REMARK  status: ('A' for Active; 'I' for Inactive)
REMARK    1  A    between atoms: C_1  and  C_2
REMARK    2  A    between atoms: C_7  and  N_8
REMARK    3  A    between atoms: C_9  and  C_11
REMARK    4  A    between atoms: N_15  and  C_16
REMARK    5  A    between atoms: C_16  and  C_17
REMARK    6  A    between atoms: C_20  and  C_21
REMARK                            x       y       z     vdW  Elec       q    Type
REMARK                         _______ _______ _______ _____ _____    ______ ____
ROOT
ATOM      1  C   UNL     1       2.960   4.141  19.156  0.00  0.00    +0.000 A 
ATOM      2  C   UNL     1       2.311   2.972  19.537  0.00  0.00    +0.000 A 
ATOM      3  C   UNL     1       3.287   2.026  19.923  0.00  0.00    +0.000 A 
ATOM      4  C   UNL     1       4.510   2.646  19.832  0.00  0.00    +0.000 A 
ATOM      5  N   UNL     1       4.305   3.947  19.432  0.00  0.00    +0.000 N 
ENDROOT
BRANCH   1   7
ATOM      6  N   UNL     1       2.773   6.508  19.244  0.00  0.00    +0.000 N 
ATOM      7  C   UNL     1       2.408   5.353  18.569  0.00  0.00    +0.000 C 
ATOM      8  O   UNL     1       1.669   5.303  17.593  0.00  0.00    +0.000 OA
ATOM      9  H   UNL     1       3.474   6.398  19.961  0.00  0.00    +0.000 HD
BRANCH   6  16
ATOM     10  C   UNL     1       1.097   7.652  21.395  0.00  0.00    +0.000 C 
ATOM     11  C   UNL     1       1.417   8.359  20.103  0.00  0.00    +0.000 A 
ATOM     12  C   UNL     1       0.908   9.661  19.941  0.00  0.00    +0.000 A 
ATOM     13  C   UNL     1       1.137  10.385  18.773  0.00  0.00    +0.000 A 
ATOM     14  C   UNL     1       1.886   9.817  17.753  0.00  0.00    +0.000 A 
ATOM     15  C   UNL     1       2.430   8.543  17.914  0.00  0.00    +0.000 A 
ATOM     16  C   UNL     1       2.228   7.804  19.086  0.00  0.00    +0.000 A 
ENDBRANCH   6  16
ENDBRANCH   1   7
BRANCH   5  17
ATOM     17  C   UNL     1       5.380   4.936  19.329  0.00  0.00    +0.000 C 
BRANCH  17  18
ATOM     18  C   UNL     1       6.208   4.782  18.105  0.00  0.00    +0.000 A 
ATOM     19  N   UNL     1       7.518   4.493  18.116  0.00  0.00    +0.000 NA
ATOM     20  O   UNL     1       7.848   4.437  16.762  0.00  0.00    +0.000 OA
ATOM     21  C   UNL     1       6.709   4.728  16.066  0.00  0.00    +0.000 A 
ATOM     22  N   UNL     1       5.686   4.996  16.848  0.00  0.00    +0.000 NA
BRANCH  21  23
ATOM     23  C   UNL     1       6.768   4.618  14.613  0.00  0.00    +0.000 A 
ATOM     24  C   UNL     1       7.681   5.362  13.848  0.00  0.00    +0.000 A 
ATOM     25  C   UNL     1       7.804   5.143  12.474  0.00  0.00    +0.000 A 
ATOM     26  C   UNL     1       7.008   4.189  11.845  0.00  0.00    +0.000 A 
ATOM     27  C   UNL     1       6.068   3.472  12.582  0.00  0.00    +0.000 A 
ATOM     28  C   UNL     1       5.945   3.690  13.956  0.00  0.00    +0.000 A 
ENDBRANCH  21  23
ENDBRANCH  17  18
ENDBRANCH   5  17
TORSDOF 5
ENDMDL
MODEL 3
REMARK VINA RESULT:      -9.1      0.889      1.042
REMARK  Name = 
REMARK  6 active torsions:
REMARK  status: ('A' for Active; 'I' for Inactive)
REMARK    1  A    between atoms: C_1  and  C_2
REMARK    2  A    between atoms: C_7  and  N_8
REMARK    3  A    between atoms: C_9  and  C_11
REMARK    4  A    between atoms: N_15  and  C_16
REMARK    5  A    between atoms: C_16  and  C_17
REMARK    6  A    between atoms: C_20  and  C_21
REMARK                            x       y       z     vdW  Elec       q    Type
REMARK                         _______ _______ _______ _____ _____    ______ ____
ROOT
ATOM      1  C   UNL     1       5.483   4.851  16.433  0.00  0.00    +0.000 A 
ATOM      2  C   UNL     1       5.445   4.274  15.169  0.00  0.00    +0.000 A 
ATOM      3  C   UNL     1       6.715   4.427  14.570  0.00  0.00    +0.000 A 
ATOM      4  C   UNL     1       7.527   5.040  15.494  0.00  0.00    +0.000 A 
ATOM      5  N   UNL     1       6.799   5.235  16.646  0.00  0.00    +0.000 N 
ENDROOT
BRANCH   1   7
ATOM      6  N   UNL     1       4.353   4.093  18.380  0.00  0.00    +0.000 N 
ATOM      7  C   UNL     1       4.402   5.058  17.386  0.00  0.00    +0.000 C 
ATOM      8  O   UNL     1       3.617   5.989  17.259  0.00  0.00    +0.000 OA
ATOM      9  H   UNL     1       5.132   3.454  18.416  0.00  0.00    +0.000 HD
BRANCH   6  16
ATOM     10  C   UNL     1       2.981   1.473  18.404  0.00  0.00    +0.000 C 
ATOM     11  C   UNL     1       2.636   2.619  19.319  0.00  0.00    +0.000 A 
ATOM     12  C   UNL     1       1.617   2.399  20.265  0.00  0.00    +0.000 A 
ATOM     13  C   UNL     1       1.217   3.406  21.141  0.00  0.00    +0.000 A 
ATOM     14  C   UNL     1       1.837   4.645  21.087  0.00  0.00    +0.000 A 
ATOM     15  C   UNL     1       2.876   4.866  20.183  0.00  0.00    +0.000 A 
ATOM     16  C   UNL     1       3.307   3.864  19.304  0.00  0.00    +0.000 A 
ENDBRANCH   6  16
ENDBRANCH   1   7
BRANCH   5  17
ATOM     17  C   UNL     1       7.374   5.772  17.880  0.00  0.00    +0.000 C 
BRANCH  17  18
ATOM     18  C   UNL     1       7.634   7.234  17.824  0.00  0.00    +0.000 A 
ATOM     19  N   UNL     1       6.998   8.078  16.997  0.00  0.00    +0.000 NA
ATOM     20  O   UNL     1       7.554   9.318  17.310  0.00  0.00    +0.000 OA
ATOM     21  C   UNL     1       8.496   9.095  18.276  0.00  0.00    +0.000 A 
ATOM     22  N   UNL     1       8.615   7.823  18.590  0.00  0.00    +0.000 NA
BRANCH  21  23
ATOM     23  C   UNL     1       9.143  10.264  18.859  0.00  0.00    +0.000 A 
ATOM     24  C   UNL     1       9.228  10.450  20.248  0.00  0.00    +0.000 A 
ATOM     25  C   UNL     1       9.964  11.511  20.781  0.00  0.00    +0.000 A 
ATOM     26  C   UNL     1      10.612  12.407  19.934  0.00  0.00    +0.000 A 
ATOM     27  C   UNL     1      10.502  12.261  18.553  0.00  0.00    +0.000 A 
ATOM     28  C   UNL     1       9.768  11.199  18.020  0.00  0.00    +0.000 A 
ENDBRANCH  21  23
ENDBRANCH  17  18
ENDBRANCH   5  17
TORSDOF 5
ENDMDL
MODEL 4
REMARK VINA RESULT:      -8.7      0.983      1.091
REMARK  Name = 
REMARK  6 active torsions:
REMARK  status: ('A' for Active; 'I' for Inactive)
REMARK    1  A    between atoms: C_1  and  C_2
REMARK    2  A    between atoms: C_7  and  N_8
REMARK    3  A    between atoms: C_9  and  C_11
REMARK    4  A    between atoms: N_15  and  C_16
REMARK    5  A    between atoms: C_16  and  C_17
REMARK    6  A    between atoms: C_20  and  C_21
REMARK                            x       y       z     vdW  Elec       q    Type
REMARK                         _______ _______ _______ _____ _____    ______ ____
ROOT
ATOM      1  C   UNL     1       5.717   4.651  16.910  0.00  0.00    +0.000 A 
ATOM      2  C   UNL     1       6.194   3.634  16.090  0.00  0.00    +0.000 A 
ATOM      3  C   UNL     1       6.651   4.211  14.885  0.00  0.00    +0.000 A 
ATOM      4  C   UNL     1       6.504   5.572  15.006  0.00  0.00    +0.000 A 
ATOM      5  N   UNL     1       6.001   5.842  16.258  0.00  0.00    +0.000 N 
ENDROOT
BRANCH   1   7
ATOM      6  N   UNL     1       4.110   3.528  18.252  0.00  0.00    +0.000 N 
ATOM      7  C   UNL     1       5.036   4.558  18.193  0.00  0.00    +0.000 C 
ATOM      8  O   UNL     1       5.268   5.358  19.091  0.00  0.00    +0.000 OA
ATOM      9  H   UNL     1       4.110   2.887  17.473  0.00  0.00    +0.000 HD
BRANCH   6  16
ATOM     10  C   UNL     1       1.304   4.281  17.702  0.00  0.00    +0.000 C 
ATOM     11  C   UNL     1       1.781   3.679  18.998  0.00  0.00    +0.000 A 
ATOM     12  C   UNL     1       0.810   3.431  19.986  0.00  0.00    +0.000 A 
ATOM     13  C   UNL     1       1.160   2.893  21.223  0.00  0.00    +0.000 A 
ATOM     14  C   UNL     1       2.487   2.588  21.484  0.00  0.00    +0.000 A 
ATOM     15  C   UNL     1       3.456   2.790  20.501  0.00  0.00    +0.000 A 
ATOM     16  C   UNL     1       3.125   3.314  19.244  0.00  0.00    +0.000 A 
ENDBRANCH   6  16
ENDBRANCH   1   7
BRANCH   5  17
ATOM     17  C   UNL     1       5.814   7.198  16.775  0.00  0.00    +0.000 C 
BRANCH  17  18
ATOM     18  C   UNL     1       6.984   7.707  17.537  0.00  0.00    +0.000 A 
ATOM     19  N   UNL     1       7.847   6.922  18.199  0.00  0.00    +0.000 NA
ATOM     20  O   UNL     1       8.764   7.827  18.733  0.00  0.00    +0.000 OA
ATOM     21  C   UNL     1       8.344   9.075  18.367  0.00  0.00    +0.000 A 
ATOM     22  N   UNL     1       7.227   9.056  17.672  0.00  0.00    +0.000 NA
BRANCH  21  23
ATOM     23  C   UNL     1       9.209  10.198  18.710  0.00  0.00    +0.000 A 
ATOM     24  C   UNL     1       9.470  10.553  20.043  0.00  0.00    +0.000 A 
ATOM     25  C   UNL     1      10.402  11.549  20.346  0.00  0.00    +0.000 A 
ATOM     26  C   UNL     1      11.074  12.211  19.320  0.00  0.00    +0.000 A 
ATOM     27  C   UNL     1      10.795  11.900  17.992  0.00  0.00    +0.000 A 
ATOM     28  C   UNL     1       9.865  10.903  17.689  0.00  0.00    +0.000 A 
ENDBRANCH  21  23
ENDBRANCH  17  18
ENDBRANCH   5  17
TORSDOF 5
ENDMDL
MODEL 5
REMARK VINA RESULT:      -8.7      1.365      1.596
REMARK  Name = 
REMARK  6 active torsions:
REMARK  status: ('A' for Active; 'I' for Inactive)
REMARK    1  A    between atoms: C_1  and  C_2
REMARK    2  A    between atoms: C_7  and  N_8
REMARK    3  A    between atoms: C_9  and  C_11
REMARK    4  A    between atoms: N_15  and  C_16
REMARK    5  A    between atoms: C_16  and  C_17
REMARK    6  A    between atoms: C_20  and  C_21
REMARK                            x       y       z     vdW  Elec       q    Type
REMARK                         _______ _______ _______ _____ _____    ______ ____
ROOT
ATOM      1  C   UNL     1       5.878   4.477  16.462  0.00  0.00    +0.000 A 
ATOM      2  C   UNL     1       6.451   3.603  15.545  0.00  0.00    +0.000 A 
ATOM      3  C   UNL     1       6.902   4.354  14.436  0.00  0.00    +0.000 A 
ATOM      4  C   UNL     1       6.654   5.676  14.714  0.00  0.00    +0.000 A 
ATOM      5  N   UNL     1       6.096   5.755  15.970  0.00  0.00    +0.000 N 
ENDROOT
BRANCH   1   7
ATOM      6  N   UNL     1       3.788   4.243  17.567  0.00  0.00    +0.000 N 
ATOM      7  C   UNL     1       5.167   4.181  17.697  0.00  0.00    +0.000 C 
ATOM      8  O   UNL     1       5.774   3.942  18.734  0.00  0.00    +0.000 OA
ATOM      9  H   UNL     1       3.436   4.343  16.628  0.00  0.00    +0.000 HD
BRANCH   6  16
ATOM     10  C   UNL     1       2.182   1.812  18.072  0.00  0.00    +0.000 C 
ATOM     11  C   UNL     1       2.045   3.095  18.850  0.00  0.00    +0.000 A 
ATOM     12  C   UNL     1       1.114   3.109  19.906  0.00  0.00    +0.000 A 
ATOM     13  C   UNL     1       0.905   4.256  20.669  0.00  0.00    +0.000 A 
ATOM     14  C   UNL     1       1.632   5.403  20.390  0.00  0.00    +0.000 A 
ATOM     15  C   UNL     1       2.587   5.393  19.373  0.00  0.00    +0.000 A 
ATOM     16  C   UNL     1       2.826   4.247  18.605  0.00  0.00    +0.000 A 
ENDBRANCH   6  16
ENDBRANCH   1   7
BRANCH   5  17
ATOM     17  C   UNL     1       5.796   7.022  16.639  0.00  0.00    +0.000 C 
BRANCH  17  18
ATOM     18  C   UNL     1       6.932   7.552  17.438  0.00  0.00    +0.000 A 
ATOM     19  N   UNL     1       7.762   6.785  18.161  0.00  0.00    +0.000 NA
ATOM     20  O   UNL     1       8.656   7.705  18.709  0.00  0.00    +0.000 OA
ATOM     21  C   UNL     1       8.257   8.942  18.287  0.00  0.00    +0.000 A 
ATOM     22  N   UNL     1       7.173   8.903  17.543  0.00  0.00    +0.000 NA
BRANCH  21  23
ATOM     23  C   UNL     1       9.109  10.073  18.636  0.00  0.00    +0.000 A 
ATOM     24  C   UNL     1       9.376  10.417  19.971  0.00  0.00    +0.000 A 
ATOM     25  C   UNL     1      10.297  11.423  20.276  0.00  0.00    +0.000 A 
ATOM     26  C   UNL     1      10.950  12.106  19.253  0.00  0.00    +0.000 A 
ATOM     27  C   UNL     1      10.664  11.806  17.923  0.00  0.00    +0.000 A 
ATOM     28  C   UNL     1       9.746  10.799  17.617  0.00  0.00    +0.000 A 
ENDBRANCH  21  23
ENDBRANCH  17  18
ENDBRANCH   5  17
TORSDOF 5
ENDMDL
MODEL 6
REMARK VINA RESULT:      -8.6      1.070      1.288
REMARK  Name = 
REMARK  6 active torsions:
REMARK  status: ('A' for Active; 'I' for Inactive)
REMARK    1  A    between atoms: C_1  and  C_2
REMARK    2  A    between atoms: C_7  and  N_8
REMARK    3  A    between atoms: C_9  and  C_11
REMARK    4  A    between atoms: N_15  and  C_16
REMARK    5  A    between atoms: C_16  and  C_17
REMARK    6  A    between atoms: C_20  and  C_21
REMARK                            x       y       z     vdW  Elec       q    Type
REMARK                         _______ _______ _______ _____ _____    ______ ____
ROOT
ATOM      1  C   UNL     1       5.900   4.254  16.780  0.00  0.00    +0.000 A 
ATOM      2  C   UNL     1       5.838   3.856  15.450  0.00  0.00    +0.000 A 
ATOM      3  C   UNL     1       6.765   4.624  14.711  0.00  0.00    +0.000 A 
ATOM      4  C   UNL     1       7.421   5.436  15.605  0.00  0.00    +0.000 A 
ATOM      5  N   UNL     1       6.944   5.163  16.866  0.00  0.00    +0.000 N 
ENDROOT
BRANCH   1   7
ATOM      6  N   UNL     1       3.709   4.033  17.673  0.00  0.00    +0.000 N 
ATOM      7  C   UNL     1       5.065   3.853  17.903  0.00  0.00    +0.000 C 
ATOM      8  O   UNL     1       5.560   3.434  18.942  0.00  0.00    +0.000 OA
ATOM      9  H   UNL     1       3.450   4.282  16.731  0.00  0.00    +0.000 HD
BRANCH   6  16
ATOM     10  C   UNL     1       3.123   6.401  19.345  0.00  0.00    +0.000 C 
ATOM     11  C   UNL     1       2.377   5.095  19.434  0.00  0.00    +0.000 A 
ATOM     12  C   UNL     1       1.312   5.026  20.351  0.00  0.00    +0.000 A 
ATOM     13  C   UNL     1       0.576   3.854  20.516  0.00  0.00    +0.000 A 
ATOM     14  C   UNL     1       0.893   2.737  19.759  0.00  0.00    +0.000 A 
ATOM     15  C   UNL     1       1.920   2.801  18.817  0.00  0.00    +0.000 A 
ATOM     16  C   UNL     1       2.661   3.973  18.621  0.00  0.00    +0.000 A 
ENDBRANCH   6  16
ENDBRANCH   1   7
BRANCH   5  17
ATOM     17  C   UNL     1       7.490   5.769  18.082  0.00  0.00    +0.000 C 
BRANCH  17  18
ATOM     18  C   UNL     1       7.685   7.238  17.973  0.00  0.00    +0.000 A 
ATOM     19  N   UNL     1       6.968   8.032  17.164  0.00  0.00    +0.000 NA
ATOM     20  O   UNL     1       7.489   9.302  17.413  0.00  0.00    +0.000 OA
ATOM     21  C   UNL     1       8.492   9.144  18.327  0.00  0.00    +0.000 A 
ATOM     22  N   UNL     1       8.683   7.887  18.665  0.00  0.00    +0.000 NA
BRANCH  21  23
ATOM     23  C   UNL     1       9.122  10.355  18.842  0.00  0.00    +0.000 A 
ATOM     24  C   UNL     1       9.339  10.552  20.215  0.00  0.00    +0.000 A 
ATOM     25  C   UNL     1      10.059  11.660  20.670  0.00  0.00    +0.000 A 
ATOM     26  C   UNL     1      10.558  12.590  19.761  0.00  0.00    +0.000 A 
ATOM     27  C   UNL     1      10.314  12.431  18.399  0.00  0.00    +0.000 A 
ATOM     28  C   UNL     1       9.596  11.323  17.943  0.00  0.00    +0.000 A 
ENDBRANCH  21  23
ENDBRANCH  17  18
ENDBRANCH   5  17
TORSDOF 5
ENDMDL
MODEL 7
REMARK VINA RESULT:      -8.5      2.191      2.570
REMARK  Name = 
REMARK  6 active torsions:
REMARK  status: ('A' for Active; 'I' for Inactive)
REMARK    1  A    between atoms: C_1  and  C_2
REMARK    2  A    between atoms: C_7  and  N_8
REMARK    3  A    between atoms: C_9  and  C_11
REMARK    4  A    between atoms: N_15  and  C_16
REMARK    5  A    between atoms: C_16  and  C_17
REMARK    6  A    between atoms: C_20  and  C_21
REMARK                            x       y       z     vdW  Elec       q    Type
REMARK                         _______ _______ _______ _____ _____    ______ ____
ROOT
ATOM      1  C   UNL     1       5.173   4.814  17.557  0.00  0.00    +0.000 A 
ATOM      2  C   UNL     1       4.653   4.032  16.531  0.00  0.00    +0.000 A 
ATOM      3  C   UNL     1       5.685   3.774  15.602  0.00  0.00    +0.000 A 
ATOM      4  C   UNL     1       6.830   4.348  16.098  0.00  0.00    +0.000 A 
ATOM      5  N   UNL     1       6.534   4.919  17.314  0.00  0.00    +0.000 N 
ENDROOT
BRANCH   1   7
ATOM      6  N   UNL     1       3.256   5.980  18.338  0.00  0.00    +0.000 N 
ATOM      7  C   UNL     1       4.487   5.439  18.678  0.00  0.00    +0.000 C 
ATOM      8  O   UNL     1       5.003   5.487  19.788  0.00  0.00    +0.000 OA
ATOM      9  H   UNL     1       2.918   5.764  17.414  0.00  0.00    +0.000 HD
BRANCH   6  16
ATOM     10  C   UNL     1       1.885   4.938  20.742  0.00  0.00    +0.000 C 
ATOM     11  C   UNL     1       1.787   6.362  20.262  0.00  0.00    +0.000 A 
ATOM     12  C   UNL     1       1.019   7.250  21.039  0.00  0.00    +0.000 A 
ATOM     13  C   UNL     1       0.857   8.582  20.663  0.00  0.00    +0.000 A 
ATOM     14  C   UNL     1       1.467   9.045  19.507  0.00  0.00    +0.000 A 
ATOM     15  C   UNL     1       2.264   8.188  18.748  0.00  0.00    +0.000 A 
ATOM     16  C   UNL     1       2.456   6.850  19.115  0.00  0.00    +0.000 A 
ENDBRANCH   6  16
ENDBRANCH   1   7
BRANCH   5  17
ATOM     17  C   UNL     1       7.541   5.534  18.182  0.00  0.00    +0.000 C 
BRANCH  17  18
ATOM     18  C   UNL     1       7.706   6.993  17.953  0.00  0.00    +0.000 A 
ATOM     19  N   UNL     1       7.088   7.674  16.976  0.00  0.00    +0.000 NA
ATOM     20  O   UNL     1       7.530   8.983  17.165  0.00  0.00    +0.000 OA
ATOM     21  C   UNL     1       8.398   8.957  18.221  0.00  0.00    +0.000 A 
ATOM     22  N   UNL     1       8.575   7.748  18.707  0.00  0.00    +0.000 NA
BRANCH  21  23
ATOM     23  C   UNL     1       8.912  10.238  18.693  0.00  0.00    +0.000 A 
ATOM     24  C   UNL     1       9.536  10.372  19.944  0.00  0.00    +0.000 A 
ATOM     25  C   UNL     1      10.133  11.578  20.316  0.00  0.00    +0.000 A 
ATOM     26  C   UNL     1      10.102  12.670  19.450  0.00  0.00    +0.000 A 
ATOM     27  C   UNL     1       9.450  12.566  18.224  0.00  0.00    +0.000 A 
ATOM     28  C   UNL     1       8.854  11.359  17.850  0.00  0.00    +0.000 A 
ENDBRANCH  21  23
ENDBRANCH  17  18
ENDBRANCH   5  17
TORSDOF 5
ENDMDL
MODEL 8
REMARK VINA RESULT:      -8.5      1.073      1.546
REMARK  Name = 
REMARK  6 active torsions:
REMARK  status: ('A' for Active; 'I' for Inactive)
REMARK    1  A    between atoms: C_1  and  C_2
REMARK    2  A    between atoms: C_7  and  N_8
REMARK    3  A    between atoms: C_9  and  C_11
REMARK    4  A    between atoms: N_15  and  C_16
REMARK    5  A    between atoms: C_16  and  C_17
REMARK    6  A    between atoms: C_20  and  C_21
REMARK                            x       y       z     vdW  Elec       q    Type
REMARK                         _______ _______ _______ _____ _____    ______ ____
ROOT
ATOM      1  C   UNL     1       6.002   4.355  16.842  0.00  0.00    +0.000 A 
ATOM      2  C   UNL     1       5.972   3.928  15.520  0.00  0.00    +0.000 A 
ATOM      3  C   UNL     1       6.924   4.674  14.789  0.00  0.00    +0.000 A 
ATOM      4  C   UNL     1       7.561   5.501  15.681  0.00  0.00    +0.000 A 
ATOM      5  N   UNL     1       7.049   5.259  16.935  0.00  0.00    +0.000 N 
ENDROOT
BRANCH   1   7
ATOM      6  N   UNL     1       3.827   4.420  17.796  0.00  0.00    +0.000 N 
ATOM      7  C   UNL     1       5.134   3.985  17.951  0.00  0.00    +0.000 C 
ATOM      8  O   UNL     1       5.572   3.378  18.921  0.00  0.00    +0.000 OA
ATOM      9  H   UNL     1       3.594   4.810  16.896  0.00  0.00    +0.000 HD
BRANCH   6  16
ATOM     10  C   UNL     1       1.999   2.108  18.037  0.00  0.00    +0.000 C 
ATOM     11  C   UNL     1       1.919   3.344  18.894  0.00  0.00    +0.000 A 
ATOM     12  C   UNL     1       0.928   3.369  19.894  0.00  0.00    +0.000 A 
ATOM     13  C   UNL     1       0.767   4.477  20.723  0.00  0.00    +0.000 A 
ATOM     14  C   UNL     1       1.601   5.573  20.567  0.00  0.00    +0.000 A 
ATOM     15  C   UNL     1       2.614   5.549  19.608  0.00  0.00    +0.000 A 
ATOM     16  C   UNL     1       2.806   4.439  18.775  0.00  0.00    +0.000 A 
ENDBRANCH   6  16
ENDBRANCH   1   7
BRANCH   5  17
ATOM     17  C   UNL     1       7.568   5.889  18.151  0.00  0.00    +0.000 C 
BRANCH  17  18
ATOM     18  C   UNL     1       7.748   7.359  18.024  0.00  0.00    +0.000 A 
ATOM     19  N   UNL     1       7.021   8.136  17.207  0.00  0.00    +0.000 NA
ATOM     20  O   UNL     1       7.530   9.414  17.439  0.00  0.00    +0.000 OA
ATOM     21  C   UNL     1       8.536   9.277  18.353  0.00  0.00    +0.000 A 
ATOM     22  N   UNL     1       8.740   8.026  18.706  0.00  0.00    +0.000 NA
BRANCH  21  23
ATOM     23  C   UNL     1       9.156  10.500  18.851  0.00  0.00    +0.000 A 
ATOM     24  C   UNL     1       9.415  11.596  18.013  0.00  0.00    +0.000 A 
ATOM     25  C   UNL     1       9.889  12.799  18.540  0.00  0.00    +0.000 A 
ATOM     26  C   UNL     1      10.124  12.918  19.908  0.00  0.00    +0.000 A 
ATOM     27  C   UNL     1       9.912  11.827  20.747  0.00  0.00    +0.000 A 
ATOM     28  C   UNL     1       9.436  10.624  20.221  0.00  0.00    +0.000 A 
ENDBRANCH  21  23
ENDBRANCH  17  18
ENDBRANCH   5  17
TORSDOF 5
ENDMDL
MODEL 9
REMARK VINA RESULT:      -8.4      4.178      6.649
REMARK  Name = 
REMARK  6 active torsions:
REMARK  status: ('A' for Active; 'I' for Inactive)
REMARK    1  A    between atoms: C_1  and  C_2
REMARK    2  A    between atoms: C_7  and  N_8
REMARK    3  A    between atoms: C_9  and  C_11
REMARK    4  A    between atoms: N_15  and  C_16
REMARK    5  A    between atoms: C_16  and  C_17
REMARK    6  A    between atoms: C_20  and  C_21
REMARK                            x       y       z     vdW  Elec       q    Type
REMARK                         _______ _______ _______ _____ _____    ______ ____
ROOT
ATOM      1  C   UNL     1       2.770   4.328  19.390  0.00  0.00    +0.000 A 
ATOM      2  C   UNL     1       2.001   3.320  19.959  0.00  0.00    +0.000 A 
ATOM      3  C   UNL     1       2.862   2.270  20.351  0.00  0.00    +0.000 A 
ATOM      4  C   UNL     1       4.145   2.674  20.073  0.00  0.00    +0.000 A 
ATOM      5  N   UNL     1       4.094   3.947  19.553  0.00  0.00    +0.000 N 
ENDROOT
BRANCH   1   7
ATOM      6  N   UNL     1       2.583   6.695  19.475  0.00  0.00    +0.000 N 
ATOM      7  C   UNL     1       2.343   5.552  18.728  0.00  0.00    +0.000 C 
ATOM      8  O   UNL     1       1.798   5.521  17.631  0.00  0.00    +0.000 OA
ATOM      9  H   UNL     1       3.138   6.570  20.308  0.00  0.00    +0.000 HD
BRANCH   6  16
ATOM     10  C   UNL     1       0.944   8.023  21.547  0.00  0.00    +0.000 C 
ATOM     11  C   UNL     1       1.290   8.640  20.217  0.00  0.00    +0.000 A 
ATOM     12  C   UNL     1       0.827   9.947  19.975  0.00  0.00    +0.000 A 
ATOM     13  C   UNL     1       1.083  10.591  18.766  0.00  0.00    +0.000 A 
ATOM     14  C   UNL     1       1.814   9.937  17.786  0.00  0.00    +0.000 A 
ATOM     15  C   UNL     1       2.314   8.658  18.025  0.00  0.00    +0.000 A 
ATOM     16  C   UNL     1       2.084   7.997  19.238  0.00  0.00    +0.000 A 
ENDBRANCH   6  16
ENDBRANCH   1   7
BRANCH   5  17
ATOM     17  C   UNL     1       5.286   4.736  19.236  0.00  0.00    +0.000 C 
BRANCH  17  18
ATOM     18  C   UNL     1       5.365   5.139  17.808  0.00  0.00    +0.000 A 
ATOM     19  N   UNL     1       5.071   6.368  17.358  0.00  0.00    +0.000 NA
ATOM     20  O   UNL     1       5.302   6.273  15.986  0.00  0.00    +0.000 OA
ATOM     21  C   UNL     1       5.684   4.985  15.738  0.00  0.00    +0.000 A 
ATOM     22  N   UNL     1       5.691   4.237  16.820  0.00  0.00    +0.000 NA
BRANCH  21  23
ATOM     23  C   UNL     1       6.099   4.662  14.378  0.00  0.00    +0.000 A 
ATOM     24  C   UNL     1       7.297   5.150  13.831  0.00  0.00    +0.000 A 
ATOM     25  C   UNL     1       7.732   4.722  12.574  0.00  0.00    +0.000 A 
ATOM     26  C   UNL     1       6.971   3.813  11.844  0.00  0.00    +0.000 A 
ATOM     27  C   UNL     1       5.760   3.352  12.354  0.00  0.00    +0.000 A 
ATOM     28  C   UNL     1       5.325   3.777  13.610  0.00  0.00    +0.000 A 
ENDBRANCH  21  23
ENDBRANCH  17  18
ENDBRANCH   5  17
TORSDOF 5
ENDMDL
