MODEL 1
REMARK VINA RESULT:      -8.1      0.000      0.000
REMARK  Name = 
REMARK  6 active torsions:
REMARK  status: ('A' for Active; 'I' for Inactive)
REMARK    1  A    between atoms: C_1  and  C_2
REMARK    2  A    between atoms: C_4  and  O_5
REMARK    3  A    between atoms: O_5  and  C_6
REMARK    4  A    between atoms: C_9  and  C_10
REMARK    5  A    between atoms: C_13  and  C_14
REMARK    6  A    between atoms: C_19  and  C_20
REMARK                            x       y       z     vdW  Elec       q    Type
REMARK                         _______ _______ _______ _____ _____    ______ ____
ROOT
ATOM      1  C   UNL     1       1.384   3.051  21.170  0.00  0.00    +0.000 C 
ATOM      2  C   UNL     1       2.170   4.149  20.515  0.00  0.00    +0.000 A 
ATOM      3  C   UNL     1       3.388   3.863  19.895  0.00  0.00    +0.000 A 
ATOM      4  C   UNL     1       4.117   4.898  19.315  0.00  0.00    +0.000 A 
ATOM      5  C   UNL     1       3.570   6.178  19.312  0.00  0.00    +0.000 A 
ATOM      6  C   UNL     1       2.346   6.375  19.939  0.00  0.00    +0.000 A 
ATOM      7  N   UNL     1       1.640   5.390  20.560  0.00  0.00    +0.000 NA
ENDROOT
BRANCH   6   8
ATOM      8  C   UNL     1       1.737   7.745  19.974  0.00  0.00    +0.000 C 
ATOM      9  O   UNL     1       1.900   8.496  19.021  0.00  0.00    +0.000 OA
ATOM     10  N   UNL     1       1.065   8.020  21.147  0.00  0.00    +0.000 N 
ATOM     11  C   UNL     1       0.458   9.223  21.367  0.00  0.00    +0.000 A 
ATOM     12  N   UNL     1       0.227  10.191  20.521  0.00  0.00    +0.000 NA
ATOM     13  C   UNL     1      -0.393  11.265  21.163  0.00  0.00    +0.000 A 
ATOM     14  C   UNL     1      -0.577  11.067  22.524  0.00  0.00    +0.000 A 
ATOM     15  S   UNL     1      -0.058   9.490  22.971  0.00  0.00    +0.000 S 
ATOM     16  H   UNL     1       1.082   7.330  21.886  0.00  0.00    +0.000 HD
BRANCH  13  17
ATOM     17  C   UNL     1      -0.791  12.494  20.400  0.00  0.00    +0.000 C 
ATOM     18  F   UNL     1      -0.049  12.714  19.286  0.00  0.00    +0.000 F 
ATOM     19  F   UNL     1      -2.090  12.425  19.994  0.00  0.00    +0.000 F 
ATOM     20  F   UNL     1      -0.695  13.614  21.167  0.00  0.00    +0.000 F 
ENDBRANCH  13  17
ENDBRANCH   6   8
BRANCH   4  21
ATOM     21  O   UNL     1       5.363   4.784  18.749  0.00  0.00    +0.000 OA
BRANCH  21  22
ATOM     22  C   UNL     1       5.607   5.498  17.528  0.00  0.00    +0.000 C 
ATOM     23  C   UNL     1       7.102   5.613  17.262  0.00  0.00    +0.000 C 
ATOM     24  O   UNL     1       7.488   4.540  16.395  0.00  0.00    +0.000 OA
ATOM     25  C   UNL     1       6.322   4.025  15.746  0.00  0.00    +0.000 C 
ATOM     26  C   UNL     1       6.448   4.245  14.244  0.00  0.00    +0.000 C 
ATOM     27  C   UNL     1       5.101   4.728  16.323  0.00  0.00    +0.000 C 
ENDBRANCH  21  22
ENDBRANCH   4  21
TORSDOF 4
ENDMDL
MODEL 2
REMARK VINA RESULT:      -8.1      5.534      8.921
REMARK  Name = 
REMARK  6 active torsions:
REMARK  status: ('A' for Active; 'I' for Inactive)
REMARK    1  A    between atoms: C_1  and  C_2
REMARK    2  A    between atoms: C_4  and  O_5
REMARK    3  A    between atoms: O_5  and  C_6
REMARK    4  A    between atoms: C_9  and  C_10
REMARK    5  A    between atoms: C_13  and  C_14
REMARK    6  A    between atoms: C_19  and  C_20
REMARK                            x       y       z     vdW  Elec       q    Type
REMARK                         _______ _______ _______ _____ _____    ______ ____
ROOT
ATOM      1  C   UNL     1       1.252   3.069  21.382  0.00  0.00    +0.000 C 
ATOM      2  C   UNL     1       1.777   4.188  20.530  0.00  0.00    +0.000 A 
ATOM      3  C   UNL     1       1.687   5.507  20.978  0.00  0.00    +0.000 A 
ATOM      4  C   UNL     1       2.155   6.536  20.164  0.00  0.00    +0.000 A 
ATOM      5  C   UNL     1       2.763   6.206  18.957  0.00  0.00    +0.000 A 
ATOM      6  C   UNL     1       2.826   4.867  18.592  0.00  0.00    +0.000 A 
ATOM      7  N   UNL     1       2.326   3.848  19.346  0.00  0.00    +0.000 NA
ENDROOT
BRANCH   6   8
ATOM      8  C   UNL     1       3.455   4.476  17.289  0.00  0.00    +0.000 C 
ATOM      9  O   UNL     1       2.897   3.650  16.579  0.00  0.00    +0.000 OA
ATOM     10  N   UNL     1       4.663   5.099  17.052  0.00  0.00    +0.000 N 
ATOM     11  C   UNL     1       5.392   4.858  15.923  0.00  0.00    +0.000 A 
ATOM     12  N   UNL     1       5.039   4.215  14.842  0.00  0.00    +0.000 NA
ATOM     13  C   UNL     1       6.096   4.170  13.931  0.00  0.00    +0.000 A 
ATOM     14  C   UNL     1       7.256   4.771  14.398  0.00  0.00    +0.000 A 
ATOM     15  S   UNL     1       6.981   5.477  15.940  0.00  0.00    +0.000 S 
ATOM     16  H   UNL     1       5.045   5.701  17.771  0.00  0.00    +0.000 HD
BRANCH  13  17
ATOM     17  C   UNL     1       5.935   3.510  12.593  0.00  0.00    +0.000 C 
ATOM     18  F   UNL     1       6.122   2.167  12.617  0.00  0.00    +0.000 F 
ATOM     19  F   UNL     1       4.687   3.719  12.087  0.00  0.00    +0.000 F 
ATOM     20  F   UNL     1       6.804   4.015  11.676  0.00  0.00    +0.000 F 
ENDBRANCH  13  17
ENDBRANCH   6   8
BRANCH   4  21
ATOM     21  O   UNL     1       2.055   7.880  20.431  0.00  0.00    +0.000 OA
BRANCH  21  22
ATOM     22  C   UNL     1       0.836   8.352  21.023  0.00  0.00    +0.000 C 
ATOM     23  C   UNL     1       1.121   9.090  22.325  0.00  0.00    +0.000 C 
ATOM     24  O   UNL     1       1.206  10.491  22.037  0.00  0.00    +0.000 OA
ATOM     25  C   UNL     1       0.577  10.746  20.778  0.00  0.00    +0.000 C 
ATOM     26  C   UNL     1      -0.622  11.658  20.995  0.00  0.00    +0.000 C 
ATOM     27  C   UNL     1       0.174   9.412  20.164  0.00  0.00    +0.000 C 
ENDBRANCH  21  22
ENDBRANCH   4  21
TORSDOF 4
ENDMDL
MODEL 3
REMARK VINA RESULT:      -8.0      5.044      8.647
REMARK  Name = 
REMARK  6 active torsions:
REMARK  status: ('A' for Active; 'I' for Inactive)
REMARK    1  A    between atoms: C_1  and  C_2
REMARK    2  A    between atoms: C_4  and  O_5
REMARK    3  A    between atoms: O_5  and  C_6
REMARK    4  A    between atoms: C_9  and  C_10
REMARK    5  A    between atoms: C_13  and  C_14
REMARK    6  A    between atoms: C_19  and  C_20
REMARK                            x       y       z     vdW  Elec       q    Type
REMARK                         _______ _______ _______ _____ _____    ______ ____
ROOT
ATOM      1  C   UNL     1       0.544   9.483  22.666  0.00  0.00    +0.000 C 
ATOM      2  C   UNL     1       0.456   9.554  21.170  0.00  0.00    +0.000 A 
ATOM      3  C   UNL     1      -0.523  10.345  20.565  0.00  0.00    +0.000 A 
ATOM      4  C   UNL     1      -0.607  10.380  19.174  0.00  0.00    +0.000 A 
ATOM      5  C   UNL     1       0.337   9.677  18.432  0.00  0.00    +0.000 A 
ATOM      6  C   UNL     1       1.288   8.925  19.113  0.00  0.00    +0.000 A 
ATOM      7  N   UNL     1       1.356   8.832  20.470  0.00  0.00    +0.000 NA
ENDROOT
BRANCH   6   8
ATOM      8  C   UNL     1       2.307   8.138  18.345  0.00  0.00    +0.000 C 
ATOM      9  O   UNL     1       2.631   8.511  17.225  0.00  0.00    +0.000 OA
ATOM     10  N   UNL     1       2.752   7.015  19.011  0.00  0.00    +0.000 N 
ATOM     11  C   UNL     1       3.671   6.166  18.463  0.00  0.00    +0.000 A 
ATOM     12  N   UNL     1       4.404   6.332  17.395  0.00  0.00    +0.000 NA
ATOM     13  C   UNL     1       5.196   5.205  17.165  0.00  0.00    +0.000 A 
ATOM     14  C   UNL     1       4.991   4.186  18.083  0.00  0.00    +0.000 A 
ATOM     15  S   UNL     1       3.874   4.688  19.289  0.00  0.00    +0.000 S 
ATOM     16  H   UNL     1       2.332   6.784  19.902  0.00  0.00    +0.000 HD
BRANCH  13  17
ATOM     17  C   UNL     1       6.154   5.158  16.011  0.00  0.00    +0.000 C 
ATOM     18  F   UNL     1       6.529   3.902  15.659  0.00  0.00    +0.000 F 
ATOM     19  F   UNL     1       5.614   5.728  14.898  0.00  0.00    +0.000 F 
ATOM     20  F   UNL     1       7.294   5.851  16.276  0.00  0.00    +0.000 F 
ENDBRANCH  13  17
ENDBRANCH   6   8
BRANCH   4  21
ATOM     21  O   UNL     1      -1.565  11.038  18.444  0.00  0.00    +0.000 OA
BRANCH  21  22
ATOM     22  C   UNL     1      -2.609  10.251  17.852  0.00  0.00    +0.000 C 
ATOM     23  C   UNL     1      -3.875  11.079  17.677  0.00  0.00    +0.000 C 
ATOM     24  O   UNL     1      -3.887  11.605  16.345  0.00  0.00    +0.000 OA
ATOM     25  C   UNL     1      -2.987  10.842  15.536  0.00  0.00    +0.000 C 
ATOM     26  C   UNL     1      -3.775  10.147  14.433  0.00  0.00    +0.000 C 
ATOM     27  C   UNL     1      -2.263   9.846  16.431  0.00  0.00    +0.000 C 
ENDBRANCH  21  22
ENDBRANCH   4  21
TORSDOF 4
ENDMDL
MODEL 4
REMARK VINA RESULT:      -7.9      5.954      8.075
REMARK  Name = 
REMARK  6 active torsions:
REMARK  status: ('A' for Active; 'I' for Inactive)
REMARK    1  A    between atoms: C_1  and  C_2
REMARK    2  A    between atoms: C_4  and  O_5
REMARK    3  A    between atoms: O_5  and  C_6
REMARK    4  A    between atoms: C_9  and  C_10
REMARK    5  A    between atoms: C_13  and  C_14
REMARK    6  A    between atoms: C_19  and  C_20
REMARK                            x       y       z     vdW  Elec       q    Type
REMARK                         _______ _______ _______ _____ _____    ______ ____
ROOT
ATOM      1  C   UNL     1       7.099   4.812  14.281  0.00  0.00    +0.000 C 
ATOM      2  C   UNL     1       6.618   5.393  15.579  0.00  0.00    +0.000 A 
ATOM      3  C   UNL     1       5.420   4.949  16.141  0.00  0.00    +0.000 A 
ATOM      4  C   UNL     1       4.974   5.517  17.332  0.00  0.00    +0.000 A 
ATOM      5  C   UNL     1       5.778   6.462  17.961  0.00  0.00    +0.000 A 
ATOM      6  C   UNL     1       6.964   6.839  17.341  0.00  0.00    +0.000 A 
ATOM      7  N   UNL     1       7.394   6.338  16.150  0.00  0.00    +0.000 NA
ENDROOT
BRANCH   6   8
ATOM      8  C   UNL     1       7.845   7.871  17.980  0.00  0.00    +0.000 C 
ATOM      9  O   UNL     1       8.582   7.542  18.899  0.00  0.00    +0.000 OA
ATOM     10  N   UNL     1       7.683   9.136  17.453  0.00  0.00    +0.000 N 
ATOM     11  C   UNL     1       8.389  10.208  17.916  0.00  0.00    +0.000 A 
ATOM     12  N   UNL     1       9.413  10.226  18.729  0.00  0.00    +0.000 NA
ATOM     13  C   UNL     1       9.822  11.538  18.973  0.00  0.00    +0.000 A 
ATOM     14  C   UNL     1       9.037  12.491  18.340  0.00  0.00    +0.000 A 
ATOM     15  S   UNL     1       7.848  11.727  17.361  0.00  0.00    +0.000 S 
ATOM     16  H   UNL     1       6.972   9.277  16.746  0.00  0.00    +0.000 HD
BRANCH  13  17
ATOM     17  C   UNL     1      11.001  11.828  19.854  0.00  0.00    +0.000 C 
ATOM     18  F   UNL     1      12.136  11.185  19.480  0.00  0.00    +0.000 F 
ATOM     19  F   UNL     1      11.294  13.158  19.866  0.00  0.00    +0.000 F 
ATOM     20  F   UNL     1      10.758  11.482  21.147  0.00  0.00    +0.000 F 
ENDBRANCH  13  17
ENDBRANCH   6   8
BRANCH   4  21
ATOM     21  O   UNL     1       3.780   5.245  17.955  0.00  0.00    +0.000 OA
BRANCH  21  22
ATOM     22  C   UNL     1       3.787   5.132  19.385  0.00  0.00    +0.000 C 
ATOM     23  C   UNL     1       2.622   5.903  19.992  0.00  0.00    +0.000 C 
ATOM     24  O   UNL     1       1.536   4.992  20.195  0.00  0.00    +0.000 OA
ATOM     25  C   UNL     1       2.044   3.655  20.185  0.00  0.00    +0.000 C 
ATOM     26  C   UNL     1       1.806   3.020  21.549  0.00  0.00    +0.000 C 
ATOM     27  C   UNL     1       3.524   3.706  19.832  0.00  0.00    +0.000 C 
ENDBRANCH  21  22
ENDBRANCH   4  21
TORSDOF 4
ENDMDL
MODEL 5
REMARK VINA RESULT:      -7.8      1.748      2.026
REMARK  Name = 
REMARK  6 active torsions:
REMARK  status: ('A' for Active; 'I' for Inactive)
REMARK    1  A    between atoms: C_1  and  C_2
REMARK    2  A    between atoms: C_4  and  O_5
REMARK    3  A    between atoms: O_5  and  C_6
REMARK    4  A    between atoms: C_9  and  C_10
REMARK    5  A    between atoms: C_13  and  C_14
REMARK    6  A    between atoms: C_19  and  C_20
REMARK                            x       y       z     vdW  Elec       q    Type
REMARK                         _______ _______ _______ _____ _____    ______ ____
ROOT
ATOM      1  C   UNL     1       1.358   2.029  19.246  0.00  0.00    +0.000 C 
ATOM      2  C   UNL     1       2.250   3.230  19.368  0.00  0.00    +0.000 A 
ATOM      3  C   UNL     1       3.612   3.120  19.081  0.00  0.00    +0.000 A 
ATOM      4  C   UNL     1       4.431   4.238  19.225  0.00  0.00    +0.000 A 
ATOM      5  C   UNL     1       3.847   5.450  19.582  0.00  0.00    +0.000 A 
ATOM      6  C   UNL     1       2.480   5.476  19.836  0.00  0.00    +0.000 A 
ATOM      7  N   UNL     1       1.669   4.384  19.756  0.00  0.00    +0.000 NA
ENDROOT
BRANCH   6   8
ATOM      8  C   UNL     1       1.821   6.759  20.244  0.00  0.00    +0.000 C 
ATOM      9  O   UNL     1       1.165   6.792  21.276  0.00  0.00    +0.000 OA
ATOM     10  N   UNL     1       2.013   7.788  19.345  0.00  0.00    +0.000 N 
ATOM     11  C   UNL     1       1.477   9.028  19.540  0.00  0.00    +0.000 A 
ATOM     12  N   UNL     1       0.904   9.514  20.609  0.00  0.00    +0.000 NA
ATOM     13  C   UNL     1       0.464  10.819  20.378  0.00  0.00    +0.000 A 
ATOM     14  C   UNL     1       0.701  11.264  19.086  0.00  0.00    +0.000 A 
ATOM     15  S   UNL     1       1.564  10.074  18.195  0.00  0.00    +0.000 S 
ATOM     16  H   UNL     1       2.513   7.592  18.487  0.00  0.00    +0.000 HD
BRANCH  13  17
ATOM     17  C   UNL     1      -0.203  11.612  21.464  0.00  0.00    +0.000 C 
ATOM     18  F   UNL     1      -0.228  10.983  22.666  0.00  0.00    +0.000 F 
ATOM     19  F   UNL     1       0.425  12.804  21.662  0.00  0.00    +0.000 F 
ATOM     20  F   UNL     1      -1.492  11.911  21.147  0.00  0.00    +0.000 F 
ENDBRANCH  13  17
ENDBRANCH   6   8
BRANCH   4  21
ATOM     21  O   UNL     1       5.794   4.261  19.064  0.00  0.00    +0.000 OA
BRANCH  21  22
ATOM     22  C   UNL     1       6.340   5.221  18.147  0.00  0.00    +0.000 C 
ATOM     23  C   UNL     1       7.821   4.957  17.910  0.00  0.00    +0.000 C 
ATOM     24  O   UNL     1       7.952   4.159  16.729  0.00  0.00    +0.000 OA
ATOM     25  C   UNL     1       6.747   4.260  15.964  0.00  0.00    +0.000 C 
ATOM     26  C   UNL     1       7.062   4.905  14.620  0.00  0.00    +0.000 C 
ATOM     27  C   UNL     1       5.738   5.074  16.763  0.00  0.00    +0.000 C 
ENDBRANCH  21  22
ENDBRANCH   4  21
TORSDOF 4
ENDMDL
MODEL 6
REMARK VINA RESULT:      -7.7      1.293      1.669
REMARK  Name = 
REMARK  6 active torsions:
REMARK  status: ('A' for Active; 'I' for Inactive)
REMARK    1  A    between atoms: C_1  and  C_2
REMARK    2  A    between atoms: C_4  and  O_5
REMARK    3  A    between atoms: O_5  and  C_6
REMARK    4  A    between atoms: C_9  and  C_10
REMARK    5  A    between atoms: C_13  and  C_14
REMARK    6  A    between atoms: C_19  and  C_20
REMARK                            x       y       z     vdW  Elec       q    Type
REMARK                         _______ _______ _______ _____ _____    ______ ____
ROOT
ATOM      1  C   UNL     1       2.876   2.792  20.984  0.00  0.00    +0.000 C 
ATOM      2  C   UNL     1       3.208   3.742  19.869  0.00  0.00    +0.000 A 
ATOM      3  C   UNL     1       4.037   3.330  18.825  0.00  0.00    +0.000 A 
ATOM      4  C   UNL     1       4.356   4.231  17.812  0.00  0.00    +0.000 A 
ATOM      5  C   UNL     1       3.776   5.496  17.839  0.00  0.00    +0.000 A 
ATOM      6  C   UNL     1       2.950   5.822  18.909  0.00  0.00    +0.000 A 
ATOM      7  N   UNL     1       2.667   4.976  19.939  0.00  0.00    +0.000 NA
ENDROOT
BRANCH   6   8
ATOM      8  C   UNL     1       2.326   7.183  18.982  0.00  0.00    +0.000 C 
ATOM      9  O   UNL     1       2.274   7.872  17.972  0.00  0.00    +0.000 OA
ATOM     10  N   UNL     1       1.898   7.526  20.248  0.00  0.00    +0.000 N 
ATOM     11  C   UNL     1       1.317   8.732  20.514  0.00  0.00    +0.000 A 
ATOM     12  N   UNL     1       0.896   9.641  19.674  0.00  0.00    +0.000 NA
ATOM     13  C   UNL     1       0.391  10.746  20.362  0.00  0.00    +0.000 A 
ATOM     14  C   UNL     1       0.491  10.635  21.740  0.00  0.00    +0.000 A 
ATOM     15  S   UNL     1       1.130   9.098  22.169  0.00  0.00    +0.000 S 
ATOM     16  H   UNL     1       2.082   6.885  21.010  0.00  0.00    +0.000 HD
BRANCH  13  17
ATOM     17  C   UNL     1      -0.185  11.918  19.622  0.00  0.00    +0.000 C 
ATOM     18  F   UNL     1      -1.539  11.906  19.543  0.00  0.00    +0.000 F 
ATOM     19  F   UNL     1       0.160  13.095  20.216  0.00  0.00    +0.000 F 
ATOM     20  F   UNL     1       0.285  11.986  18.347  0.00  0.00    +0.000 F 
ENDBRANCH  13  17
ENDBRANCH   6   8
BRANCH   4  21
ATOM     21  O   UNL     1       5.222   3.998  16.772  0.00  0.00    +0.000 OA
BRANCH  21  22
ATOM     22  C   UNL     1       5.377   5.034  15.790  0.00  0.00    +0.000 C 
ATOM     23  C   UNL     1       6.629   5.856  16.067  0.00  0.00    +0.000 C 
ATOM     24  O   UNL     1       7.700   5.322  15.279  0.00  0.00    +0.000 OA
ATOM     25  C   UNL     1       7.149   4.536  14.219  0.00  0.00    +0.000 C 
ATOM     26  C   UNL     1       7.521   5.166  12.884  0.00  0.00    +0.000 C 
ATOM     27  C   UNL     1       5.641   4.458  14.412  0.00  0.00    +0.000 C 
ENDBRANCH  21  22
ENDBRANCH   4  21
TORSDOF 4
ENDMDL
MODEL 7
REMARK VINA RESULT:      -7.6      1.023      1.701
REMARK  Name = 
REMARK  6 active torsions:
REMARK  status: ('A' for Active; 'I' for Inactive)
REMARK    1  A    between atoms: C_1  and  C_2
REMARK    2  A    between atoms: C_4  and  O_5
REMARK    3  A    between atoms: O_5  and  C_6
REMARK    4  A    between atoms: C_9  and  C_10
REMARK    5  A    between atoms: C_13  and  C_14
REMARK    6  A    between atoms: C_19  and  C_20
REMARK                            x       y       z     vdW  Elec       q    Type
REMARK                         _______ _______ _______ _____ _____    ______ ____
ROOT
ATOM      1  C   UNL     1       2.246   3.169  21.529  0.00  0.00    +0.000 C 
ATOM      2  C   UNL     1       2.704   4.119  20.461  0.00  0.00    +0.000 A 
ATOM      3  C   UNL     1       3.610   3.692  19.489  0.00  0.00    +0.000 A 
ATOM      4  C   UNL     1       4.044   4.594  18.520  0.00  0.00    +0.000 A 
ATOM      5  C   UNL     1       3.503   5.876  18.513  0.00  0.00    +0.000 A 
ATOM      6  C   UNL     1       2.595   6.216  19.509  0.00  0.00    +0.000 A 
ATOM      7  N   UNL     1       2.197   5.369  20.498  0.00  0.00    +0.000 NA
ENDROOT
BRANCH   6   8
ATOM      8  C   UNL     1       2.008   7.595  19.545  0.00  0.00    +0.000 C 
ATOM      9  O   UNL     1       2.181   8.343  18.592  0.00  0.00    +0.000 OA
ATOM     10  N   UNL     1       1.344   7.881  20.720  0.00  0.00    +0.000 N 
ATOM     11  C   UNL     1       0.756   9.093  20.942  0.00  0.00    +0.000 A 
ATOM     12  N   UNL     1       0.539  10.065  20.096  0.00  0.00    +0.000 NA
ATOM     13  C   UNL     1      -0.063  11.149  20.739  0.00  0.00    +0.000 A 
ATOM     14  C   UNL     1      -0.246  10.954  22.100  0.00  0.00    +0.000 A 
ATOM     15  S   UNL     1       0.249   9.370  22.546  0.00  0.00    +0.000 S 
ATOM     16  H   UNL     1       1.352   7.191  21.459  0.00  0.00    +0.000 HD
BRANCH  13  17
ATOM     17  C   UNL     1      -0.444  12.384  19.977  0.00  0.00    +0.000 C 
ATOM     18  F   UNL     1      -1.582  12.253  19.251  0.00  0.00    +0.000 F 
ATOM     19  F   UNL     1      -0.637  13.441  20.815  0.00  0.00    +0.000 F 
ATOM     20  F   UNL     1       0.536  12.762  19.112  0.00  0.00    +0.000 F 
ENDBRANCH  13  17
ENDBRANCH   6   8
BRANCH   4  21
ATOM     21  O   UNL     1       4.993   4.346  17.558  0.00  0.00    +0.000 OA
BRANCH  21  22
ATOM     22  C   UNL     1       6.362   4.625  17.886  0.00  0.00    +0.000 C 
ATOM     23  C   UNL     1       7.194   4.795  16.621  0.00  0.00    +0.000 C 
ATOM     24  O   UNL     1       7.265   6.192  16.315  0.00  0.00    +0.000 OA
ATOM     25  C   UNL     1       6.934   6.942  17.487  0.00  0.00    +0.000 C 
ATOM     26  C   UNL     1       8.142   7.770  17.907  0.00  0.00    +0.000 C 
ATOM     27  C   UNL     1       6.506   5.968  18.576  0.00  0.00    +0.000 C 
ENDBRANCH  21  22
ENDBRANCH   4  21
TORSDOF 4
ENDMDL
MODEL 8
REMARK VINA RESULT:      -7.5      1.684      2.285
REMARK  Name = 
REMARK  6 active torsions:
REMARK  status: ('A' for Active; 'I' for Inactive)
REMARK    1  A    between atoms: C_1  and  C_2
REMARK    2  A    between atoms: C_4  and  O_5
REMARK    3  A    between atoms: O_5  and  C_6
REMARK    4  A    between atoms: C_9  and  C_10
REMARK    5  A    between atoms: C_13  and  C_14
REMARK    6  A    between atoms: C_19  and  C_20
REMARK                            x       y       z     vdW  Elec       q    Type
REMARK                         _______ _______ _______ _____ _____    ______ ____
ROOT
ATOM      1  C   UNL     1       1.401   3.720  20.312  0.00  0.00    +0.000 C 
ATOM      2  C   UNL     1       2.157   4.587  19.347  0.00  0.00    +0.000 A 
ATOM      3  C   UNL     1       3.125   4.024  18.514  0.00  0.00    +0.000 A 
ATOM      4  C   UNL     1       3.836   4.847  17.643  0.00  0.00    +0.000 A 
ATOM      5  C   UNL     1       3.505   6.197  17.583  0.00  0.00    +0.000 A 
ATOM      6  C   UNL     1       2.518   6.675  18.438  0.00  0.00    +0.000 A 
ATOM      7  N   UNL     1       1.847   5.900  19.336  0.00  0.00    +0.000 NA
ENDROOT
BRANCH   6   8
ATOM      8  C   UNL     1       2.150   8.128  18.416  0.00  0.00    +0.000 C 
ATOM      9  O   UNL     1       2.458   8.808  17.445  0.00  0.00    +0.000 OA
ATOM     10  N   UNL     1       1.512   8.552  19.562  0.00  0.00    +0.000 N 
ATOM     11  C   UNL     1       1.113   9.847  19.731  0.00  0.00    +0.000 A 
ATOM     12  N   UNL     1       1.068  10.812  18.851  0.00  0.00    +0.000 NA
ATOM     13  C   UNL     1       0.626  11.996  19.444  0.00  0.00    +0.000 A 
ATOM     14  C   UNL     1       0.384  11.878  20.805  0.00  0.00    +0.000 A 
ATOM     15  S   UNL     1       0.618  10.252  21.312  0.00  0.00    +0.000 S 
ATOM     16  H   UNL     1       1.396   7.894  20.322  0.00  0.00    +0.000 HD
BRANCH  13  17
ATOM     17  C   UNL     1       0.458  13.249  18.635  0.00  0.00    +0.000 C 
ATOM     18  F   UNL     1      -0.674  13.273  17.889  0.00  0.00    +0.000 F 
ATOM     19  F   UNL     1       0.421  14.351  19.434  0.00  0.00    +0.000 F 
ATOM     20  F   UNL     1       1.500  13.437  17.780  0.00  0.00    +0.000 F 
ENDBRANCH  13  17
ENDBRANCH   6   8
BRANCH   4  21
ATOM     21  O   UNL     1       4.871   4.454  16.831  0.00  0.00    +0.000 OA
BRANCH  21  22
ATOM     22  C   UNL     1       6.198   4.499  17.376  0.00  0.00    +0.000 C 
ATOM     23  C   UNL     1       7.211   4.854  16.295  0.00  0.00    +0.000 C 
ATOM     24  O   UNL     1       7.438   6.267  16.340  0.00  0.00    +0.000 OA
ATOM     25  C   UNL     1       7.006   6.768  17.608  0.00  0.00    +0.000 C 
ATOM     26  C   UNL     1       8.205   7.341  18.353  0.00  0.00    +0.000 C 
ATOM     27  C   UNL     1       6.351   5.628  18.377  0.00  0.00    +0.000 C 
ENDBRANCH  21  22
ENDBRANCH   4  21
TORSDOF 4
ENDMDL
MODEL 9
REMARK VINA RESULT:      -7.5      1.906      3.872
REMARK  Name = 
REMARK  6 active torsions:
REMARK  status: ('A' for Active; 'I' for Inactive)
REMARK    1  A    between atoms: C_1  and  C_2
REMARK    2  A    between atoms: C_4  and  O_5
REMARK    3  A    between atoms: O_5  and  C_6
REMARK    4  A    between atoms: C_9  and  C_10
REMARK    5  A    between atoms: C_13  and  C_14
REMARK    6  A    between atoms: C_19  and  C_20
REMARK                            x       y       z     vdW  Elec       q    Type
REMARK                         _______ _______ _______ _____ _____    ______ ____
ROOT
ATOM      1  C   UNL     1       6.825   6.396  17.033  0.00  0.00    +0.000 C 
ATOM      2  C   UNL     1       5.382   6.091  17.309  0.00  0.00    +0.000 A 
ATOM      3  C   UNL     1       4.927   4.771  17.271  0.00  0.00    +0.000 A 
ATOM      4  C   UNL     1       3.579   4.508  17.504  0.00  0.00    +0.000 A 
ATOM      5  C   UNL     1       2.742   5.567  17.838  0.00  0.00    +0.000 A 
ATOM      6  C   UNL     1       3.277   6.850  17.869  0.00  0.00    +0.000 A 
ATOM      7  N   UNL     1       4.579   7.139  17.591  0.00  0.00    +0.000 NA
ENDROOT
BRANCH   6   8
ATOM      8  C   UNL     1       2.399   8.018  18.204  0.00  0.00    +0.000 C 
ATOM      9  O   UNL     1       2.155   8.850  17.340  0.00  0.00    +0.000 OA
ATOM     10  N   UNL     1       1.982   8.034  19.519  0.00  0.00    +0.000 N 
ATOM     11  C   UNL     1       1.187   9.028  20.014  0.00  0.00    +0.000 A 
ATOM     12  N   UNL     1       0.548   9.964  19.364  0.00  0.00    +0.000 NA
ATOM     13  C   UNL     1      -0.129  10.802  20.254  0.00  0.00    +0.000 A 
ATOM     14  C   UNL     1       0.067  10.470  21.586  0.00  0.00    +0.000 A 
ATOM     15  S   UNL     1       1.022   9.047  21.711  0.00  0.00    +0.000 S 
ATOM     16  H   UNL     1       2.332   7.320  20.145  0.00  0.00    +0.000 HD
BRANCH  13  17
ATOM     17  C   UNL     1      -0.967  11.942  19.754  0.00  0.00    +0.000 C 
ATOM     18  F   UNL     1      -0.302  12.794  18.934  0.00  0.00    +0.000 F 
ATOM     19  F   UNL     1      -2.046  11.492  19.054  0.00  0.00    +0.000 F 
ATOM     20  F   UNL     1      -1.464  12.686  20.779  0.00  0.00    +0.000 F 
ENDBRANCH  13  17
ENDBRANCH   6   8
BRANCH   4  21
ATOM     21  O   UNL     1       2.974   3.278  17.415  0.00  0.00    +0.000 OA
BRANCH  21  22
ATOM     22  C   UNL     1       3.061   2.410  18.554  0.00  0.00    +0.000 C 
ATOM     23  C   UNL     1       3.950   3.020  19.630  0.00  0.00    +0.000 C 
ATOM     24  O   UNL     1       3.114   3.714  20.563  0.00  0.00    +0.000 OA
ATOM     25  C   UNL     1       1.772   3.240  20.427  0.00  0.00    +0.000 C 
ATOM     26  C   UNL     1       1.342   2.577  21.729  0.00  0.00    +0.000 C 
ATOM     27  C   UNL     1       1.721   2.272  19.252  0.00  0.00    +0.000 C 
ENDBRANCH  21  22
ENDBRANCH   4  21
TORSDOF 4
ENDMDL
