MODEL 1
REMARK VINA RESULT:      -8.1      0.000      0.000
REMARK  Name = 
REMARK  9 active torsions:
REMARK  status: ('A' for Active; 'I' for Inactive)
REMARK    1  A    between atoms: C_1  and  C_2
REMARK    2  A    between atoms: C_2  and  C_3
REMARK    3  A    between atoms: C_2  and  S_4
REMARK    4  A    between atoms: S_4  and  C_5
REMARK    5  A    between atoms: N_9  and  C_10
REMARK    6  A    between atoms: C_10  and  C_11
REMARK    7  A    between atoms: C_11  and  C_12
REMARK    8  A    between atoms: C_28  and  C_29
REMARK    9  A    between atoms: C_28  and  C_30
REMARK                            x       y       z     vdW  Elec       q    Type
REMARK                         _______ _______ _______ _____ _____    ______ ____
ROOT
ATOM      1  C   UNL     1      -3.587  11.694  18.369  0.00  0.00    +0.000 A 
ATOM      2  N   UNL     1      -2.585  11.359  17.590  0.00  0.00    +0.000 NA
ATOM      3  N   UNL     1      -1.465  11.353  18.289  0.00  0.00    +0.000 NA
ATOM      4  C   UNL     1      -1.724  11.825  19.459  0.00  0.00    +0.000 A 
ATOM      5  N   UNL     1      -0.726  11.940  20.402  0.00  0.00    +0.000 N 
ATOM      6  C   UNL     1      -0.884  12.664  21.535  0.00  0.00    +0.000 A 
ATOM      7  O   UNL     1       0.051  12.851  22.312  0.00  0.00    +0.000 OA
ATOM      8  C   UNL     1      -2.200  13.176  21.801  0.00  0.00    +0.000 A 
ATOM      9  C   UNL     1      -2.446  14.001  22.968  0.00  0.00    +0.000 A 
ATOM     10  C   UNL     1      -3.765  14.356  23.042  0.00  0.00    +0.000 A 
ATOM     11  S   UNL     1      -4.664  13.702  21.639  0.00  0.00    +0.000 S 
ATOM     12  C   UNL     1      -3.294  12.939  20.939  0.00  0.00    +0.000 A 
ATOM     13  N   UNL     1      -3.066  12.223  19.653  0.00  0.00    +0.000 N 
ATOM     14  C   UNL     1      -4.276  15.262  24.171  0.00  0.00    +0.000 C 
ATOM     15  O   UNL     1      -3.298  15.381  25.270  0.00  0.00    +0.000 OA
ATOM     16  C   UNL     1      -1.926  15.643  24.905  0.00  0.00    +0.000 C 
ATOM     17  C   UNL     1      -1.763  16.999  24.200  0.00  0.00    +0.000 C 
ATOM     18  C   UNL     1      -1.058  15.777  26.197  0.00  0.00    +0.000 C 
ATOM     19  C   UNL     1      -1.435  14.450  24.044  0.00  0.00    +0.000 C 
ENDROOT
BRANCH   1  20
ATOM     20  S   UNL     1      -5.101  11.184  17.619  0.00  0.00    +0.000 S 
BRANCH  20  22
ATOM     21  C   UNL     1      -7.468  11.872  19.514  0.00  0.00    +0.000 C 
ATOM     22  C   UNL     1      -6.423  10.782  19.195  0.00  0.00    +0.000 C 
ATOM     23  C   UNL     1      -7.140   9.412  19.414  0.00  0.00    +0.000 C 
ENDBRANCH  20  22
ENDBRANCH   1  20
BRANCH   5  24
ATOM     24  C   UNL     1       0.555  11.315  20.178  0.00  0.00    +0.000 C 
BRANCH  24  25
ATOM     25  C   UNL     1       0.604   9.948  20.862  0.00  0.00    +0.000 C 
BRANCH  25  26
ATOM     26  C   UNL     1       1.248   8.987  19.921  0.00  0.00    +0.000 A 
ATOM     27  C   UNL     1       1.720   7.762  20.406  0.00  0.00    +0.000 A 
ATOM     28  C   UNL     1       2.423   6.919  19.556  0.00  0.00    +0.000 A 
ATOM     29  C   UNL     1       2.650   7.293  18.230  0.00  0.00    +0.000 A 
ATOM     30  C   UNL     1       2.180   8.516  17.751  0.00  0.00    +0.000 A 
ATOM     31  C   UNL     1       1.485   9.369  18.597  0.00  0.00    +0.000 A 
ENDBRANCH  25  26
ENDBRANCH  24  25
ENDBRANCH   5  24
TORSDOF 5
ENDMDL
MODEL 2
REMARK VINA RESULT:      -8.1      0.598      1.060
REMARK  Name = 
REMARK  9 active torsions:
REMARK  status: ('A' for Active; 'I' for Inactive)
REMARK    1  A    between atoms: C_1  and  C_2
REMARK    2  A    between atoms: C_2  and  C_3
REMARK    3  A    between atoms: C_2  and  S_4
REMARK    4  A    between atoms: S_4  and  C_5
REMARK    5  A    between atoms: N_9  and  C_10
REMARK    6  A    between atoms: C_10  and  C_11
REMARK    7  A    between atoms: C_11  and  C_12
REMARK    8  A    between atoms: C_28  and  C_29
REMARK    9  A    between atoms: C_28  and  C_30
REMARK                            x       y       z     vdW  Elec       q    Type
REMARK                         _______ _______ _______ _____ _____    ______ ____
ROOT
ATOM      1  C   UNL     1      -3.120  11.563  17.946  0.00  0.00    +0.000 A 
ATOM      2  N   UNL     1      -2.039  11.179  17.307  0.00  0.00    +0.000 NA
ATOM      3  N   UNL     1      -1.024  11.123  18.149  0.00  0.00    +0.000 NA
ATOM      4  C   UNL     1      -1.415  11.610  19.276  0.00  0.00    +0.000 A 
ATOM      5  N   UNL     1      -0.548  11.681  20.344  0.00  0.00    +0.000 N 
ATOM      6  C   UNL     1      -0.821  12.415  21.447  0.00  0.00    +0.000 A 
ATOM      7  O   UNL     1       0.009  12.561  22.344  0.00  0.00    +0.000 OA
ATOM      8  C   UNL     1      -2.136  12.990  21.536  0.00  0.00    +0.000 A 
ATOM      9  C   UNL     1      -2.496  13.829  22.663  0.00  0.00    +0.000 A 
ATOM     10  C   UNL     1      -3.795  14.247  22.560  0.00  0.00    +0.000 A 
ATOM     11  S   UNL     1      -4.528  13.631  21.049  0.00  0.00    +0.000 S 
ATOM     12  C   UNL     1      -3.114  12.802  20.535  0.00  0.00    +0.000 A 
ATOM     13  N   UNL     1      -2.750  12.071  19.289  0.00  0.00    +0.000 N 
ATOM     14  C   UNL     1      -4.409  15.179  23.614  0.00  0.00    +0.000 C 
ATOM     15  O   UNL     1      -3.583  15.256  24.834  0.00  0.00    +0.000 OA
ATOM     16  C   UNL     1      -2.163  15.451  24.657  0.00  0.00    +0.000 C 
ATOM     17  C   UNL     1      -1.844  16.796  23.984  0.00  0.00    +0.000 C 
ATOM     18  C   UNL     1      -1.470  15.549  26.054  0.00  0.00    +0.000 C 
ATOM     19  C   UNL     1      -1.619  14.233  23.866  0.00  0.00    +0.000 C 
ENDROOT
BRANCH   1  20
ATOM     20  S   UNL     1      -4.542  11.122  16.999  0.00  0.00    +0.000 S 
BRANCH  20  22
ATOM     21  C   UNL     1      -7.244  12.431  17.804  0.00  0.00    +0.000 C 
ATOM     22  C   UNL     1      -6.190  11.402  18.262  0.00  0.00    +0.000 C 
ATOM     23  C   UNL     1      -6.981  10.241  18.945  0.00  0.00    +0.000 C 
ENDBRANCH  20  22
ENDBRANCH   1  20
BRANCH   5  24
ATOM     24  C   UNL     1       0.721  10.995  20.291  0.00  0.00    +0.000 C 
BRANCH  24  25
ATOM     25  C   UNL     1       0.561   9.549  20.762  0.00  0.00    +0.000 C 
BRANCH  25  26
ATOM     26  C   UNL     1       1.415   8.687  19.895  0.00  0.00    +0.000 A 
ATOM     27  C   UNL     1       1.700   9.095  18.588  0.00  0.00    +0.000 A 
ATOM     28  C   UNL     1       2.396   8.240  17.744  0.00  0.00    +0.000 A 
ATOM     29  C   UNL     1       2.809   6.987  18.203  0.00  0.00    +0.000 A 
ATOM     30  C   UNL     1       2.521   6.584  19.507  0.00  0.00    +0.000 A 
ATOM     31  C   UNL     1       1.818   7.429  20.354  0.00  0.00    +0.000 A 
ENDBRANCH  25  26
ENDBRANCH  24  25
ENDBRANCH   5  24
TORSDOF 5
ENDMDL
MODEL 3
REMARK VINA RESULT:      -7.8      4.660      8.084
REMARK  Name = 
REMARK  9 active torsions:
REMARK  status: ('A' for Active; 'I' for Inactive)
REMARK    1  A    between atoms: C_1  and  C_2
REMARK    2  A    between atoms: C_2  and  C_3
REMARK    3  A    between atoms: C_2  and  S_4
REMARK    4  A    between atoms: S_4  and  C_5
REMARK    5  A    between atoms: N_9  and  C_10
REMARK    6  A    between atoms: C_10  and  C_11
REMARK    7  A    between atoms: C_11  and  C_12
REMARK    8  A    between atoms: C_28  and  C_29
REMARK    9  A    between atoms: C_28  and  C_30
REMARK                            x       y       z     vdW  Elec       q    Type
REMARK                         _______ _______ _______ _____ _____    ______ ____
ROOT
ATOM      1  C   UNL     1       4.298   6.791  17.533  0.00  0.00    +0.000 A 
ATOM      2  N   UNL     1       4.812   5.816  18.246  0.00  0.00    +0.000 NA
ATOM      3  N   UNL     1       4.030   5.564  19.279  0.00  0.00    +0.000 NA
ATOM      4  C   UNL     1       3.110   6.465  19.310  0.00  0.00    +0.000 A 
ATOM      5  N   UNL     1       2.150   6.449  20.298  0.00  0.00    +0.000 N 
ATOM      6  C   UNL     1       1.336   7.505  20.529  0.00  0.00    +0.000 A 
ATOM      7  O   UNL     1       0.562   7.521  21.486  0.00  0.00    +0.000 OA
ATOM      8  C   UNL     1       1.396   8.590  19.590  0.00  0.00    +0.000 A 
ATOM      9  C   UNL     1       0.591   9.780  19.789  0.00  0.00    +0.000 A 
ATOM     10  C   UNL     1       0.782  10.671  18.768  0.00  0.00    +0.000 A 
ATOM     11  S   UNL     1       1.989  10.038  17.609  0.00  0.00    +0.000 S 
ATOM     12  C   UNL     1       2.251   8.573  18.466  0.00  0.00    +0.000 A 
ATOM     13  N   UNL     1       3.204   7.441  18.293  0.00  0.00    +0.000 N 
ATOM     14  C   UNL     1       0.068  12.031  18.764  0.00  0.00    +0.000 C 
ATOM     15  O   UNL     1      -1.034  12.079  19.743  0.00  0.00    +0.000 OA
ATOM     16  C   UNL     1      -0.759  11.583  21.071  0.00  0.00    +0.000 C 
ATOM     17  C   UNL     1       0.323  12.411  21.784  0.00  0.00    +0.000 C 
ATOM     18  C   UNL     1      -2.026  11.758  21.968  0.00  0.00    +0.000 C 
ATOM     19  C   UNL     1      -0.388  10.083  20.942  0.00  0.00    +0.000 C 
ENDROOT
BRANCH   1  20
ATOM     20  S   UNL     1       5.007   6.763  15.917  0.00  0.00    +0.000 S 
BRANCH  20  22
ATOM     21  C   UNL     1       5.648   4.237  14.221  0.00  0.00    +0.000 C 
ATOM     22  C   UNL     1       5.755   4.825  15.644  0.00  0.00    +0.000 C 
ATOM     23  C   UNL     1       7.112   4.317  16.226  0.00  0.00    +0.000 C 
ENDBRANCH  20  22
ENDBRANCH   1  20
BRANCH   5  24
ATOM     24  C   UNL     1       2.018   5.298  21.159  0.00  0.00    +0.000 C 
BRANCH  24  25
ATOM     25  C   UNL     1       1.040   4.292  20.550  0.00  0.00    +0.000 C 
BRANCH  25  26
ATOM     26  C   UNL     1       1.817   3.366  19.678  0.00  0.00    +0.000 A 
ATOM     27  C   UNL     1       2.878   2.635  20.225  0.00  0.00    +0.000 A 
ATOM     28  C   UNL     1       3.675   1.863  19.390  0.00  0.00    +0.000 A 
ATOM     29  C   UNL     1       3.412   1.816  18.019  0.00  0.00    +0.000 A 
ATOM     30  C   UNL     1       2.355   2.548  17.478  0.00  0.00    +0.000 A 
ATOM     31  C   UNL     1       1.560   3.330  18.305  0.00  0.00    +0.000 A 
ENDBRANCH  25  26
ENDBRANCH  24  25
ENDBRANCH   5  24
TORSDOF 5
ENDMDL
MODEL 4
REMARK VINA RESULT:      -7.6      0.989      1.519
REMARK  Name = 
REMARK  9 active torsions:
REMARK  status: ('A' for Active; 'I' for Inactive)
REMARK    1  A    between atoms: C_1  and  C_2
REMARK    2  A    between atoms: C_2  and  C_3
REMARK    3  A    between atoms: C_2  and  S_4
REMARK    4  A    between atoms: S_4  and  C_5
REMARK    5  A    between atoms: N_9  and  C_10
REMARK    6  A    between atoms: C_10  and  C_11
REMARK    7  A    between atoms: C_11  and  C_12
REMARK    8  A    between atoms: C_28  and  C_29
REMARK    9  A    between atoms: C_28  and  C_30
REMARK                            x       y       z     vdW  Elec       q    Type
REMARK                         _______ _______ _______ _____ _____    ______ ____
ROOT
ATOM      1  C   UNL     1      -4.401  11.755  18.578  0.00  0.00    +0.000 A 
ATOM      2  N   UNL     1      -3.490  11.408  17.699  0.00  0.00    +0.000 NA
ATOM      3  N   UNL     1      -2.298  11.423  18.267  0.00  0.00    +0.000 NA
ATOM      4  C   UNL     1      -2.429  11.918  19.450  0.00  0.00    +0.000 A 
ATOM      5  N   UNL     1      -1.333  12.059  20.272  0.00  0.00    +0.000 N 
ATOM      6  C   UNL     1      -1.368  12.805  21.400  0.00  0.00    +0.000 A 
ATOM      7  O   UNL     1      -0.353  13.014  22.064  0.00  0.00    +0.000 OA
ATOM      8  C   UNL     1      -2.650  13.317  21.801  0.00  0.00    +0.000 A 
ATOM      9  C   UNL     1      -2.770  14.165  22.971  0.00  0.00    +0.000 A 
ATOM     10  C   UNL     1      -4.075  14.516  23.185  0.00  0.00    +0.000 A 
ATOM     11  S   UNL     1      -5.120  13.827  21.906  0.00  0.00    +0.000 S 
ATOM     12  C   UNL     1      -3.831  13.056  21.072  0.00  0.00    +0.000 A 
ATOM     13  N   UNL     1      -3.744  12.313  19.784  0.00  0.00    +0.000 N 
ATOM     14  C   UNL     1      -4.463  15.443  24.345  0.00  0.00    +0.000 C 
ATOM     15  O   UNL     1      -3.369  15.590  25.325  0.00  0.00    +0.000 OA
ATOM     16  C   UNL     1      -2.048  15.851  24.803  0.00  0.00    +0.000 C 
ATOM     17  C   UNL     1      -1.975  17.193  24.057  0.00  0.00    +0.000 C 
ATOM     18  C   UNL     1      -1.042  16.018  25.987  0.00  0.00    +0.000 C 
ATOM     19  C   UNL     1      -1.648  14.642  23.918  0.00  0.00    +0.000 C 
ENDROOT
BRANCH   1  20
ATOM     20  S   UNL     1      -5.986  11.221  18.013  0.00  0.00    +0.000 S 
BRANCH  20  22
ATOM     21  C   UNL     1      -7.680  13.611  19.054  0.00  0.00    +0.000 C 
ATOM     22  C   UNL     1      -7.130  12.959  17.768  0.00  0.00    +0.000 C 
ATOM     23  C   UNL     1      -6.751  14.134  16.811  0.00  0.00    +0.000 C 
ENDBRANCH  20  22
ENDBRANCH   1  20
BRANCH   5  24
ATOM     24  C   UNL     1      -0.080  11.435  19.919  0.00  0.00    +0.000 C 
BRANCH  24  25
ATOM     25  C   UNL     1       0.061  10.089  20.630  0.00  0.00    +0.000 C 
BRANCH  25  26
ATOM     26  C   UNL     1       1.002   9.247  19.838  0.00  0.00    +0.000 A 
ATOM     27  C   UNL     1       1.237   9.557  18.494  0.00  0.00    +0.000 A 
ATOM     28  C   UNL     1       2.021   8.707  17.726  0.00  0.00    +0.000 A 
ATOM     29  C   UNL     1       2.572   7.557  18.296  0.00  0.00    +0.000 A 
ATOM     30  C   UNL     1       2.333   7.250  19.636  0.00  0.00    +0.000 A 
ATOM     31  C   UNL     1       1.542   8.090  20.408  0.00  0.00    +0.000 A 
ENDBRANCH  25  26
ENDBRANCH  24  25
ENDBRANCH   5  24
TORSDOF 5
ENDMDL
MODEL 5
REMARK VINA RESULT:      -7.3      3.275      4.748
REMARK  Name = 
REMARK  9 active torsions:
REMARK  status: ('A' for Active; 'I' for Inactive)
REMARK    1  A    between atoms: C_1  and  C_2
REMARK    2  A    between atoms: C_2  and  C_3
REMARK    3  A    between atoms: C_2  and  S_4
REMARK    4  A    between atoms: S_4  and  C_5
REMARK    5  A    between atoms: N_9  and  C_10
REMARK    6  A    between atoms: C_10  and  C_11
REMARK    7  A    between atoms: C_11  and  C_12
REMARK    8  A    between atoms: C_28  and  C_29
REMARK    9  A    between atoms: C_28  and  C_30
REMARK                            x       y       z     vdW  Elec       q    Type
REMARK                         _______ _______ _______ _____ _____    ______ ____
ROOT
ATOM      1  C   UNL     1      -2.982  12.149  19.276  0.00  0.00    +0.000 A 
ATOM      2  N   UNL     1      -3.077  11.016  18.621  0.00  0.00    +0.000 NA
ATOM      3  N   UNL     1      -1.869  10.555  18.355  0.00  0.00    +0.000 NA
ATOM      4  C   UNL     1      -1.016  11.456  18.702  0.00  0.00    +0.000 A 
ATOM      5  N   UNL     1       0.334  11.242  18.529  0.00  0.00    +0.000 N 
ATOM      6  C   UNL     1       1.241  12.242  18.625  0.00  0.00    +0.000 A 
ATOM      7  O   UNL     1       2.429  12.060  18.357  0.00  0.00    +0.000 OA
ATOM      8  C   UNL     1       0.758  13.516  19.083  0.00  0.00    +0.000 A 
ATOM      9  C   UNL     1       1.654  14.653  19.170  0.00  0.00    +0.000 A 
ATOM     10  C   UNL     1       0.996  15.752  19.652  0.00  0.00    +0.000 A 
ATOM     11  S   UNL     1      -0.727  15.367  19.941  0.00  0.00    +0.000 S 
ATOM     12  C   UNL     1      -0.593  13.733  19.431  0.00  0.00    +0.000 A 
ATOM     13  N   UNL     1      -1.584  12.641  19.221  0.00  0.00    +0.000 N 
ATOM     14  C   UNL     1       1.718  17.099  19.805  0.00  0.00    +0.000 C 
ATOM     15  O   UNL     1       3.183  16.955  19.712  0.00  0.00    +0.000 OA
ATOM     16  C   UNL     1       3.699  16.150  18.629  0.00  0.00    +0.000 C 
ATOM     17  C   UNL     1       3.361  16.747  17.253  0.00  0.00    +0.000 C 
ATOM     18  C   UNL     1       5.261  16.154  18.674  0.00  0.00    +0.000 C 
ATOM     19  C   UNL     1       3.155  14.710  18.816  0.00  0.00    +0.000 C 
ENDROOT
BRANCH   1  20
ATOM     20  S   UNL     1      -4.512  12.478  20.093  0.00  0.00    +0.000 S 
BRANCH  20  22
ATOM     21  C   UNL     1      -5.186  12.983  23.085  0.00  0.00    +0.000 C 
ATOM     22  C   UNL     1      -4.021  12.952  22.074  0.00  0.00    +0.000 C 
ATOM     23  C   UNL     1      -2.793  12.366  22.841  0.00  0.00    +0.000 C 
ENDBRANCH  20  22
ENDBRANCH   1  20
BRANCH   5  24
ATOM     24  C   UNL     1       0.819   9.926  18.189  0.00  0.00    +0.000 C 
BRANCH  24  25
ATOM     25  C   UNL     1       1.242   9.175  19.452  0.00  0.00    +0.000 C 
BRANCH  25  26
ATOM     26  C   UNL     1       2.085   8.017  19.037  0.00  0.00    +0.000 A 
ATOM     27  C   UNL     1       2.187   6.905  19.879  0.00  0.00    +0.000 A 
ATOM     28  C   UNL     1       3.062   5.878  19.549  0.00  0.00    +0.000 A 
ATOM     29  C   UNL     1       3.827   5.960  18.383  0.00  0.00    +0.000 A 
ATOM     30  C   UNL     1       3.724   7.072  17.548  0.00  0.00    +0.000 A 
ATOM     31  C   UNL     1       2.858   8.106  17.876  0.00  0.00    +0.000 A 
ENDBRANCH  25  26
ENDBRANCH  24  25
ENDBRANCH   5  24
TORSDOF 5
ENDMDL
MODEL 6
REMARK VINA RESULT:      -7.2      3.277      4.915
REMARK  Name = 
REMARK  9 active torsions:
REMARK  status: ('A' for Active; 'I' for Inactive)
REMARK    1  A    between atoms: C_1  and  C_2
REMARK    2  A    between atoms: C_2  and  C_3
REMARK    3  A    between atoms: C_2  and  S_4
REMARK    4  A    between atoms: S_4  and  C_5
REMARK    5  A    between atoms: N_9  and  C_10
REMARK    6  A    between atoms: C_10  and  C_11
REMARK    7  A    between atoms: C_11  and  C_12
REMARK    8  A    between atoms: C_28  and  C_29
REMARK    9  A    between atoms: C_28  and  C_30
REMARK                            x       y       z     vdW  Elec       q    Type
REMARK                         _______ _______ _______ _____ _____    ______ ____
ROOT
ATOM      1  C   UNL     1      -3.051  12.324  19.454  0.00  0.00    +0.000 A 
ATOM      2  N   UNL     1      -3.188  11.185  18.816  0.00  0.00    +0.000 NA
ATOM      3  N   UNL     1      -1.997  10.697  18.521  0.00  0.00    +0.000 NA
ATOM      4  C   UNL     1      -1.117  11.585  18.831  0.00  0.00    +0.000 A 
ATOM      5  N   UNL     1       0.223  11.342  18.621  0.00  0.00    +0.000 N 
ATOM      6  C   UNL     1       1.152  12.324  18.678  0.00  0.00    +0.000 A 
ATOM      7  O   UNL     1       2.327  12.115  18.377  0.00  0.00    +0.000 OA
ATOM      8  C   UNL     1       0.708  13.613  19.134  0.00  0.00    +0.000 A 
ATOM      9  C   UNL     1       1.628  14.733  19.180  0.00  0.00    +0.000 A 
ATOM     10  C   UNL     1       1.006  15.851  19.667  0.00  0.00    +0.000 A 
ATOM     11  S   UNL     1      -0.715  15.504  20.012  0.00  0.00    +0.000 S 
ATOM     12  C   UNL     1      -0.628  13.861  19.518  0.00  0.00    +0.000 A 
ATOM     13  N   UNL     1      -1.646  12.787  19.351  0.00  0.00    +0.000 N 
ATOM     14  C   UNL     1       1.758  17.184  19.781  0.00  0.00    +0.000 C 
ATOM     15  O   UNL     1       3.217  17.010  19.647  0.00  0.00    +0.000 OA
ATOM     16  C   UNL     1       3.685  16.182  18.560  0.00  0.00    +0.000 C 
ATOM     17  C   UNL     1       3.318  16.769  17.187  0.00  0.00    +0.000 C 
ATOM     18  C   UNL     1       5.248  16.155  18.558  0.00  0.00    +0.000 C 
ATOM     19  C   UNL     1       3.118  14.756  18.781  0.00  0.00    +0.000 C 
ENDROOT
BRANCH   1  20
ATOM     20  S   UNL     1      -4.549  12.693  20.311  0.00  0.00    +0.000 S 
BRANCH  20  22
ATOM     21  C   UNL     1      -3.221  12.331  23.099  0.00  0.00    +0.000 C 
ATOM     22  C   UNL     1      -3.980  13.346  22.219  0.00  0.00    +0.000 C 
ATOM     23  C   UNL     1      -3.346  14.742  22.518  0.00  0.00    +0.000 C 
ENDBRANCH  20  22
ENDBRANCH   1  20
BRANCH   5  24
ATOM     24  C   UNL     1       0.672  10.012  18.283  0.00  0.00    +0.000 C 
BRANCH  24  25
ATOM     25  C   UNL     1       1.087   9.257  19.546  0.00  0.00    +0.000 C 
BRANCH  25  26
ATOM     26  C   UNL     1       2.044   8.186  19.147  0.00  0.00    +0.000 A 
ATOM     27  C   UNL     1       2.700   8.274  17.914  0.00  0.00    +0.000 A 
ATOM     28  C   UNL     1       3.500   7.221  17.491  0.00  0.00    +0.000 A 
ATOM     29  C   UNL     1       3.648   6.088  18.295  0.00  0.00    +0.000 A 
ATOM     30  C   UNL     1       2.991   6.004  19.522  0.00  0.00    +0.000 A 
ATOM     31  C   UNL     1       2.182   7.048  19.948  0.00  0.00    +0.000 A 
ENDBRANCH  25  26
ENDBRANCH  24  25
ENDBRANCH   5  24
TORSDOF 5
ENDMDL
MODEL 7
REMARK VINA RESULT:      -7.1      3.502      4.597
REMARK  Name = 
REMARK  9 active torsions:
REMARK  status: ('A' for Active; 'I' for Inactive)
REMARK    1  A    between atoms: C_1  and  C_2
REMARK    2  A    between atoms: C_2  and  C_3
REMARK    3  A    between atoms: C_2  and  S_4
REMARK    4  A    between atoms: S_4  and  C_5
REMARK    5  A    between atoms: N_9  and  C_10
REMARK    6  A    between atoms: C_10  and  C_11
REMARK    7  A    between atoms: C_11  and  C_12
REMARK    8  A    between atoms: C_28  and  C_29
REMARK    9  A    between atoms: C_28  and  C_30
REMARK                            x       y       z     vdW  Elec       q    Type
REMARK                         _______ _______ _______ _____ _____    ______ ____
ROOT
ATOM      1  C   UNL     1      -2.865  11.989  19.028  0.00  0.00    +0.000 A 
ATOM      2  N   UNL     1      -2.887  10.844  18.388  0.00  0.00    +0.000 NA
ATOM      3  N   UNL     1      -1.651  10.434  18.172  0.00  0.00    +0.000 NA
ATOM      4  C   UNL     1      -0.851  11.377  18.534  0.00  0.00    +0.000 A 
ATOM      5  N   UNL     1       0.512  11.220  18.412  0.00  0.00    +0.000 N 
ATOM      6  C   UNL     1       1.370  12.261  18.524  0.00  0.00    +0.000 A 
ATOM      7  O   UNL     1       2.573  12.128  18.300  0.00  0.00    +0.000 OA
ATOM      8  C   UNL     1       0.815  13.518  18.944  0.00  0.00    +0.000 A 
ATOM      9  C   UNL     1       1.656  14.696  19.044  0.00  0.00    +0.000 A 
ATOM     10  C   UNL     1       0.934  15.771  19.485  0.00  0.00    +0.000 A 
ATOM     11  S   UNL     1      -0.779  15.314  19.720  0.00  0.00    +0.000 S 
ATOM     12  C   UNL     1      -0.556  13.680  19.241  0.00  0.00    +0.000 A 
ATOM     13  N   UNL     1      -1.490  12.542  19.014  0.00  0.00    +0.000 N 
ATOM     14  C   UNL     1       1.590  17.151  19.642  0.00  0.00    +0.000 C 
ATOM     15  O   UNL     1       3.063  17.071  19.603  0.00  0.00    +0.000 OA
ATOM     16  C   UNL     1       3.652  16.274  18.552  0.00  0.00    +0.000 C 
ATOM     17  C   UNL     1       3.337  16.836  17.155  0.00  0.00    +0.000 C 
ATOM     18  C   UNL     1       5.210  16.348  18.651  0.00  0.00    +0.000 C 
ATOM     19  C   UNL     1       3.165  14.815  18.742  0.00  0.00    +0.000 C 
ENDROOT
BRANCH   1  20
ATOM     20  S   UNL     1      -4.436  12.261  19.785  0.00  0.00    +0.000 S 
BRANCH  20  22
ATOM     21  C   UNL     1      -6.864  10.832  18.470  0.00  0.00    +0.000 C 
ATOM     22  C   UNL     1      -5.863  11.990  18.275  0.00  0.00    +0.000 C 
ATOM     23  C   UNL     1      -6.664  13.150  17.603  0.00  0.00    +0.000 C 
ENDBRANCH  20  22
ENDBRANCH   1  20
BRANCH   5  24
ATOM     24  C   UNL     1       1.066   9.922  18.109  0.00  0.00    +0.000 C 
BRANCH  24  25
ATOM     25  C   UNL     1       1.280   9.126  19.397  0.00  0.00    +0.000 C 
BRANCH  25  26
ATOM     26  C   UNL     1       2.098   7.925  19.063  0.00  0.00    +0.000 A 
ATOM     27  C   UNL     1       2.159   6.861  19.969  0.00  0.00    +0.000 A 
ATOM     28  C   UNL     1       3.011   5.795  19.713  0.00  0.00    +0.000 A 
ATOM     29  C   UNL     1       3.794   5.788  18.556  0.00  0.00    +0.000 A 
ATOM     30  C   UNL     1       3.732   6.853  17.656  0.00  0.00    +0.000 A 
ATOM     31  C   UNL     1       2.890   7.926  17.911  0.00  0.00    +0.000 A 
ENDBRANCH  25  26
ENDBRANCH  24  25
ENDBRANCH   5  24
TORSDOF 5
ENDMDL
MODEL 8
REMARK VINA RESULT:      -7.1      1.035      1.162
REMARK  Name = 
REMARK  9 active torsions:
REMARK  status: ('A' for Active; 'I' for Inactive)
REMARK    1  A    between atoms: C_1  and  C_2
REMARK    2  A    between atoms: C_2  and  C_3
REMARK    3  A    between atoms: C_2  and  S_4
REMARK    4  A    between atoms: S_4  and  C_5
REMARK    5  A    between atoms: N_9  and  C_10
REMARK    6  A    between atoms: C_10  and  C_11
REMARK    7  A    between atoms: C_11  and  C_12
REMARK    8  A    between atoms: C_28  and  C_29
REMARK    9  A    between atoms: C_28  and  C_30
REMARK                            x       y       z     vdW  Elec       q    Type
REMARK                         _______ _______ _______ _____ _____    ______ ____
ROOT
ATOM      1  C   UNL     1      -2.930  11.414  17.902  0.00  0.00    +0.000 A 
ATOM      2  N   UNL     1      -1.978  10.606  17.498  0.00  0.00    +0.000 NA
ATOM      3  N   UNL     1      -1.192  10.304  18.515  0.00  0.00    +0.000 NA
ATOM      4  C   UNL     1      -1.548  11.028  19.520  0.00  0.00    +0.000 A 
ATOM      5  N   UNL     1      -0.888  10.922  20.724  0.00  0.00    +0.000 N 
ATOM      6  C   UNL     1      -1.042  11.832  21.714  0.00  0.00    +0.000 A 
ATOM      7  O   UNL     1      -0.362  11.788  22.739  0.00  0.00    +0.000 OA
ATOM      8  C   UNL     1      -2.057  12.832  21.525  0.00  0.00    +0.000 A 
ATOM      9  C   UNL     1      -2.256  13.873  22.514  0.00  0.00    +0.000 A 
ATOM     10  C   UNL     1      -3.284  14.699  22.149  0.00  0.00    +0.000 A 
ATOM     11  S   UNL     1      -3.950  14.198  20.566  0.00  0.00    +0.000 S 
ATOM     12  C   UNL     1      -2.871  12.875  20.372  0.00  0.00    +0.000 A 
ATOM     13  N   UNL     1      -2.611  11.920  19.259  0.00  0.00    +0.000 N 
ATOM     14  C   UNL     1      -3.672  15.906  23.015  0.00  0.00    +0.000 C 
ATOM     15  O   UNL     1      -3.071  15.837  24.361  0.00  0.00    +0.000 OA
ATOM     16  C   UNL     1      -1.667  15.507  24.439  0.00  0.00    +0.000 C 
ATOM     17  C   UNL     1      -0.784  16.567  23.760  0.00  0.00    +0.000 C 
ATOM     18  C   UNL     1      -1.208  15.526  25.932  0.00  0.00    +0.000 C 
ATOM     19  C   UNL     1      -1.486  14.090  23.834  0.00  0.00    +0.000 C 
ENDROOT
BRANCH   1  20
ATOM     20  S   UNL     1      -4.253  11.383  16.735  0.00  0.00    +0.000 S 
BRANCH  20  22
ATOM     21  C   UNL     1      -6.939  12.891  17.157  0.00  0.00    +0.000 C 
ATOM     22  C   UNL     1      -5.986  11.867  17.809  0.00  0.00    +0.000 C 
ATOM     23  C   UNL     1      -6.895  10.821  18.529  0.00  0.00    +0.000 C 
ENDBRANCH  20  22
ENDBRANCH   1  20
BRANCH   5  24
ATOM     24  C   UNL     1       0.040   9.838  20.948  0.00  0.00    +0.000 C 
BRANCH  24  25
ATOM     25  C   UNL     1       1.253   9.982  20.028  0.00  0.00    +0.000 C 
BRANCH  25  26
ATOM     26  C   UNL     1       1.662   8.617  19.591  0.00  0.00    +0.000 A 
ATOM     27  C   UNL     1       1.639   7.564  20.513  0.00  0.00    +0.000 A 
ATOM     28  C   UNL     1       2.130   6.320  20.139  0.00  0.00    +0.000 A 
ATOM     29  C   UNL     1       2.637   6.126  18.852  0.00  0.00    +0.000 A 
ATOM     30  C   UNL     1       2.660   7.179  17.937  0.00  0.00    +0.000 A 
ATOM     31  C   UNL     1       2.180   8.428  18.306  0.00  0.00    +0.000 A 
ENDBRANCH  25  26
ENDBRANCH  24  25
ENDBRANCH   5  24
TORSDOF 5
ENDMDL
MODEL 9
REMARK VINA RESULT:      -7.0      3.334      5.009
REMARK  Name = 
REMARK  9 active torsions:
REMARK  status: ('A' for Active; 'I' for Inactive)
REMARK    1  A    between atoms: C_1  and  C_2
REMARK    2  A    between atoms: C_2  and  C_3
REMARK    3  A    between atoms: C_2  and  S_4
REMARK    4  A    between atoms: S_4  and  C_5
REMARK    5  A    between atoms: N_9  and  C_10
REMARK    6  A    between atoms: C_10  and  C_11
REMARK    7  A    between atoms: C_11  and  C_12
REMARK    8  A    between atoms: C_28  and  C_29
REMARK    9  A    between atoms: C_28  and  C_30
REMARK                            x       y       z     vdW  Elec       q    Type
REMARK                         _______ _______ _______ _____ _____    ______ ____
ROOT
ATOM      1  C   UNL     1      -3.467  13.486  20.437  0.00  0.00    +0.000 A 
ATOM      2  N   UNL     1      -3.812  12.350  19.877  0.00  0.00    +0.000 NA
ATOM      3  N   UNL     1      -2.733  11.726  19.441  0.00  0.00    +0.000 NA
ATOM      4  C   UNL     1      -1.730  12.522  19.584  0.00  0.00    +0.000 A 
ATOM      5  N   UNL     1      -0.467  12.128  19.201  0.00  0.00    +0.000 N 
ATOM      6  C   UNL     1       0.557  13.004  19.082  0.00  0.00    +0.000 A 
ATOM      7  O   UNL     1       1.649  12.659  18.630  0.00  0.00    +0.000 OA
ATOM      8  C   UNL     1       0.319  14.347  19.535  0.00  0.00    +0.000 A 
ATOM      9  C   UNL     1       1.347  15.361  19.400  0.00  0.00    +0.000 A 
ATOM     10  C   UNL     1       0.921  16.555  19.917  0.00  0.00    +0.000 A 
ATOM     11  S   UNL     1      -0.759  16.409  20.514  0.00  0.00    +0.000 S 
ATOM     12  C   UNL     1      -0.915  14.752  20.090  0.00  0.00    +0.000 A 
ATOM     13  N   UNL     1      -2.052  13.790  20.117  0.00  0.00    +0.000 N 
ATOM     14  C   UNL     1       1.816  17.802  19.863  0.00  0.00    +0.000 C 
ATOM     15  O   UNL     1       3.215  17.465  19.535  0.00  0.00    +0.000 OA
ATOM     16  C   UNL     1       3.433  16.558  18.432  0.00  0.00    +0.000 C 
ATOM     17  C   UNL     1       2.935  17.138  17.099  0.00  0.00    +0.000 C 
ATOM     18  C   UNL     1       4.968  16.360  18.214  0.00  0.00    +0.000 C 
ATOM     19  C   UNL     1       2.759  15.209  18.796  0.00  0.00    +0.000 C 
ENDROOT
BRANCH   1  20
ATOM     20  S   UNL     1      -4.780  14.043  21.476  0.00  0.00    +0.000 S 
BRANCH  20  22
ATOM     21  C   UNL     1      -4.032  12.607  24.130  0.00  0.00    +0.000 C 
ATOM     22  C   UNL     1      -4.035  13.984  23.434  0.00  0.00    +0.000 C 
ATOM     23  C   UNL     1      -2.736  14.713  23.903  0.00  0.00    +0.000 C 
ENDBRANCH  20  22
ENDBRANCH   1  20
BRANCH   5  24
ATOM     24  C   UNL     1      -0.211  10.747  18.866  0.00  0.00    +0.000 C 
BRANCH  24  25
ATOM     25  C   UNL     1       0.438  10.027  20.048  0.00  0.00    +0.000 C 
BRANCH  25  26
ATOM     26  C   UNL     1       1.354   8.985  19.504  0.00  0.00    +0.000 A 
ATOM     27  C   UNL     1       1.800   9.084  18.182  0.00  0.00    +0.000 A 
ATOM     28  C   UNL     1       2.558   8.055  17.639  0.00  0.00    +0.000 A 
ATOM     29  C   UNL     1       2.873   6.935  18.413  0.00  0.00    +0.000 A 
ATOM     30  C   UNL     1       2.424   6.839  19.730  0.00  0.00    +0.000 A 
ATOM     31  C   UNL     1       1.658   7.860  20.277  0.00  0.00    +0.000 A 
ENDBRANCH  25  26
ENDBRANCH  24  25
ENDBRANCH   5  24
TORSDOF 5
ENDMDL
