MODEL 1
REMARK VINA RESULT:      -9.9      0.000      0.000
REMARK  Name = 
REMARK  9 active torsions:
REMARK  status: ('A' for Active; 'I' for Inactive)
REMARK    1  A    between atoms: C_1  and  O_2
REMARK    2  A    between atoms: O_2  and  C_3
REMARK    3  A    between atoms: C_6  and  N_7
REMARK    4  A    between atoms: C_9  and  C_10
REMARK    5  A    between atoms: N_12  and  C_13
REMARK    6  A    between atoms: C_13  and  C_14
REMARK    7  A    between atoms: N_16  and  C_17
REMARK    8  A    between atoms: C_21  and  N_22
REMARK    9  A    between atoms: C_23  and  C_24
REMARK                            x       y       z     vdW  Elec       q    Type
REMARK                         _______ _______ _______ _____ _____    ______ ____
ROOT
ATOM      1  C   UNL     1       2.097   7.117  19.261  0.00  0.00    +0.000 C 
ATOM      2  O   UNL     1       2.126   7.428  20.435  0.00  0.00    +0.000 OA
ATOM      3  N   UNL     1       1.955   7.969  18.186  0.00  0.00    +0.000 N 
ATOM      4  H   UNL     1       2.104   7.555  17.268  0.00  0.00    +0.000 HD
ENDROOT
BRANCH   1   7
ATOM      5  N   UNL     1       4.343   4.771  17.813  0.00  0.00    +0.000 N 
ATOM      6  N   UNL     1       3.354   5.739  17.786  0.00  0.00    +0.000 NA
ATOM      7  C   UNL     1       2.491   5.733  18.752  0.00  0.00    +0.000 A 
ATOM      8  C   UNL     1       2.262   4.590  19.618  0.00  0.00    +0.000 A 
ATOM      9  C   UNL     1       1.049   4.316  20.249  0.00  0.00    +0.000 A 
ATOM     10  C   UNL     1       0.988   3.257  21.156  0.00  0.00    +0.000 A 
ATOM     11  C   UNL     1       2.137   2.514  21.442  0.00  0.00    +0.000 A 
ATOM     12  C   UNL     1       3.339   2.787  20.781  0.00  0.00    +0.000 A 
ATOM     13  C   UNL     1       3.384   3.807  19.832  0.00  0.00    +0.000 A 
ATOM     14  C   UNL     1       4.590   4.052  19.005  0.00  0.00    +0.000 A 
ATOM     15  O   UNL     1       5.654   3.599  19.407  0.00  0.00    +0.000 OA
BRANCH   5  19
ATOM     16  C   UNL     1       7.075   5.192  14.550  0.00  0.00    +0.000 A 
ATOM     17  C   UNL     1       7.334   5.817  15.775  0.00  0.00    +0.000 A 
ATOM     18  C   UNL     1       6.463   5.662  16.860  0.00  0.00    +0.000 A 
ATOM     19  C   UNL     1       5.284   4.923  16.740  0.00  0.00    +0.000 A 
ATOM     20  C   UNL     1       5.038   4.305  15.505  0.00  0.00    +0.000 A 
ATOM     21  C   UNL     1       5.911   4.432  14.418  0.00  0.00    +0.000 A 
BRANCH  16  23
ATOM     22  C   UNL     1       7.645   4.935  12.271  0.00  0.00    +0.000 C 
ATOM     23  O   UNL     1       7.988   5.420  13.572  0.00  0.00    +0.000 OA
ENDBRANCH  16  23
ENDBRANCH   5  19
ENDBRANCH   1   7
BRANCH   3  24
ATOM     24  C   UNL     1       2.105   9.397  18.290  0.00  0.00    +0.000 C 
BRANCH  24  25
ATOM     25  C   UNL     1       0.738  10.024  18.567  0.00  0.00    +0.000 C 
ATOM     26  O   UNL     1       0.493  10.501  19.676  0.00  0.00    +0.000 OA
ATOM     27  N   UNL     1      -0.175   9.846  17.536  0.00  0.00    +0.000 N 
ATOM     28  H   UNL     1       0.093   9.195  16.802  0.00  0.00    +0.000 HD
BRANCH  27  29
ATOM     29  C   UNL     1      -1.510  10.319  17.527  0.00  0.00    +0.000 A 
ATOM     30  C   UNL     1      -2.418   9.964  16.530  0.00  0.00    +0.000 A 
ATOM     31  C   UNL     1      -3.711  10.479  16.535  0.00  0.00    +0.000 A 
ATOM     32  C   UNL     1      -4.107  11.370  17.528  0.00  0.00    +0.000 A 
ATOM     33  C   UNL     1      -3.224  11.746  18.542  0.00  0.00    +0.000 A 
ATOM     34  C   UNL     1      -1.933  11.181  18.557  0.00  0.00    +0.000 A 
BRANCH  33  35
ATOM     35  N   UNL     1      -3.557  12.704  19.533  0.00  0.00    +0.000 N 
ATOM     36  C   UNL     1      -4.726  12.748  20.278  0.00  0.00    +0.000 C 
ATOM     37  C   UNL     1      -4.827  13.954  21.178  0.00  0.00    +0.000 C 
ATOM     38  O   UNL     1      -5.637  11.924  20.274  0.00  0.00    +0.000 OA
ATOM     39  H   UNL     1      -2.901  13.463  19.660  0.00  0.00    +0.000 HD
ENDBRANCH  33  35
ENDBRANCH  27  29
ENDBRANCH  24  25
ENDBRANCH   3  24
TORSDOF 7
ENDMDL
MODEL 2
REMARK VINA RESULT:      -9.5      2.201      2.758
REMARK  Name = 
REMARK  9 active torsions:
REMARK  status: ('A' for Active; 'I' for Inactive)
REMARK    1  A    between atoms: C_1  and  O_2
REMARK    2  A    between atoms: O_2  and  C_3
REMARK    3  A    between atoms: C_6  and  N_7
REMARK    4  A    between atoms: C_9  and  C_10
REMARK    5  A    between atoms: N_12  and  C_13
REMARK    6  A    between atoms: C_13  and  C_14
REMARK    7  A    between atoms: N_16  and  C_17
REMARK    8  A    between atoms: C_21  and  N_22
REMARK    9  A    between atoms: C_23  and  C_24
REMARK                            x       y       z     vdW  Elec       q    Type
REMARK                         _______ _______ _______ _____ _____    ______ ____
ROOT
ATOM      1  C   UNL     1       2.069   7.094  19.185  0.00  0.00    +0.000 C 
ATOM      2  O   UNL     1       2.200   7.462  20.334  0.00  0.00    +0.000 OA
ATOM      3  N   UNL     1       1.781   7.886  18.093  0.00  0.00    +0.000 N 
ATOM      4  H   UNL     1       1.857   7.434  17.184  0.00  0.00    +0.000 HD
ENDROOT
BRANCH   1   7
ATOM      5  N   UNL     1       4.333   4.740  17.775  0.00  0.00    +0.000 N 
ATOM      6  N   UNL     1       3.335   5.701  17.732  0.00  0.00    +0.000 NA
ATOM      7  C   UNL     1       2.473   5.705  18.700  0.00  0.00    +0.000 A 
ATOM      8  C   UNL     1       2.255   4.575  19.586  0.00  0.00    +0.000 A 
ATOM      9  C   UNL     1       1.045   4.302  20.224  0.00  0.00    +0.000 A 
ATOM     10  C   UNL     1       0.993   3.259  21.148  0.00  0.00    +0.000 A 
ATOM     11  C   UNL     1       2.149   2.530  21.446  0.00  0.00    +0.000 A 
ATOM     12  C   UNL     1       3.347   2.801  20.779  0.00  0.00    +0.000 A 
ATOM     13  C   UNL     1       3.384   3.804  19.812  0.00  0.00    +0.000 A 
ATOM     14  C   UNL     1       4.587   4.045  18.979  0.00  0.00    +0.000 A 
ATOM     15  O   UNL     1       5.654   3.608  19.388  0.00  0.00    +0.000 OA
BRANCH   5  19
ATOM     16  C   UNL     1       7.185   5.222  14.625  0.00  0.00    +0.000 A 
ATOM     17  C   UNL     1       6.254   4.177  14.584  0.00  0.00    +0.000 A 
ATOM     18  C   UNL     1       5.295   4.028  15.593  0.00  0.00    +0.000 A 
ATOM     19  C   UNL     1       5.271   4.881  16.698  0.00  0.00    +0.000 A 
ATOM     20  C   UNL     1       6.212   5.920  16.726  0.00  0.00    +0.000 A 
ATOM     21  C   UNL     1       7.161   6.097  15.712  0.00  0.00    +0.000 A 
BRANCH  16  23
ATOM     22  C   UNL     1       7.538   4.929  12.307  0.00  0.00    +0.000 C 
ATOM     23  O   UNL     1       8.066   5.261  13.594  0.00  0.00    +0.000 OA
ENDBRANCH  16  23
ENDBRANCH   5  19
ENDBRANCH   1   7
BRANCH   3  24
ATOM     24  C   UNL     1       1.875   9.323  18.119  0.00  0.00    +0.000 C 
BRANCH  24  25
ATOM     25  C   UNL     1       0.746   9.882  18.985  0.00  0.00    +0.000 C 
ATOM     26  O   UNL     1      -0.386  10.005  18.517  0.00  0.00    +0.000 OA
ATOM     27  N   UNL     1       1.174  10.354  20.220  0.00  0.00    +0.000 N 
ATOM     28  H   UNL     1       2.179  10.433  20.350  0.00  0.00    +0.000 HD
BRANCH  27  29
ATOM     29  C   UNL     1       0.344  10.923  21.217  0.00  0.00    +0.000 A 
ATOM     30  C   UNL     1      -0.341  10.144  22.148  0.00  0.00    +0.000 A 
ATOM     31  C   UNL     1      -1.176  10.738  23.090  0.00  0.00    +0.000 A 
ATOM     32  C   UNL     1      -1.350  12.119  23.100  0.00  0.00    +0.000 A 
ATOM     33  C   UNL     1      -0.679  12.929  22.182  0.00  0.00    +0.000 A 
ATOM     34  C   UNL     1       0.203  12.323  21.265  0.00  0.00    +0.000 A 
BRANCH  33  35
ATOM     35  N   UNL     1      -0.879  14.331  22.106  0.00  0.00    +0.000 N 
ATOM     36  C   UNL     1      -1.795  14.991  21.300  0.00  0.00    +0.000 C 
ATOM     37  C   UNL     1      -1.691  16.494  21.369  0.00  0.00    +0.000 C 
ATOM     38  O   UNL     1      -2.647  14.480  20.579  0.00  0.00    +0.000 OA
ATOM     39  H   UNL     1      -0.245  14.903  22.648  0.00  0.00    +0.000 HD
ENDBRANCH  33  35
ENDBRANCH  27  29
ENDBRANCH  24  25
ENDBRANCH   3  24
TORSDOF 7
ENDMDL
MODEL 3
REMARK VINA RESULT:      -9.5      1.293      2.163
REMARK  Name = 
REMARK  9 active torsions:
REMARK  status: ('A' for Active; 'I' for Inactive)
REMARK    1  A    between atoms: C_1  and  O_2
REMARK    2  A    between atoms: O_2  and  C_3
REMARK    3  A    between atoms: C_6  and  N_7
REMARK    4  A    between atoms: C_9  and  C_10
REMARK    5  A    between atoms: N_12  and  C_13
REMARK    6  A    between atoms: C_13  and  C_14
REMARK    7  A    between atoms: N_16  and  C_17
REMARK    8  A    between atoms: C_21  and  N_22
REMARK    9  A    between atoms: C_23  and  C_24
REMARK                            x       y       z     vdW  Elec       q    Type
REMARK                         _______ _______ _______ _____ _____    ______ ____
ROOT
ATOM      1  C   UNL     1       1.983   7.004  19.183  0.00  0.00    +0.000 C 
ATOM      2  O   UNL     1       1.930   7.317  20.355  0.00  0.00    +0.000 OA
ATOM      3  N   UNL     1       1.900   7.853  18.099  0.00  0.00    +0.000 N 
ATOM      4  H   UNL     1       2.114   7.440  17.193  0.00  0.00    +0.000 HD
ENDROOT
BRANCH   1   7
ATOM      5  N   UNL     1       4.309   4.708  17.782  0.00  0.00    +0.000 N 
ATOM      6  N   UNL     1       3.286   5.641  17.736  0.00  0.00    +0.000 NA
ATOM      7  C   UNL     1       2.424   5.625  18.703  0.00  0.00    +0.000 A 
ATOM      8  C   UNL     1       2.236   4.493  19.593  0.00  0.00    +0.000 A 
ATOM      9  C   UNL     1       1.034   4.190  20.232  0.00  0.00    +0.000 A 
ATOM     10  C   UNL     1       1.011   3.150  21.162  0.00  0.00    +0.000 A 
ATOM     11  C   UNL     1       2.186   2.453  21.462  0.00  0.00    +0.000 A 
ATOM     12  C   UNL     1       3.377   2.754  20.794  0.00  0.00    +0.000 A 
ATOM     13  C   UNL     1       3.386   3.755  19.823  0.00  0.00    +0.000 A 
ATOM     14  C   UNL     1       4.582   4.025  18.989  0.00  0.00    +0.000 A 
ATOM     15  O   UNL     1       5.661   3.618  19.399  0.00  0.00    +0.000 OA
BRANCH   5  19
ATOM     16  C   UNL     1       7.155   5.240  14.635  0.00  0.00    +0.000 A 
ATOM     17  C   UNL     1       6.125   4.302  14.506  0.00  0.00    +0.000 A 
ATOM     18  C   UNL     1       5.168   4.140  15.516  0.00  0.00    +0.000 A 
ATOM     19  C   UNL     1       5.243   4.870  16.705  0.00  0.00    +0.000 A 
ATOM     20  C   UNL     1       6.283   5.804  16.819  0.00  0.00    +0.000 A 
ATOM     21  C   UNL     1       7.232   5.994  15.808  0.00  0.00    +0.000 A 
BRANCH  16  23
ATOM     22  C   UNL     1       7.552   4.766  12.354  0.00  0.00    +0.000 C 
ATOM     23  O   UNL     1       8.023   5.303  13.594  0.00  0.00    +0.000 OA
ENDBRANCH  16  23
ENDBRANCH   5  19
ENDBRANCH   1   7
BRANCH   3  24
ATOM     24  C   UNL     1       2.027   9.284  18.210  0.00  0.00    +0.000 C 
BRANCH  24  25
ATOM     25  C   UNL     1       0.657   9.883  18.527  0.00  0.00    +0.000 C 
ATOM     26  O   UNL     1      -0.276   9.739  17.736  0.00  0.00    +0.000 OA
ATOM     27  N   UNL     1       0.652  10.693  19.656  0.00  0.00    +0.000 N 
ATOM     28  H   UNL     1       1.560  10.933  20.045  0.00  0.00    +0.000 HD
BRANCH  27  29
ATOM     29  C   UNL     1      -0.476  11.374  20.176  0.00  0.00    +0.000 A 
ATOM     30  C   UNL     1      -0.580  11.720  21.523  0.00  0.00    +0.000 A 
ATOM     31  C   UNL     1      -1.721  12.357  22.003  0.00  0.00    +0.000 A 
ATOM     32  C   UNL     1      -2.779  12.640  21.146  0.00  0.00    +0.000 A 
ATOM     33  C   UNL     1      -2.708  12.309  19.791  0.00  0.00    +0.000 A 
ATOM     34  C   UNL     1      -1.530  11.710  19.303  0.00  0.00    +0.000 A 
BRANCH  33  35
ATOM     35  N   UNL     1      -3.787  12.512  18.894  0.00  0.00    +0.000 N 
ATOM     36  C   UNL     1      -4.356  11.561  18.060  0.00  0.00    +0.000 C 
ATOM     37  C   UNL     1      -5.420  12.115  17.146  0.00  0.00    +0.000 C 
ATOM     38  O   UNL     1      -4.085  10.364  18.010  0.00  0.00    +0.000 OA
ATOM     39  H   UNL     1      -4.130  13.459  18.813  0.00  0.00    +0.000 HD
ENDBRANCH  33  35
ENDBRANCH  27  29
ENDBRANCH  24  25
ENDBRANCH   3  24
TORSDOF 7
ENDMDL
MODEL 4
REMARK VINA RESULT:      -9.3      1.271      1.874
REMARK  Name = 
REMARK  9 active torsions:
REMARK  status: ('A' for Active; 'I' for Inactive)
REMARK    1  A    between atoms: C_1  and  O_2
REMARK    2  A    between atoms: O_2  and  C_3
REMARK    3  A    between atoms: C_6  and  N_7
REMARK    4  A    between atoms: C_9  and  C_10
REMARK    5  A    between atoms: N_12  and  C_13
REMARK    6  A    between atoms: C_13  and  C_14
REMARK    7  A    between atoms: N_16  and  C_17
REMARK    8  A    between atoms: C_21  and  N_22
REMARK    9  A    between atoms: C_23  and  C_24
REMARK                            x       y       z     vdW  Elec       q    Type
REMARK                         _______ _______ _______ _____ _____    ______ ____
ROOT
ATOM      1  C   UNL     1       2.018   7.090  19.225  0.00  0.00    +0.000 C 
ATOM      2  O   UNL     1       2.096   7.440  20.386  0.00  0.00    +0.000 OA
ATOM      3  N   UNL     1       1.792   7.902  18.133  0.00  0.00    +0.000 N 
ATOM      4  H   UNL     1       1.908   7.463  17.222  0.00  0.00    +0.000 HD
ENDROOT
BRANCH   1   7
ATOM      5  N   UNL     1       4.308   4.744  17.848  0.00  0.00    +0.000 N 
ATOM      6  N   UNL     1       3.313   5.706  17.791  0.00  0.00    +0.000 NA
ATOM      7  C   UNL     1       2.431   5.704  18.739  0.00  0.00    +0.000 A 
ATOM      8  C   UNL     1       2.191   4.568  19.612  0.00  0.00    +0.000 A 
ATOM      9  C   UNL     1       0.967   4.293  20.221  0.00  0.00    +0.000 A 
ATOM     10  C   UNL     1       0.894   3.244  21.137  0.00  0.00    +0.000 A 
ATOM     11  C   UNL     1       2.042   2.510  21.455  0.00  0.00    +0.000 A 
ATOM     12  C   UNL     1       3.255   2.784  20.816  0.00  0.00    +0.000 A 
ATOM     13  C   UNL     1       3.314   3.795  19.857  0.00  0.00    +0.000 A 
ATOM     14  C   UNL     1       4.535   4.040  19.053  0.00  0.00    +0.000 A 
ATOM     15  O   UNL     1       5.593   3.597  19.481  0.00  0.00    +0.000 OA
BRANCH   5  19
ATOM     16  C   UNL     1       7.119   5.117  14.648  0.00  0.00    +0.000 A 
ATOM     17  C   UNL     1       7.098   6.058  15.684  0.00  0.00    +0.000 A 
ATOM     18  C   UNL     1       6.203   5.929  16.753  0.00  0.00    +0.000 A 
ATOM     19  C   UNL     1       5.270   4.891  16.793  0.00  0.00    +0.000 A 
ATOM     20  C   UNL     1       5.302   3.959  15.746  0.00  0.00    +0.000 A 
ATOM     21  C   UNL     1       6.207   4.061  14.682  0.00  0.00    +0.000 A 
BRANCH  16  23
ATOM     22  C   UNL     1       7.609   5.018  12.337  0.00  0.00    +0.000 C 
ATOM     23  O   UNL     1       8.026   5.350  13.665  0.00  0.00    +0.000 OA
ENDBRANCH  16  23
ENDBRANCH   5  19
ENDBRANCH   1   7
BRANCH   3  24
ATOM     24  C   UNL     1       1.900   9.337  18.186  0.00  0.00    +0.000 C 
BRANCH  24  25
ATOM     25  C   UNL     1       0.534   9.928  18.538  0.00  0.00    +0.000 C 
ATOM     26  O   UNL     1      -0.412   9.796  17.762  0.00  0.00    +0.000 OA
ATOM     27  N   UNL     1       0.549  10.718  19.681  0.00  0.00    +0.000 N 
ATOM     28  H   UNL     1       1.463  10.952  20.058  0.00  0.00    +0.000 HD
BRANCH  27  29
ATOM     29  C   UNL     1      -0.571  11.387  20.233  0.00  0.00    +0.000 A 
ATOM     30  C   UNL     1      -0.679  11.653  21.598  0.00  0.00    +0.000 A 
ATOM     31  C   UNL     1      -1.811  12.281  22.108  0.00  0.00    +0.000 A 
ATOM     32  C   UNL     1      -2.858  12.634  21.262  0.00  0.00    +0.000 A 
ATOM     33  C   UNL     1      -2.783  12.383  19.891  0.00  0.00    +0.000 A 
ATOM     34  C   UNL     1      -1.612  11.793  19.376  0.00  0.00    +0.000 A 
BRANCH  33  35
ATOM     35  N   UNL     1      -3.852  12.658  19.001  0.00  0.00    +0.000 N 
ATOM     36  C   UNL     1      -5.194  12.375  19.211  0.00  0.00    +0.000 C 
ATOM     37  C   UNL     1      -6.072  12.694  18.028  0.00  0.00    +0.000 C 
ATOM     38  O   UNL     1      -5.702  11.917  20.231  0.00  0.00    +0.000 OA
ATOM     39  H   UNL     1      -3.597  13.041  18.100  0.00  0.00    +0.000 HD
ENDBRANCH  33  35
ENDBRANCH  27  29
ENDBRANCH  24  25
ENDBRANCH   3  24
TORSDOF 7
ENDMDL
MODEL 5
REMARK VINA RESULT:      -9.2      2.135      2.682
REMARK  Name = 
REMARK  9 active torsions:
REMARK  status: ('A' for Active; 'I' for Inactive)
REMARK    1  A    between atoms: C_1  and  O_2
REMARK    2  A    between atoms: O_2  and  C_3
REMARK    3  A    between atoms: C_6  and  N_7
REMARK    4  A    between atoms: C_9  and  C_10
REMARK    5  A    between atoms: N_12  and  C_13
REMARK    6  A    between atoms: C_13  and  C_14
REMARK    7  A    between atoms: N_16  and  C_17
REMARK    8  A    between atoms: C_21  and  N_22
REMARK    9  A    between atoms: C_23  and  C_24
REMARK                            x       y       z     vdW  Elec       q    Type
REMARK                         _______ _______ _______ _____ _____    ______ ____
ROOT
ATOM      1  C   UNL     1       2.130   7.137  19.162  0.00  0.00    +0.000 C 
ATOM      2  O   UNL     1       2.157   7.453  20.334  0.00  0.00    +0.000 OA
ATOM      3  N   UNL     1       2.018   7.987  18.081  0.00  0.00    +0.000 N 
ATOM      4  H   UNL     1       2.163   7.565  17.166  0.00  0.00    +0.000 HD
ENDROOT
BRANCH   1   7
ATOM      5  N   UNL     1       4.313   4.737  17.706  0.00  0.00    +0.000 N 
ATOM      6  N   UNL     1       3.339   5.722  17.683  0.00  0.00    +0.000 NA
ATOM      7  C   UNL     1       2.492   5.742  18.663  0.00  0.00    +0.000 A 
ATOM      8  C   UNL     1       2.258   4.612  19.545  0.00  0.00    +0.000 A 
ATOM      9  C   UNL     1       1.050   4.366  20.199  0.00  0.00    +0.000 A 
ATOM     10  C   UNL     1       0.986   3.319  21.118  0.00  0.00    +0.000 A 
ATOM     11  C   UNL     1       2.126   2.559  21.394  0.00  0.00    +0.000 A 
ATOM     12  C   UNL     1       3.322   2.804  20.712  0.00  0.00    +0.000 A 
ATOM     13  C   UNL     1       3.370   3.812  19.750  0.00  0.00    +0.000 A 
ATOM     14  C   UNL     1       4.567   4.028  18.902  0.00  0.00    +0.000 A 
ATOM     15  O   UNL     1       5.628   3.561  19.292  0.00  0.00    +0.000 OA
BRANCH   5  19
ATOM     16  C   UNL     1       7.135   5.159  14.521  0.00  0.00    +0.000 A 
ATOM     17  C   UNL     1       6.111   4.208  14.438  0.00  0.00    +0.000 A 
ATOM     18  C   UNL     1       5.163   4.081  15.460  0.00  0.00    +0.000 A 
ATOM     19  C   UNL     1       5.239   4.861  16.616  0.00  0.00    +0.000 A 
ATOM     20  C   UNL     1       6.272   5.806  16.685  0.00  0.00    +0.000 A 
ATOM     21  C   UNL     1       7.213   5.961  15.660  0.00  0.00    +0.000 A 
BRANCH  16  23
ATOM     22  C   UNL     1       7.496   4.657  12.239  0.00  0.00    +0.000 C 
ATOM     23  O   UNL     1       7.996   5.184  13.471  0.00  0.00    +0.000 OA
ENDBRANCH  16  23
ENDBRANCH   5  19
ENDBRANCH   1   7
BRANCH   3  24
ATOM     24  C   UNL     1       2.204   9.412  18.180  0.00  0.00    +0.000 C 
BRANCH  24  25
ATOM     25  C   UNL     1       0.892  10.057  18.630  0.00  0.00    +0.000 C 
ATOM     26  O   UNL     1      -0.159   9.780  18.053  0.00  0.00    +0.000 OA
ATOM     27  N   UNL     1       1.060  11.048  19.588  0.00  0.00    +0.000 N 
ATOM     28  H   UNL     1       2.015  11.351  19.764  0.00  0.00    +0.000 HD
BRANCH  27  29
ATOM     29  C   UNL     1       0.020  11.808  20.178  0.00  0.00    +0.000 A 
ATOM     30  C   UNL     1      -0.769  11.309  21.214  0.00  0.00    +0.000 A 
ATOM     31  C   UNL     1      -1.805  12.073  21.743  0.00  0.00    +0.000 A 
ATOM     32  C   UNL     1      -2.076  13.339  21.231  0.00  0.00    +0.000 A 
ATOM     33  C   UNL     1      -1.304  13.869  20.196  0.00  0.00    +0.000 A 
ATOM     34  C   UNL     1      -0.226  13.109  19.700  0.00  0.00    +0.000 A 
BRANCH  33  35
ATOM     35  N   UNL     1      -1.586  15.121  19.593  0.00  0.00    +0.000 N 
ATOM     36  C   UNL     1      -1.102  16.357  19.996  0.00  0.00    +0.000 C 
ATOM     37  C   UNL     1      -1.671  17.515  19.214  0.00  0.00    +0.000 C 
ATOM     38  O   UNL     1      -0.284  16.577  20.885  0.00  0.00    +0.000 OA
ATOM     39  H   UNL     1      -2.256  15.113  18.836  0.00  0.00    +0.000 HD
ENDBRANCH  33  35
ENDBRANCH  27  29
ENDBRANCH  24  25
ENDBRANCH   3  24
TORSDOF 7
ENDMDL
MODEL 6
REMARK VINA RESULT:      -9.1      2.620     10.249
REMARK  Name = 
REMARK  9 active torsions:
REMARK  status: ('A' for Active; 'I' for Inactive)
REMARK    1  A    between atoms: C_1  and  O_2
REMARK    2  A    between atoms: O_2  and  C_3
REMARK    3  A    between atoms: C_6  and  N_7
REMARK    4  A    between atoms: C_9  and  C_10
REMARK    5  A    between atoms: N_12  and  C_13
REMARK    6  A    between atoms: C_13  and  C_14
REMARK    7  A    between atoms: N_16  and  C_17
REMARK    8  A    between atoms: C_21  and  N_22
REMARK    9  A    between atoms: C_23  and  C_24
REMARK                            x       y       z     vdW  Elec       q    Type
REMARK                         _______ _______ _______ _____ _____    ______ ____
ROOT
ATOM      1  C   UNL     1      -0.038  10.804  22.156  0.00  0.00    +0.000 C 
ATOM      2  O   UNL     1      -0.279  10.620  23.332  0.00  0.00    +0.000 OA
ATOM      3  N   UNL     1       0.666   9.966  21.317  0.00  0.00    +0.000 N 
ATOM      4  H   UNL     1       0.643  10.204  20.328  0.00  0.00    +0.000 HD
ENDROOT
BRANCH   1   7
ATOM      5  N   UNL     1      -2.341  11.979  19.713  0.00  0.00    +0.000 N 
ATOM      6  N   UNL     1      -1.119  11.498  20.155  0.00  0.00    +0.000 NA
ATOM      7  C   UNL     1      -0.714  11.889  21.323  0.00  0.00    +0.000 A 
ATOM      8  C   UNL     1      -1.244  13.055  22.008  0.00  0.00    +0.000 A 
ATOM      9  C   UNL     1      -0.521  13.821  22.922  0.00  0.00    +0.000 A 
ATOM     10  C   UNL     1      -1.178  14.842  23.609  0.00  0.00    +0.000 A 
ATOM     11  C   UNL     1      -2.543  15.062  23.400  0.00  0.00    +0.000 A 
ATOM     12  C   UNL     1      -3.246  14.300  22.461  0.00  0.00    +0.000 A 
ATOM     13  C   UNL     1      -2.576  13.318  21.732  0.00  0.00    +0.000 A 
ATOM     14  C   UNL     1      -3.235  12.574  20.632  0.00  0.00    +0.000 A 
ATOM     15  O   UNL     1      -4.459  12.567  20.608  0.00  0.00    +0.000 OA
BRANCH   5  19
ATOM     16  C   UNL     1      -3.402  10.240  15.954  0.00  0.00    +0.000 A 
ATOM     17  C   UNL     1      -4.261  11.151  16.580  0.00  0.00    +0.000 A 
ATOM     18  C   UNL     1      -3.910  11.751  17.795  0.00  0.00    +0.000 A 
ATOM     19  C   UNL     1      -2.721  11.420  18.448  0.00  0.00    +0.000 A 
ATOM     20  C   UNL     1      -1.874  10.503  17.809  0.00  0.00    +0.000 A 
ATOM     21  C   UNL     1      -2.199   9.913  16.582  0.00  0.00    +0.000 A 
BRANCH  16  23
ATOM     22  C   UNL     1      -2.974   9.853  13.662  0.00  0.00    +0.000 C 
ATOM     23  O   UNL     1      -3.852   9.721  14.783  0.00  0.00    +0.000 OA
ENDBRANCH  16  23
ENDBRANCH   5  19
ENDBRANCH   1   7
BRANCH   3  24
ATOM     24  C   UNL     1       0.977   8.600  21.653  0.00  0.00    +0.000 C 
BRANCH  24  25
ATOM     25  C   UNL     1       1.566   7.905  20.425  0.00  0.00    +0.000 C 
ATOM     26  O   UNL     1       1.652   8.511  19.357  0.00  0.00    +0.000 OA
ATOM     27  N   UNL     1       1.813   6.551  20.618  0.00  0.00    +0.000 N 
ATOM     28  H   UNL     1       1.434   6.138  21.466  0.00  0.00    +0.000 HD
BRANCH  27  29
ATOM     29  C   UNL     1       2.353   5.667  19.652  0.00  0.00    +0.000 A 
ATOM     30  C   UNL     1       1.546   4.914  18.800  0.00  0.00    +0.000 A 
ATOM     31  C   UNL     1       2.114   4.029  17.888  0.00  0.00    +0.000 A 
ATOM     32  C   UNL     1       3.495   3.873  17.829  0.00  0.00    +0.000 A 
ATOM     33  C   UNL     1       4.333   4.612  18.667  0.00  0.00    +0.000 A 
ATOM     34  C   UNL     1       3.752   5.542  19.552  0.00  0.00    +0.000 A 
BRANCH  33  35
ATOM     35  N   UNL     1       5.739   4.436  18.695  0.00  0.00    +0.000 N 
ATOM     36  C   UNL     1       6.668   5.087  17.896  0.00  0.00    +0.000 C 
ATOM     37  C   UNL     1       8.082   4.602  18.093  0.00  0.00    +0.000 C 
ATOM     38  O   UNL     1       6.448   5.986  17.089  0.00  0.00    +0.000 OA
ATOM     39  H   UNL     1       6.088   3.718  19.315  0.00  0.00    +0.000 HD
ENDBRANCH  33  35
ENDBRANCH  27  29
ENDBRANCH  24  25
ENDBRANCH   3  24
TORSDOF 7
ENDMDL
MODEL 7
REMARK VINA RESULT:      -9.1      2.546     10.340
REMARK  Name = 
REMARK  9 active torsions:
REMARK  status: ('A' for Active; 'I' for Inactive)
REMARK    1  A    between atoms: C_1  and  O_2
REMARK    2  A    between atoms: O_2  and  C_3
REMARK    3  A    between atoms: C_6  and  N_7
REMARK    4  A    between atoms: C_9  and  C_10
REMARK    5  A    between atoms: N_12  and  C_13
REMARK    6  A    between atoms: C_13  and  C_14
REMARK    7  A    between atoms: N_16  and  C_17
REMARK    8  A    between atoms: C_21  and  N_22
REMARK    9  A    between atoms: C_23  and  C_24
REMARK                            x       y       z     vdW  Elec       q    Type
REMARK                         _______ _______ _______ _____ _____    ______ ____
ROOT
ATOM      1  C   UNL     1      -0.359  10.967  22.303  0.00  0.00    +0.000 C 
ATOM      2  O   UNL     1      -0.615  10.799  23.478  0.00  0.00    +0.000 OA
ATOM      3  N   UNL     1       0.333  10.105  21.479  0.00  0.00    +0.000 N 
ATOM      4  H   UNL     1       0.325  10.336  20.487  0.00  0.00    +0.000 HD
ENDROOT
BRANCH   1   7
ATOM      5  N   UNL     1      -2.595  12.174  19.815  0.00  0.00    +0.000 N 
ATOM      6  N   UNL     1      -1.390  11.674  20.281  0.00  0.00    +0.000 NA
ATOM      7  C   UNL     1      -1.001  12.060  21.455  0.00  0.00    +0.000 A 
ATOM      8  C   UNL     1      -1.524  13.237  22.127  0.00  0.00    +0.000 A 
ATOM      9  C   UNL     1      -0.806  13.994  23.053  0.00  0.00    +0.000 A 
ATOM     10  C   UNL     1      -1.459  15.028  23.725  0.00  0.00    +0.000 A 
ATOM     11  C   UNL     1      -2.816  15.269  23.489  0.00  0.00    +0.000 A 
ATOM     12  C   UNL     1      -3.514  14.516  22.539  0.00  0.00    +0.000 A 
ATOM     13  C   UNL     1      -2.846  13.522  21.826  0.00  0.00    +0.000 A 
ATOM     14  C   UNL     1      -3.496  12.785  20.715  0.00  0.00    +0.000 A 
ATOM     15  O   UNL     1      -4.719  12.799  20.667  0.00  0.00    +0.000 OA
BRANCH   5  19
ATOM     16  C   UNL     1      -3.760  10.581  16.021  0.00  0.00    +0.000 A 
ATOM     17  C   UNL     1      -2.480  10.332  16.530  0.00  0.00    +0.000 A 
ATOM     18  C   UNL     1      -2.097  10.822  17.785  0.00  0.00    +0.000 A 
ATOM     19  C   UNL     1      -2.959  11.617  18.543  0.00  0.00    +0.000 A 
ATOM     20  C   UNL     1      -4.236  11.860  18.018  0.00  0.00    +0.000 A 
ATOM     21  C   UNL     1      -4.642  11.357  16.775  0.00  0.00    +0.000 A 
BRANCH  16  23
ATOM     22  C   UNL     1      -2.882   9.916  13.930  0.00  0.00    +0.000 C 
ATOM     23  O   UNL     1      -4.013  10.059  14.794  0.00  0.00    +0.000 OA
ENDBRANCH  16  23
ENDBRANCH   5  19
ENDBRANCH   1   7
BRANCH   3  24
ATOM     24  C   UNL     1       0.607   8.735  21.829  0.00  0.00    +0.000 C 
BRANCH  24  25
ATOM     25  C   UNL     1       1.304   8.049  20.653  0.00  0.00    +0.000 C 
ATOM     26  O   UNL     1       1.431   8.641  19.582  0.00  0.00    +0.000 OA
ATOM     27  N   UNL     1       1.598   6.711  20.886  0.00  0.00    +0.000 N 
ATOM     28  H   UNL     1       1.185   6.294  21.716  0.00  0.00    +0.000 HD
BRANCH  27  29
ATOM     29  C   UNL     1       2.238   5.838  19.972  0.00  0.00    +0.000 A 
ATOM     30  C   UNL     1       1.727   4.577  19.668  0.00  0.00    +0.000 A 
ATOM     31  C   UNL     1       2.404   3.732  18.792  0.00  0.00    +0.000 A 
ATOM     32  C   UNL     1       3.610   4.132  18.224  0.00  0.00    +0.000 A 
ATOM     33  C   UNL     1       4.149   5.389  18.507  0.00  0.00    +0.000 A 
ATOM     34  C   UNL     1       3.432   6.256  19.355  0.00  0.00    +0.000 A 
BRANCH  33  35
ATOM     35  N   UNL     1       5.408   5.812  18.011  0.00  0.00    +0.000 N 
ATOM     36  C   UNL     1       6.620   5.760  18.684  0.00  0.00    +0.000 C 
ATOM     37  C   UNL     1       7.762   6.386  17.924  0.00  0.00    +0.000 C 
ATOM     38  O   UNL     1       6.832   5.264  19.787  0.00  0.00    +0.000 OA
ATOM     39  H   UNL     1       5.405   6.253  17.101  0.00  0.00    +0.000 HD
ENDBRANCH  33  35
ENDBRANCH  27  29
ENDBRANCH  24  25
ENDBRANCH   3  24
TORSDOF 7
ENDMDL
MODEL 8
REMARK VINA RESULT:      -9.0      1.987      2.305
REMARK  Name = 
REMARK  9 active torsions:
REMARK  status: ('A' for Active; 'I' for Inactive)
REMARK    1  A    between atoms: C_1  and  O_2
REMARK    2  A    between atoms: O_2  and  C_3
REMARK    3  A    between atoms: C_6  and  N_7
REMARK    4  A    between atoms: C_9  and  C_10
REMARK    5  A    between atoms: N_12  and  C_13
REMARK    6  A    between atoms: C_13  and  C_14
REMARK    7  A    between atoms: N_16  and  C_17
REMARK    8  A    between atoms: C_21  and  N_22
REMARK    9  A    between atoms: C_23  and  C_24
REMARK                            x       y       z     vdW  Elec       q    Type
REMARK                         _______ _______ _______ _____ _____    ______ ____
ROOT
ATOM      1  C   UNL     1       2.024   7.052  19.182  0.00  0.00    +0.000 C 
ATOM      2  O   UNL     1       2.037   7.385  20.350  0.00  0.00    +0.000 OA
ATOM      3  N   UNL     1       1.872   7.881  18.090  0.00  0.00    +0.000 N 
ATOM      4  H   UNL     1       2.035   7.454  17.181  0.00  0.00    +0.000 HD
ENDROOT
BRANCH   1   7
ATOM      5  N   UNL     1       4.328   4.725  17.796  0.00  0.00    +0.000 N 
ATOM      6  N   UNL     1       3.320   5.674  17.743  0.00  0.00    +0.000 NA
ATOM      7  C   UNL     1       2.448   5.668  18.701  0.00  0.00    +0.000 A 
ATOM      8  C   UNL     1       2.233   4.535  19.585  0.00  0.00    +0.000 A 
ATOM      9  C   UNL     1       1.020   4.249  20.210  0.00  0.00    +0.000 A 
ATOM     10  C   UNL     1       0.971   3.206  21.135  0.00  0.00    +0.000 A 
ATOM     11  C   UNL     1       2.131   2.489  21.444  0.00  0.00    +0.000 A 
ATOM     12  C   UNL     1       3.333   2.774  20.789  0.00  0.00    +0.000 A 
ATOM     13  C   UNL     1       3.368   3.778  19.823  0.00  0.00    +0.000 A 
ATOM     14  C   UNL     1       4.577   4.032  19.002  0.00  0.00    +0.000 A 
ATOM     15  O   UNL     1       5.645   3.606  19.422  0.00  0.00    +0.000 OA
BRANCH   5  19
ATOM     16  C   UNL     1       7.087   5.125  14.554  0.00  0.00    +0.000 A 
ATOM     17  C   UNL     1       7.208   5.935  15.690  0.00  0.00    +0.000 A 
ATOM     18  C   UNL     1       6.329   5.792  16.771  0.00  0.00    +0.000 A 
ATOM     19  C   UNL     1       5.275   4.876  16.729  0.00  0.00    +0.000 A 
ATOM     20  C   UNL     1       5.167   4.076  15.583  0.00  0.00    +0.000 A 
ATOM     21  C   UNL     1       6.053   4.190  14.504  0.00  0.00    +0.000 A 
BRANCH  16  23
ATOM     22  C   UNL     1       7.647   4.871  12.272  0.00  0.00    +0.000 C 
ATOM     23  O   UNL     1       7.993   5.360  13.571  0.00  0.00    +0.000 OA
ENDBRANCH  16  23
ENDBRANCH   5  19
ENDBRANCH   1   7
BRANCH   3  24
ATOM     24  C   UNL     1       1.992   9.314  18.170  0.00  0.00    +0.000 C 
BRANCH  24  25
ATOM     25  C   UNL     1       0.618   9.916  18.461  0.00  0.00    +0.000 C 
ATOM     26  O   UNL     1      -0.313   9.733  17.677  0.00  0.00    +0.000 OA
ATOM     27  N   UNL     1       0.606  10.771  19.556  0.00  0.00    +0.000 N 
ATOM     28  H   UNL     1       1.512  11.033  19.936  0.00  0.00    +0.000 HD
BRANCH  27  29
ATOM     29  C   UNL     1      -0.528  11.465  20.048  0.00  0.00    +0.000 A 
ATOM     30  C   UNL     1      -1.682  11.635  19.286  0.00  0.00    +0.000 A 
ATOM     31  C   UNL     1      -2.762  12.354  19.790  0.00  0.00    +0.000 A 
ATOM     32  C   UNL     1      -2.693  12.926  21.057  0.00  0.00    +0.000 A 
ATOM     33  C   UNL     1      -1.552  12.774  21.847  0.00  0.00    +0.000 A 
ATOM     34  C   UNL     1      -0.484  12.003  21.348  0.00  0.00    +0.000 A 
BRANCH  33  35
ATOM     35  N   UNL     1      -1.407  13.398  23.112  0.00  0.00    +0.000 N 
ATOM     36  C   UNL     1      -1.509  14.755  23.379  0.00  0.00    +0.000 C 
ATOM     37  C   UNL     1      -1.196  15.116  24.809  0.00  0.00    +0.000 C 
ATOM     38  O   UNL     1      -1.825  15.642  22.590  0.00  0.00    +0.000 OA
ATOM     39  H   UNL     1      -1.139  12.796  23.879  0.00  0.00    +0.000 HD
ENDBRANCH  33  35
ENDBRANCH  27  29
ENDBRANCH  24  25
ENDBRANCH   3  24
TORSDOF 7
ENDMDL
MODEL 9
REMARK VINA RESULT:      -9.0      4.581      8.538
REMARK  Name = 
REMARK  9 active torsions:
REMARK  status: ('A' for Active; 'I' for Inactive)
REMARK    1  A    between atoms: C_1  and  O_2
REMARK    2  A    between atoms: O_2  and  C_3
REMARK    3  A    between atoms: C_6  and  N_7
REMARK    4  A    between atoms: C_9  and  C_10
REMARK    5  A    between atoms: N_12  and  C_13
REMARK    6  A    between atoms: C_13  and  C_14
REMARK    7  A    between atoms: N_16  and  C_17
REMARK    8  A    between atoms: C_21  and  N_22
REMARK    9  A    between atoms: C_23  and  C_24
REMARK                            x       y       z     vdW  Elec       q    Type
REMARK                         _______ _______ _______ _____ _____    ______ ____
ROOT
ATOM      1  C   UNL     1       6.086   5.131  18.003  0.00  0.00    +0.000 C 
ATOM      2  O   UNL     1       6.348   4.409  17.062  0.00  0.00    +0.000 OA
ATOM      3  N   UNL     1       6.801   6.233  18.421  0.00  0.00    +0.000 N 
ATOM      4  H   UNL     1       6.355   6.808  19.133  0.00  0.00    +0.000 HD
ENDROOT
BRANCH   1   7
ATOM      5  N   UNL     1       2.805   6.310  18.706  0.00  0.00    +0.000 N 
ATOM      6  N   UNL     1       4.180   6.254  18.872  0.00  0.00    +0.000 NA
ATOM      7  C   UNL     1       4.747   5.098  18.734  0.00  0.00    +0.000 A 
ATOM      8  C   UNL     1       4.030   3.837  18.802  0.00  0.00    +0.000 A 
ATOM      9  C   UNL     1       4.599   2.632  19.215  0.00  0.00    +0.000 A 
ATOM     10  C   UNL     1       3.843   1.464  19.118  0.00  0.00    +0.000 A 
ATOM     11  C   UNL     1       2.551   1.509  18.583  0.00  0.00    +0.000 A 
ATOM     12  C   UNL     1       1.988   2.728  18.196  0.00  0.00    +0.000 A 
ATOM     13  C   UNL     1       2.722   3.904  18.349  0.00  0.00    +0.000 A 
ATOM     14  C   UNL     1       2.129   5.237  18.083  0.00  0.00    +0.000 A 
ATOM     15  O   UNL     1       1.121   5.279  17.390  0.00  0.00    +0.000 OA
BRANCH   5  19
ATOM     16  C   UNL     1       1.288  10.288  19.100  0.00  0.00    +0.000 A 
ATOM     17  C   UNL     1       1.957   9.899  17.934  0.00  0.00    +0.000 A 
ATOM     18  C   UNL     1       2.432   8.590  17.781  0.00  0.00    +0.000 A 
ATOM     19  C   UNL     1       2.299   7.649  18.805  0.00  0.00    +0.000 A 
ATOM     20  C   UNL     1       1.629   8.056  19.966  0.00  0.00    +0.000 A 
ATOM     21  C   UNL     1       1.127   9.354  20.125  0.00  0.00    +0.000 A 
BRANCH  16  23
ATOM     22  C   UNL     1       1.737  12.527  18.489  0.00  0.00    +0.000 C 
ATOM     23  O   UNL     1       0.879  11.582  19.135  0.00  0.00    +0.000 OA
ENDBRANCH  16  23
ENDBRANCH   5  19
ENDBRANCH   1   7
BRANCH   3  24
ATOM     24  C   UNL     1       7.819   6.860  17.618  0.00  0.00    +0.000 C 
BRANCH  24  25
ATOM     25  C   UNL     1       7.828   8.362  17.905  0.00  0.00    +0.000 C 
ATOM     26  O   UNL     1       7.028   9.102  17.333  0.00  0.00    +0.000 OA
ATOM     27  N   UNL     1       8.888   8.768  18.705  0.00  0.00    +0.000 N 
ATOM     28  H   UNL     1       9.618   8.080  18.873  0.00  0.00    +0.000 HD
BRANCH  27  29
ATOM     29  C   UNL     1       9.141  10.097  19.125  0.00  0.00    +0.000 A 
ATOM     30  C   UNL     1       9.502  11.103  18.230  0.00  0.00    +0.000 A 
ATOM     31  C   UNL     1       9.778  12.389  18.685  0.00  0.00    +0.000 A 
ATOM     32  C   UNL     1       9.713  12.681  20.045  0.00  0.00    +0.000 A 
ATOM     33  C   UNL     1       9.353  11.697  20.968  0.00  0.00    +0.000 A 
ATOM     34  C   UNL     1       9.027  10.411  20.493  0.00  0.00    +0.000 A 
BRANCH  33  35
ATOM     35  N   UNL     1       9.343  11.926  22.367  0.00  0.00    +0.000 N 
ATOM     36  C   UNL     1       8.222  12.083  23.170  0.00  0.00    +0.000 C 
ATOM     37  C   UNL     1       8.545  12.420  24.603  0.00  0.00    +0.000 C 
ATOM     38  O   UNL     1       7.048  11.967  22.829  0.00  0.00    +0.000 OA
ATOM     39  H   UNL     1      10.245  12.050  22.807  0.00  0.00    +0.000 HD
ENDBRANCH  33  35
ENDBRANCH  27  29
ENDBRANCH  24  25
ENDBRANCH   3  24
TORSDOF 7
ENDMDL
