MODEL 1
REMARK VINA RESULT:      -6.5      0.000      0.000
REMARK  Name = 
REMARK  7 active torsions:
REMARK  status: ('A' for Active; 'I' for Inactive)
REMARK    1  A    between atoms: C_1  and  O_2
REMARK    2  A    between atoms: O_2  and  C_3
REMARK    3  A    between atoms: C_11  and  C_12
REMARK    4  A    between atoms: N_14  and  C_15
REMARK    5  A    between atoms: N_14  and  C_22
REMARK    6  A    between atoms: C_15  and  C_16
REMARK    7  A    between atoms: N_19  and  C_20
REMARK                            x       y       z     vdW  Elec       q    Type
REMARK                         _______ _______ _______ _____ _____    ______ ____
ROOT
ATOM      1  C   UNL     1       2.549   7.634  18.774  0.00  0.00    +0.000 C 
ATOM      2  O   UNL     1       2.068   7.761  19.901  0.00  0.00    +0.000 OA
ATOM      3  N   UNL     1       3.479   6.617  18.485  0.00  0.00    +0.000 N 
ENDROOT
BRANCH   1  12
ATOM      4  C   UNL     1       0.076  12.009  19.136  0.00  0.00    +0.000 A 
ATOM      5  C   UNL     1      -1.310  12.108  19.068  0.00  0.00    +0.000 A 
ATOM      6  C   UNL     1      -2.076  11.082  18.496  0.00  0.00    +0.000 A 
ATOM      7  C   UNL     1      -1.446   9.949  17.988  0.00  0.00    +0.000 A 
ATOM      8  C   UNL     1      -0.054   9.822  18.065  0.00  0.00    +0.000 A 
ATOM      9  C   UNL     1       0.701  10.853  18.648  0.00  0.00    +0.000 A 
ATOM     10  O   UNL     1       2.046  10.721  18.837  0.00  0.00    +0.000 OA
ATOM     11  C   UNL     1       2.696   9.962  17.831  0.00  0.00    +0.000 C 
ATOM     12  C   UNL     1       2.106   8.574  17.644  0.00  0.00    +0.000 C 
ATOM     13  C   UNL     1       0.595   8.601  17.486  0.00  0.00    +0.000 C 
BRANCH   4  15
ATOM     14  C   UNL     1       0.465  14.353  19.095  0.00  0.00    +0.000 C 
ATOM     15  O   UNL     1       0.702  13.088  19.710  0.00  0.00    +0.000 OA
ENDBRANCH   4  15
ENDBRANCH   1  12
BRANCH   3  16
ATOM     16  C   UNL     1       4.272   6.597  17.226  0.00  0.00    +0.000 C 
ATOM     17  C   UNL     1       5.674   7.237  17.397  0.00  0.00    +0.000 C 
ATOM     18  C   UNL     1       6.674   6.322  18.076  0.00  0.00    +0.000 C 
ATOM     19  C   UNL     1       6.844   5.028  17.310  0.00  0.00    +0.000 C 
ATOM     20  C   UNL     1       5.519   4.325  17.025  0.00  0.00    +0.000 C 
ATOM     21  C   UNL     1       4.429   5.253  16.481  0.00  0.00    +0.000 C 
ENDBRANCH   3  16
BRANCH   3  22
ATOM     22  C   UNL     1       3.836   5.742  19.615  0.00  0.00    +0.000 C 
BRANCH  22  23
ATOM     23  C   UNL     1       2.897   4.599  19.838  0.00  0.00    +0.000 A 
ATOM     24  C   UNL     1       2.004   4.452  20.928  0.00  0.00    +0.000 A 
ATOM     25  N   UNL     1       1.162   3.429  20.775  0.00  0.00    +0.000 NA
ATOM     26  N   UNL     1       1.473   2.948  19.559  0.00  0.00    +0.000 N 
ATOM     27  C   UNL     1       0.533   2.096  18.868  0.00  0.00    +0.000 C 
ATOM     28  C   UNL     1       2.585   3.529  19.016  0.00  0.00    +0.000 A 
ENDBRANCH  22  23
ENDBRANCH   3  22
TORSDOF 5
ENDMDL
MODEL 2
REMARK VINA RESULT:      -6.5      2.092      3.964
REMARK  Name = 
REMARK  7 active torsions:
REMARK  status: ('A' for Active; 'I' for Inactive)
REMARK    1  A    between atoms: C_1  and  O_2
REMARK    2  A    between atoms: O_2  and  C_3
REMARK    3  A    between atoms: C_11  and  C_12
REMARK    4  A    between atoms: N_14  and  C_15
REMARK    5  A    between atoms: N_14  and  C_22
REMARK    6  A    between atoms: C_15  and  C_16
REMARK    7  A    between atoms: N_19  and  C_20
REMARK                            x       y       z     vdW  Elec       q    Type
REMARK                         _______ _______ _______ _____ _____    ______ ____
ROOT
ATOM      1  C   UNL     1       3.306   6.969  18.344  0.00  0.00    +0.000 C 
ATOM      2  O   UNL     1       4.088   7.758  17.810  0.00  0.00    +0.000 OA
ATOM      3  N   UNL     1       3.759   5.765  18.918  0.00  0.00    +0.000 N 
ENDROOT
BRANCH   1  12
ATOM      4  C   UNL     1       1.172  11.381  19.512  0.00  0.00    +0.000 A 
ATOM      5  C   UNL     1       0.797  11.727  20.807  0.00  0.00    +0.000 A 
ATOM      6  C   UNL     1       0.610  10.742  21.787  0.00  0.00    +0.000 A 
ATOM      7  C   UNL     1       0.800   9.400  21.466  0.00  0.00    +0.000 A 
ATOM      8  C   UNL     1       1.196   9.034  20.174  0.00  0.00    +0.000 A 
ATOM      9  C   UNL     1       1.389  10.031  19.203  0.00  0.00    +0.000 A 
ATOM     10  O   UNL     1       1.876   9.725  17.966  0.00  0.00    +0.000 OA
ATOM     11  C   UNL     1       1.467   8.455  17.486  0.00  0.00    +0.000 C 
ATOM     12  C   UNL     1       1.813   7.312  18.426  0.00  0.00    +0.000 C 
ATOM     13  C   UNL     1       1.368   7.580  19.854  0.00  0.00    +0.000 C 
BRANCH   4  15
ATOM     14  C   UNL     1       0.146  13.242  18.448  0.00  0.00    +0.000 C 
ATOM     15  O   UNL     1       1.309  12.442  18.650  0.00  0.00    +0.000 OA
ENDBRANCH   4  15
ENDBRANCH   1  12
BRANCH   3  16
ATOM     16  C   UNL     1       2.827   4.680  19.328  0.00  0.00    +0.000 C 
ATOM     17  C   UNL     1       1.924   4.199  18.163  0.00  0.00    +0.000 C 
ATOM     18  C   UNL     1       2.632   3.268  17.198  0.00  0.00    +0.000 C 
ATOM     19  C   UNL     1       3.165   2.043  17.909  0.00  0.00    +0.000 C 
ATOM     20  C   UNL     1       4.029   2.384  19.121  0.00  0.00    +0.000 C 
ATOM     21  C   UNL     1       3.415   3.442  20.042  0.00  0.00    +0.000 C 
ENDBRANCH   3  16
BRANCH   3  22
ATOM     22  C   UNL     1       5.208   5.518  18.820  0.00  0.00    +0.000 C 
BRANCH  22  23
ATOM     23  C   UNL     1       5.739   5.476  17.422  0.00  0.00    +0.000 A 
ATOM     24  C   UNL     1       6.998   5.962  16.992  0.00  0.00    +0.000 A 
ATOM     25  N   UNL     1       7.280   5.629  15.732  0.00  0.00    +0.000 NA
ATOM     26  N   UNL     1       6.227   4.878  15.364  0.00  0.00    +0.000 N 
ATOM     27  C   UNL     1       6.337   4.010  14.215  0.00  0.00    +0.000 C 
ATOM     28  C   UNL     1       5.223   4.865  16.292  0.00  0.00    +0.000 A 
ENDBRANCH  22  23
ENDBRANCH   3  22
TORSDOF 5
ENDMDL
MODEL 3
REMARK VINA RESULT:      -6.4      2.432      4.547
REMARK  Name = 
REMARK  7 active torsions:
REMARK  status: ('A' for Active; 'I' for Inactive)
REMARK    1  A    between atoms: C_1  and  O_2
REMARK    2  A    between atoms: O_2  and  C_3
REMARK    3  A    between atoms: C_11  and  C_12
REMARK    4  A    between atoms: N_14  and  C_15
REMARK    5  A    between atoms: N_14  and  C_22
REMARK    6  A    between atoms: C_15  and  C_16
REMARK    7  A    between atoms: N_19  and  C_20
REMARK                            x       y       z     vdW  Elec       q    Type
REMARK                         _______ _______ _______ _____ _____    ______ ____
ROOT
ATOM      1  C   UNL     1       3.522   6.113  18.353  0.00  0.00    +0.000 C 
ATOM      2  O   UNL     1       4.344   7.009  18.554  0.00  0.00    +0.000 OA
ATOM      3  N   UNL     1       3.928   4.817  17.978  0.00  0.00    +0.000 N 
ENDROOT
BRANCH   1  12
ATOM      4  C   UNL     1       1.281  10.473  19.516  0.00  0.00    +0.000 A 
ATOM      5  C   UNL     1       1.001  10.860  20.823  0.00  0.00    +0.000 A 
ATOM      6  C   UNL     1       0.947   9.914  21.856  0.00  0.00    +0.000 A 
ATOM      7  C   UNL     1       1.174   8.569  21.577  0.00  0.00    +0.000 A 
ATOM      8  C   UNL     1       1.476   8.162  20.271  0.00  0.00    +0.000 A 
ATOM      9  C   UNL     1       1.536   9.121  19.246  0.00  0.00    +0.000 A 
ATOM     10  O   UNL     1       1.931   8.780  17.985  0.00  0.00    +0.000 OA
ATOM     11  C   UNL     1       1.546   7.473  17.596  0.00  0.00    +0.000 C 
ATOM     12  C   UNL     1       2.026   6.391  18.550  0.00  0.00    +0.000 C 
ATOM     13  C   UNL     1       1.691   6.704  19.999  0.00  0.00    +0.000 C 
BRANCH   4  15
ATOM     14  C   UNL     1       2.063  12.644  18.952  0.00  0.00    +0.000 C 
ATOM     15  O   UNL     1       1.292  11.497  18.602  0.00  0.00    +0.000 OA
ENDBRANCH   4  15
ENDBRANCH   1  12
BRANCH   3  16
ATOM     16  C   UNL     1       2.969   3.797  17.475  0.00  0.00    +0.000 C 
ATOM     17  C   UNL     1       3.480   2.348  17.684  0.00  0.00    +0.000 C 
ATOM     18  C   UNL     1       3.310   1.849  19.106  0.00  0.00    +0.000 C 
ATOM     19  C   UNL     1       1.860   1.898  19.536  0.00  0.00    +0.000 C 
ATOM     20  C   UNL     1       1.220   3.268  19.325  0.00  0.00    +0.000 C 
ATOM     21  C   UNL     1       1.501   3.878  17.948  0.00  0.00    +0.000 C 
ENDBRANCH   3  16
BRANCH   3  22
ATOM     22  C   UNL     1       5.381   4.623  17.832  0.00  0.00    +0.000 C 
BRANCH  22  23
ATOM     23  C   UNL     1       5.898   4.813  16.441  0.00  0.00    +0.000 A 
ATOM     24  C   UNL     1       7.122   5.429  16.082  0.00  0.00    +0.000 A 
ATOM     25  N   UNL     1       7.409   5.297  14.786  0.00  0.00    +0.000 NA
ATOM     26  N   UNL     1       6.398   4.546  14.317  0.00  0.00    +0.000 N 
ATOM     27  C   UNL     1       6.545   3.859  13.055  0.00  0.00    +0.000 C 
ATOM     28  C   UNL     1       5.406   4.340  15.237  0.00  0.00    +0.000 A 
ENDBRANCH  22  23
ENDBRANCH   3  22
TORSDOF 5
ENDMDL
MODEL 4
REMARK VINA RESULT:      -6.3      2.256      4.313
REMARK  Name = 
REMARK  7 active torsions:
REMARK  status: ('A' for Active; 'I' for Inactive)
REMARK    1  A    between atoms: C_1  and  O_2
REMARK    2  A    between atoms: O_2  and  C_3
REMARK    3  A    between atoms: C_11  and  C_12
REMARK    4  A    between atoms: N_14  and  C_15
REMARK    5  A    between atoms: N_14  and  C_22
REMARK    6  A    between atoms: C_15  and  C_16
REMARK    7  A    between atoms: N_19  and  C_20
REMARK                            x       y       z     vdW  Elec       q    Type
REMARK                         _______ _______ _______ _____ _____    ______ ____
ROOT
ATOM      1  C   UNL     1       3.496   6.390  18.635  0.00  0.00    +0.000 C 
ATOM      2  O   UNL     1       4.289   7.310  18.428  0.00  0.00    +0.000 OA
ATOM      3  N   UNL     1       3.941   5.067  18.821  0.00  0.00    +0.000 N 
ENDROOT
BRANCH   1  12
ATOM      4  C   UNL     1       1.220  10.829  19.337  0.00  0.00    +0.000 A 
ATOM      5  C   UNL     1       0.874  11.318  20.594  0.00  0.00    +0.000 A 
ATOM      6  C   UNL     1       0.761  10.455  21.693  0.00  0.00    +0.000 A 
ATOM      7  C   UNL     1       0.995   9.092  21.531  0.00  0.00    +0.000 A 
ATOM      8  C   UNL     1       1.363   8.585  20.278  0.00  0.00    +0.000 A 
ATOM      9  C   UNL     1       1.482   9.460  19.187  0.00  0.00    +0.000 A 
ATOM     10  O   UNL     1       1.940   9.023  17.979  0.00  0.00    +0.000 OA
ATOM     11  C   UNL     1       1.569   7.689  17.672  0.00  0.00    +0.000 C 
ATOM     12  C   UNL     1       1.993   6.685  18.731  0.00  0.00    +0.000 C 
ATOM     13  C   UNL     1       1.584   7.109  20.132  0.00  0.00    +0.000 C 
BRANCH   4  15
ATOM     14  C   UNL     1       2.459  12.588  18.328  0.00  0.00    +0.000 C 
ATOM     15  O   UNL     1       1.284  11.780  18.349  0.00  0.00    +0.000 OA
ENDBRANCH   4  15
ENDBRANCH   1  12
BRANCH   3  16
ATOM     16  C   UNL     1       3.013   3.905  18.806  0.00  0.00    +0.000 C 
ATOM     17  C   UNL     1       3.729   2.567  19.126  0.00  0.00    +0.000 C 
ATOM     18  C   UNL     1       4.001   2.369  20.605  0.00  0.00    +0.000 C 
ATOM     19  C   UNL     1       2.719   2.415  21.410  0.00  0.00    +0.000 C 
ATOM     20  C   UNL     1       1.888   3.666  21.138  0.00  0.00    +0.000 C 
ATOM     21  C   UNL     1       1.721   3.989  19.650  0.00  0.00    +0.000 C 
ENDBRANCH   3  16
BRANCH   3  22
ATOM     22  C   UNL     1       5.398   4.869  18.737  0.00  0.00    +0.000 C 
BRANCH  22  23
ATOM     23  C   UNL     1       5.951   4.883  17.347  0.00  0.00    +0.000 A 
ATOM     24  C   UNL     1       7.320   4.946  16.993  0.00  0.00    +0.000 A 
ATOM     25  N   UNL     1       7.529   4.761  15.689  0.00  0.00    +0.000 NA
ATOM     26  N   UNL     1       6.297   4.522  15.206  0.00  0.00    +0.000 N 
ATOM     27  C   UNL     1       6.146   3.892  13.916  0.00  0.00    +0.000 C 
ATOM     28  C   UNL     1       5.308   4.711  16.133  0.00  0.00    +0.000 A 
ENDBRANCH  22  23
ENDBRANCH   3  22
TORSDOF 5
ENDMDL
MODEL 5
REMARK VINA RESULT:      -6.2      3.066      7.550
REMARK  Name = 
REMARK  7 active torsions:
REMARK  status: ('A' for Active; 'I' for Inactive)
REMARK    1  A    between atoms: C_1  and  O_2
REMARK    2  A    between atoms: O_2  and  C_3
REMARK    3  A    between atoms: C_11  and  C_12
REMARK    4  A    between atoms: N_14  and  C_15
REMARK    5  A    between atoms: N_14  and  C_22
REMARK    6  A    between atoms: C_15  and  C_16
REMARK    7  A    between atoms: N_19  and  C_20
REMARK                            x       y       z     vdW  Elec       q    Type
REMARK                         _______ _______ _______ _____ _____    ______ ____
ROOT
ATOM      1  C   UNL     1       5.291   4.982  18.866  0.00  0.00    +0.000 C 
ATOM      2  O   UNL     1       5.902   6.008  19.173  0.00  0.00    +0.000 OA
ATOM      3  N   UNL     1       3.926   4.822  19.177  0.00  0.00    +0.000 N 
ENDROOT
BRANCH   1  12
ATOM      4  C   UNL     1       7.257   5.147  14.231  0.00  0.00    +0.000 A 
ATOM      5  C   UNL     1       6.551   4.775  13.091  0.00  0.00    +0.000 A 
ATOM      6  C   UNL     1       5.416   3.959  13.184  0.00  0.00    +0.000 A 
ATOM      7  C   UNL     1       4.984   3.512  14.430  0.00  0.00    +0.000 A 
ATOM      8  C   UNL     1       5.670   3.892  15.591  0.00  0.00    +0.000 A 
ATOM      9  C   UNL     1       6.801   4.717  15.485  0.00  0.00    +0.000 A 
ATOM     10  O   UNL     1       7.432   5.194  16.596  0.00  0.00    +0.000 OA
ATOM     11  C   UNL     1       7.411   4.301  17.697  0.00  0.00    +0.000 C 
ATOM     12  C   UNL     1       6.011   3.866  18.097  0.00  0.00    +0.000 C 
ATOM     13  C   UNL     1       5.195   3.373  16.914  0.00  0.00    +0.000 C 
BRANCH   4  15
ATOM     14  C   UNL     1       8.808   5.999  12.644  0.00  0.00    +0.000 C 
ATOM     15  O   UNL     1       8.355   5.938  13.995  0.00  0.00    +0.000 OA
ENDBRANCH   4  15
ENDBRANCH   1  12
BRANCH   3  16
ATOM     16  C   UNL     1       3.233   3.511  19.063  0.00  0.00    +0.000 C 
ATOM     17  C   UNL     1       3.505   2.587  20.278  0.00  0.00    +0.000 C 
ATOM     18  C   UNL     1       2.685   2.947  21.502  0.00  0.00    +0.000 C 
ATOM     19  C   UNL     1       1.202   2.900  21.204  0.00  0.00    +0.000 C 
ATOM     20  C   UNL     1       0.812   3.729  19.983  0.00  0.00    +0.000 C 
ATOM     21  C   UNL     1       1.717   3.508  18.767  0.00  0.00    +0.000 C 
ENDBRANCH   3  16
BRANCH   3  22
ATOM     22  C   UNL     1       3.301   5.946  19.895  0.00  0.00    +0.000 C 
BRANCH  22  23
ATOM     23  C   UNL     1       2.882   7.087  19.022  0.00  0.00    +0.000 A 
ATOM     24  C   UNL     1       3.137   7.214  17.635  0.00  0.00    +0.000 A 
ATOM     25  N   UNL     1       2.492   8.242  17.081  0.00  0.00    +0.000 NA
ATOM     26  N   UNL     1       1.775   8.747  18.100  0.00  0.00    +0.000 N 
ATOM     27  C   UNL     1       0.655   9.615  17.823  0.00  0.00    +0.000 C 
ATOM     28  C   UNL     1       2.072   8.173  19.306  0.00  0.00    +0.000 A 
ENDBRANCH  22  23
ENDBRANCH   3  22
TORSDOF 5
ENDMDL
MODEL 6
REMARK VINA RESULT:      -6.0      1.030      1.172
REMARK  Name = 
REMARK  7 active torsions:
REMARK  status: ('A' for Active; 'I' for Inactive)
REMARK    1  A    between atoms: C_1  and  O_2
REMARK    2  A    between atoms: O_2  and  C_3
REMARK    3  A    between atoms: C_11  and  C_12
REMARK    4  A    between atoms: N_14  and  C_15
REMARK    5  A    between atoms: N_14  and  C_22
REMARK    6  A    between atoms: C_15  and  C_16
REMARK    7  A    between atoms: N_19  and  C_20
REMARK                            x       y       z     vdW  Elec       q    Type
REMARK                         _______ _______ _______ _____ _____    ______ ____
ROOT
ATOM      1  C   UNL     1       2.523   7.748  18.692  0.00  0.00    +0.000 C 
ATOM      2  O   UNL     1       1.921   7.699  19.766  0.00  0.00    +0.000 OA
ATOM      3  N   UNL     1       3.574   6.857  18.400  0.00  0.00    +0.000 N 
ENDROOT
BRANCH   1  12
ATOM      4  C   UNL     1      -0.278  11.896  19.274  0.00  0.00    +0.000 A 
ATOM      5  C   UNL     1      -1.658  11.913  19.098  0.00  0.00    +0.000 A 
ATOM      6  C   UNL     1      -2.301  10.907  18.363  0.00  0.00    +0.000 A 
ATOM      7  C   UNL     1      -1.554   9.875  17.801  0.00  0.00    +0.000 A 
ATOM      8  C   UNL     1      -0.166   9.830  17.984  0.00  0.00    +0.000 A 
ATOM      9  C   UNL     1       0.465  10.839  18.729  0.00  0.00    +0.000 A 
ATOM     10  O   UNL     1       1.797  10.773  19.019  0.00  0.00    +0.000 OA
ATOM     11  C   UNL     1       2.576  10.167  18.002  0.00  0.00    +0.000 C 
ATOM     12  C   UNL     1       2.104   8.772  17.628  0.00  0.00    +0.000 C 
ATOM     13  C   UNL     1       0.612   8.720  17.344  0.00  0.00    +0.000 C 
BRANCH   4  15
ATOM     14  C   UNL     1      -0.721  13.938  20.405  0.00  0.00    +0.000 C 
ATOM     15  O   UNL     1       0.222  12.946  20.004  0.00  0.00    +0.000 OA
ENDBRANCH   4  15
ENDBRANCH   1  12
BRANCH   3  16
ATOM     16  C   UNL     1       4.488   7.055  17.243  0.00  0.00    +0.000 C 
ATOM     17  C   UNL     1       5.949   7.333  17.679  0.00  0.00    +0.000 C 
ATOM     18  C   UNL     1       6.700   6.084  18.096  0.00  0.00    +0.000 C 
ATOM     19  C   UNL     1       6.735   5.064  16.978  0.00  0.00    +0.000 C 
ATOM     20  C   UNL     1       5.351   4.746  16.418  0.00  0.00    +0.000 C 
ATOM     21  C   UNL     1       4.498   5.985  16.128  0.00  0.00    +0.000 C 
ENDBRANCH   3  16
BRANCH   3  22
ATOM     22  C   UNL     1       3.901   5.890  19.462  0.00  0.00    +0.000 C 
BRANCH  22  23
ATOM     23  C   UNL     1       3.399   4.503  19.218  0.00  0.00    +0.000 A 
ATOM     24  C   UNL     1       2.238   4.152  18.486  0.00  0.00    +0.000 A 
ATOM     25  N   UNL     1       2.134   2.839  18.276  0.00  0.00    +0.000 NA
ATOM     26  N   UNL     1       3.258   2.345  18.824  0.00  0.00    +0.000 N 
ATOM     27  C   UNL     1       3.706   1.020  18.462  0.00  0.00    +0.000 C 
ATOM     28  C   UNL     1       3.981   3.281  19.511  0.00  0.00    +0.000 A 
ENDBRANCH  22  23
ENDBRANCH   3  22
TORSDOF 5
ENDMDL
MODEL 7
REMARK VINA RESULT:      -6.0      7.438      8.518
REMARK  Name = 
REMARK  7 active torsions:
REMARK  status: ('A' for Active; 'I' for Inactive)
REMARK    1  A    between atoms: C_1  and  O_2
REMARK    2  A    between atoms: O_2  and  C_3
REMARK    3  A    between atoms: C_11  and  C_12
REMARK    4  A    between atoms: N_14  and  C_15
REMARK    5  A    between atoms: N_14  and  C_22
REMARK    6  A    between atoms: C_15  and  C_16
REMARK    7  A    between atoms: N_19  and  C_20
REMARK                            x       y       z     vdW  Elec       q    Type
REMARK                         _______ _______ _______ _____ _____    ______ ____
ROOT
ATOM      1  C   UNL     1       7.439  15.330  19.669  0.00  0.00    +0.000 C 
ATOM      2  O   UNL     1       7.108  15.847  20.738  0.00  0.00    +0.000 OA
ATOM      3  N   UNL     1       8.495  14.400  19.601  0.00  0.00    +0.000 N 
ENDROOT
BRANCH   1  12
ATOM      4  C   UNL     1       2.711  17.009  19.210  0.00  0.00    +0.000 A 
ATOM      5  C   UNL     1       1.618  16.166  19.031  0.00  0.00    +0.000 A 
ATOM      6  C   UNL     1       1.791  14.856  18.563  0.00  0.00    +0.000 A 
ATOM      7  C   UNL     1       3.069  14.387  18.272  0.00  0.00    +0.000 A 
ATOM      8  C   UNL     1       4.183  15.213  18.465  0.00  0.00    +0.000 A 
ATOM      9  C   UNL     1       3.998  16.521  18.942  0.00  0.00    +0.000 A 
ATOM     10  O   UNL     1       5.063  17.319  19.243  0.00  0.00    +0.000 OA
ATOM     11  C   UNL     1       6.189  17.113  18.408  0.00  0.00    +0.000 C 
ATOM     12  C   UNL     1       6.670  15.671  18.385  0.00  0.00    +0.000 C 
ATOM     13  C   UNL     1       5.544  14.687  18.119  0.00  0.00    +0.000 C 
BRANCH   4  15
ATOM     14  C   UNL     1       1.019  18.518  19.921  0.00  0.00    +0.000 C 
ATOM     15  O   UNL     1       2.399  18.267  19.662  0.00  0.00    +0.000 OA
ENDBRANCH   4  15
ENDBRANCH   1  12
BRANCH   3  16
ATOM     16  C   UNL     1       9.090  13.964  18.310  0.00  0.00    +0.000 C 
ATOM     17  C   UNL     1      10.640  14.010  18.324  0.00  0.00    +0.000 C 
ATOM     18  C   UNL     1      11.270  12.834  19.045  0.00  0.00    +0.000 C 
ATOM     19  C   UNL     1      10.848  11.519  18.424  0.00  0.00    +0.000 C 
ATOM     20  C   UNL     1       9.333  11.376  18.299  0.00  0.00    +0.000 C 
ATOM     21  C   UNL     1       8.640  12.611  17.716  0.00  0.00    +0.000 C 
ENDBRANCH   3  16
BRANCH   3  22
ATOM     22  C   UNL     1       9.168  14.108  20.879  0.00  0.00    +0.000 C 
BRANCH  22  23
ATOM     23  C   UNL     1       8.526  13.027  21.688  0.00  0.00    +0.000 A 
ATOM     24  C   UNL     1       9.002  11.701  21.838  0.00  0.00    +0.000 A 
ATOM     25  N   UNL     1       8.330  11.010  22.760  0.00  0.00    +0.000 NA
ATOM     26  N   UNL     1       7.455  11.906  23.247  0.00  0.00    +0.000 N 
ATOM     27  C   UNL     1       6.820  11.664  24.522  0.00  0.00    +0.000 C 
ATOM     28  C   UNL     1       7.445  13.084  22.552  0.00  0.00    +0.000 A 
ENDBRANCH  22  23
ENDBRANCH   3  22
TORSDOF 5
ENDMDL
MODEL 8
REMARK VINA RESULT:      -5.9      3.192      7.995
REMARK  Name = 
REMARK  7 active torsions:
REMARK  status: ('A' for Active; 'I' for Inactive)
REMARK    1  A    between atoms: C_1  and  O_2
REMARK    2  A    between atoms: O_2  and  C_3
REMARK    3  A    between atoms: C_11  and  C_12
REMARK    4  A    between atoms: N_14  and  C_15
REMARK    5  A    between atoms: N_14  and  C_22
REMARK    6  A    between atoms: C_15  and  C_16
REMARK    7  A    between atoms: N_19  and  C_20
REMARK                            x       y       z     vdW  Elec       q    Type
REMARK                         _______ _______ _______ _____ _____    ______ ____
ROOT
ATOM      1  C   UNL     1       1.491   8.547  19.093  0.00  0.00    +0.000 C 
ATOM      2  O   UNL     1       1.316   8.413  17.880  0.00  0.00    +0.000 OA
ATOM      3  N   UNL     1       0.874   9.590  19.811  0.00  0.00    +0.000 N 
ENDROOT
BRANCH   1  12
ATOM      4  C   UNL     1       2.430   3.730  17.952  0.00  0.00    +0.000 A 
ATOM      5  C   UNL     1       1.677   2.669  18.447  0.00  0.00    +0.000 A 
ATOM      6  C   UNL     1       0.884   2.825  19.593  0.00  0.00    +0.000 A 
ATOM      7  C   UNL     1       0.846   4.053  20.247  0.00  0.00    +0.000 A 
ATOM      8  C   UNL     1       1.582   5.138  19.753  0.00  0.00    +0.000 A 
ATOM      9  C   UNL     1       2.365   4.971  18.600  0.00  0.00    +0.000 A 
ATOM     10  O   UNL     1       3.011   6.029  18.028  0.00  0.00    +0.000 OA
ATOM     11  C   UNL     1       3.467   6.995  18.960  0.00  0.00    +0.000 C 
ATOM     12  C   UNL     1       2.366   7.541  19.853  0.00  0.00    +0.000 C 
ATOM     13  C   UNL     1       1.539   6.439  20.496  0.00  0.00    +0.000 C 
BRANCH   4  15
ATOM     14  C   UNL     1       4.586   3.504  16.979  0.00  0.00    +0.000 C 
ATOM     15  O   UNL     1       3.169   3.437  16.833  0.00  0.00    +0.000 OA
ENDBRANCH   4  15
ENDBRANCH   1  12
BRANCH   3  16
ATOM     16  C   UNL     1       1.266   9.938  21.203  0.00  0.00    +0.000 C 
ATOM     17  C   UNL     1       0.828  11.371  21.603  0.00  0.00    +0.000 C 
ATOM     18  C   UNL     1      -0.642  11.472  21.960  0.00  0.00    +0.000 C 
ATOM     19  C   UNL     1      -0.996  10.541  23.101  0.00  0.00    +0.000 C 
ATOM     20  C   UNL     1      -0.560   9.099  22.852  0.00  0.00    +0.000 C 
ATOM     21  C   UNL     1       0.877   8.966  22.338  0.00  0.00    +0.000 C 
ENDBRANCH   3  16
BRANCH   3  22
ATOM     22  C   UNL     1       0.032  10.499  19.014  0.00  0.00    +0.000 C 
BRANCH  22  23
ATOM     23  C   UNL     1       0.706  11.767  18.597  0.00  0.00    +0.000 A 
ATOM     24  C   UNL     1       0.121  13.057  18.582  0.00  0.00    +0.000 A 
ATOM     25  N   UNL     1       1.006  14.025  18.339  0.00  0.00    +0.000 NA
ATOM     26  N   UNL     1       2.175  13.366  18.253  0.00  0.00    +0.000 N 
ATOM     27  C   UNL     1       3.415  14.093  18.389  0.00  0.00    +0.000 C 
ATOM     28  C   UNL     1       2.030  12.006  18.272  0.00  0.00    +0.000 A 
ENDBRANCH  22  23
ENDBRANCH   3  22
TORSDOF 5
ENDMDL
MODEL 9
REMARK VINA RESULT:      -5.9      2.155      4.585
REMARK  Name = 
REMARK  7 active torsions:
REMARK  status: ('A' for Active; 'I' for Inactive)
REMARK    1  A    between atoms: C_1  and  O_2
REMARK    2  A    between atoms: O_2  and  C_3
REMARK    3  A    between atoms: C_11  and  C_12
REMARK    4  A    between atoms: N_14  and  C_15
REMARK    5  A    between atoms: N_14  and  C_22
REMARK    6  A    between atoms: C_15  and  C_16
REMARK    7  A    between atoms: N_19  and  C_20
REMARK                            x       y       z     vdW  Elec       q    Type
REMARK                         _______ _______ _______ _____ _____    ______ ____
ROOT
ATOM      1  C   UNL     1       3.595   5.859  19.081  0.00  0.00    +0.000 C 
ATOM      2  O   UNL     1       4.356   6.618  19.684  0.00  0.00    +0.000 OA
ATOM      3  N   UNL     1       4.052   4.641  18.541  0.00  0.00    +0.000 N 
ENDROOT
BRANCH   1  12
ATOM      4  C   UNL     1       1.420  10.381  19.536  0.00  0.00    +0.000 A 
ATOM      5  C   UNL     1       0.895  10.856  20.734  0.00  0.00    +0.000 A 
ATOM      6  C   UNL     1       0.569   9.975  21.775  0.00  0.00    +0.000 A 
ATOM      7  C   UNL     1       0.771   8.607  21.613  0.00  0.00    +0.000 A 
ATOM      8  C   UNL     1       1.316   8.111  20.422  0.00  0.00    +0.000 A 
ATOM      9  C   UNL     1       1.647   9.005  19.390  0.00  0.00    +0.000 A 
ATOM     10  O   UNL     1       2.277   8.573  18.259  0.00  0.00    +0.000 OA
ATOM     11  C   UNL     1       1.906   7.266  17.858  0.00  0.00    +0.000 C 
ATOM     12  C   UNL     1       2.110   6.219  18.942  0.00  0.00    +0.000 C 
ATOM     13  C   UNL     1       1.497   6.631  20.270  0.00  0.00    +0.000 C 
BRANCH   4  15
ATOM     14  C   UNL     1       1.905  12.666  19.100  0.00  0.00    +0.000 C 
ATOM     15  O   UNL     1       1.683  11.349  18.599  0.00  0.00    +0.000 OA
ENDBRANCH   4  15
ENDBRANCH   1  12
BRANCH   3  16
ATOM     16  C   UNL     1       3.238   3.837  17.590  0.00  0.00    +0.000 C 
ATOM     17  C   UNL     1       3.733   2.372  17.474  0.00  0.00    +0.000 C 
ATOM     18  C   UNL     1       3.297   1.497  18.634  0.00  0.00    +0.000 C 
ATOM     19  C   UNL     1       1.789   1.470  18.765  0.00  0.00    +0.000 C 
ATOM     20  C   UNL     1       1.170   2.864  18.829  0.00  0.00    +0.000 C 
ATOM     21  C   UNL     1       1.703   3.829  17.766  0.00  0.00    +0.000 C 
ENDBRANCH   3  16
BRANCH   3  22
ATOM     22  C   UNL     1       5.484   4.356  18.736  0.00  0.00    +0.000 C 
BRANCH  22  23
ATOM     23  C   UNL     1       6.409   5.328  18.074  0.00  0.00    +0.000 A 
ATOM     24  C   UNL     1       6.483   5.597  16.686  0.00  0.00    +0.000 A 
ATOM     25  N   UNL     1       7.268   6.637  16.400  0.00  0.00    +0.000 NA
ATOM     26  N   UNL     1       7.658   7.076  17.610  0.00  0.00    +0.000 N 
ATOM     27  C   UNL     1       8.192   8.411  17.746  0.00  0.00    +0.000 C 
ATOM     28  C   UNL     1       7.276   6.251  18.632  0.00  0.00    +0.000 A 
ENDBRANCH  22  23
ENDBRANCH   3  22
TORSDOF 5
ENDMDL
