MODEL 1
REMARK VINA RESULT:      -7.5      0.000      0.000
REMARK  Name = 
REMARK  8 active torsions:
REMARK  status: ('A' for Active; 'I' for Inactive)
REMARK    1  A    between atoms: C_1  and  N_2
REMARK    2  A    between atoms: N_2  and  C_3
REMARK    3  A    between atoms: N_2  and  C_4
REMARK    4  A    between atoms: C_4  and  C_5
REMARK    5  A    between atoms: C_5  and  C_6
REMARK    6  A    between atoms: C_12  and  C_13
REMARK    7  A    between atoms: C_12  and  C_14
REMARK    8  A    between atoms: C_18  and  C_19
REMARK                            x       y       z     vdW  Elec       q    Type
REMARK                         _______ _______ _______ _____ _____    ______ ____
ROOT
ATOM      1  C   UNL     1       4.078   4.894  19.182  0.00  0.00    +0.000 C 
ATOM      2  C   UNL     1       4.988   3.670  18.429  0.00  0.00    +0.000 C 
ATOM      3  C   UNL     1       4.067   2.493  18.436  0.00  0.00    +0.000 C 
ATOM      4  C   UNL     1       3.060   3.142  17.476  0.00  0.00    +0.000 C 
ATOM      5  C   UNL     1       3.779   4.546  16.928  0.00  0.00    +0.000 C 
ATOM      6  C   UNL     1       5.067   3.880  16.764  0.00  0.00    +0.000 C 
ATOM      7  C   UNL     1       5.922   4.685  15.727  0.00  0.00    +0.000 C 
ATOM      8  C   UNL     1       5.400   6.034  15.137  0.00  0.00    +0.000 C 
ATOM      9  C   UNL     1       6.031   3.801  14.452  0.00  0.00    +0.000 C 
ATOM     10  C   UNL     1       7.286   4.875  16.368  0.00  0.00    +0.000 C 
ATOM     11  C   UNL     1       7.218   5.974  17.402  0.00  0.00    +0.000 C 
ATOM     12  C   UNL     1       5.967   6.163  18.284  0.00  0.00    +0.000 C 
ATOM     13  C   UNL     1       4.384   5.764  17.979  0.00  0.00    +0.000 C 
ATOM     14  C   UNL     1       3.664   7.116  17.797  0.00  0.00    +0.000 C 
ENDROOT
BRANCH   1  15
ATOM     15  C   UNL     1       2.498   5.158  19.389  0.00  0.00    +0.000 C 
BRANCH  15  16
ATOM     16  C   UNL     1       1.570   5.047  20.603  0.00  0.00    +0.000 C 
BRANCH  16  18
ATOM     17  C   UNL     1       0.693   2.972  19.787  0.00  0.00    +0.000 C 
ATOM     18  N   UNL     1       1.099   3.719  20.982  0.00  0.00    +0.000 NA
ATOM     19  C   UNL     1       2.212   3.015  21.641  0.00  0.00    +0.000 C 
ENDBRANCH  16  18
ENDBRANCH  15  16
ENDBRANCH   1  15
TORSDOF 3
ENDMDL
MODEL 2
REMARK VINA RESULT:      -7.0      2.139      5.532
REMARK  Name = 
REMARK  8 active torsions:
REMARK  status: ('A' for Active; 'I' for Inactive)
REMARK    1  A    between atoms: C_1  and  N_2
REMARK    2  A    between atoms: N_2  and  C_3
REMARK    3  A    between atoms: N_2  and  C_4
REMARK    4  A    between atoms: C_4  and  C_5
REMARK    5  A    between atoms: C_5  and  C_6
REMARK    6  A    between atoms: C_12  and  C_13
REMARK    7  A    between atoms: C_12  and  C_14
REMARK    8  A    between atoms: C_18  and  C_19
REMARK                            x       y       z     vdW  Elec       q    Type
REMARK                         _______ _______ _______ _____ _____    ______ ____
ROOT
ATOM      1  C   UNL     1       3.764   4.750  17.243  0.00  0.00    +0.000 C 
ATOM      2  C   UNL     1       3.947   3.395  18.255  0.00  0.00    +0.000 C 
ATOM      3  C   UNL     1       5.396   3.421  18.619  0.00  0.00    +0.000 C 
ATOM      4  C   UNL     1       5.280   4.728  19.416  0.00  0.00    +0.000 C 
ATOM      5  C   UNL     1       3.648   5.066  19.519  0.00  0.00    +0.000 C 
ATOM      6  C   UNL     1       3.326   3.669  19.791  0.00  0.00    +0.000 C 
ATOM      7  C   UNL     1       1.942   3.604  20.520  0.00  0.00    +0.000 C 
ATOM      8  C   UNL     1       1.095   4.897  20.744  0.00  0.00    +0.000 C 
ATOM      9  C   UNL     1       2.224   3.153  21.981  0.00  0.00    +0.000 C 
ATOM     10  C   UNL     1       1.128   2.555  19.781  0.00  0.00    +0.000 C 
ATOM     11  C   UNL     1       0.599   3.133  18.490  0.00  0.00    +0.000 C 
ATOM     12  C   UNL     1       1.437   4.124  17.657  0.00  0.00    +0.000 C 
ATOM     13  C   UNL     1       2.624   5.179  18.143  0.00  0.00    +0.000 C 
ATOM     14  C   UNL     1       1.996   6.580  17.985  0.00  0.00    +0.000 C 
ENDROOT
BRANCH   1  15
ATOM     15  C   UNL     1       4.579   6.133  17.055  0.00  0.00    +0.000 C 
BRANCH  15  16
ATOM     16  C   UNL     1       5.521   6.651  15.965  0.00  0.00    +0.000 C 
BRANCH  16  18
ATOM     17  C   UNL     1       7.416   6.662  17.429  0.00  0.00    +0.000 C 
ATOM     18  N   UNL     1       6.940   6.333  16.082  0.00  0.00    +0.000 NA
ATOM     19  C   UNL     1       7.100   4.888  15.849  0.00  0.00    +0.000 C 
ENDBRANCH  16  18
ENDBRANCH  15  16
ENDBRANCH   1  15
TORSDOF 3
ENDMDL
MODEL 3
REMARK VINA RESULT:      -6.9      2.297      5.044
REMARK  Name = 
REMARK  8 active torsions:
REMARK  status: ('A' for Active; 'I' for Inactive)
REMARK    1  A    between atoms: C_1  and  N_2
REMARK    2  A    between atoms: N_2  and  C_3
REMARK    3  A    between atoms: N_2  and  C_4
REMARK    4  A    between atoms: C_4  and  C_5
REMARK    5  A    between atoms: C_5  and  C_6
REMARK    6  A    between atoms: C_12  and  C_13
REMARK    7  A    between atoms: C_12  and  C_14
REMARK    8  A    between atoms: C_18  and  C_19
REMARK                            x       y       z     vdW  Elec       q    Type
REMARK                         _______ _______ _______ _____ _____    ______ ____
ROOT
ATOM      1  C   UNL     1       2.345   5.787  17.994  0.00  0.00    +0.000 C 
ATOM      2  C   UNL     1       3.386   4.527  17.524  0.00  0.00    +0.000 C 
ATOM      3  C   UNL     1       4.650   5.234  17.156  0.00  0.00    +0.000 C 
ATOM      4  C   UNL     1       4.925   5.709  18.590  0.00  0.00    +0.000 C 
ATOM      5  C   UNL     1       3.803   4.939  19.558  0.00  0.00    +0.000 C 
ATOM      6  C   UNL     1       3.982   3.678  18.844  0.00  0.00    +0.000 C 
ATOM      7  C   UNL     1       3.532   2.503  19.778  0.00  0.00    +0.000 C 
ATOM      8  C   UNL     1       2.898   2.792  21.176  0.00  0.00    +0.000 C 
ATOM      9  C   UNL     1       4.818   1.722  20.168  0.00  0.00    +0.000 C 
ATOM     10  C   UNL     1       2.607   1.635  18.942  0.00  0.00    +0.000 C 
ATOM     11  C   UNL     1       1.248   2.284  18.840  0.00  0.00    +0.000 C 
ATOM     12  C   UNL     1       1.101   3.816  18.734  0.00  0.00    +0.000 C 
ATOM     13  C   UNL     1       2.109   5.018  19.278  0.00  0.00    +0.000 C 
ATOM     14  C   UNL     1       1.345   5.676  20.447  0.00  0.00    +0.000 C 
ENDROOT
BRANCH   1  15
ATOM     15  C   UNL     1       2.571   7.290  18.543  0.00  0.00    +0.000 C 
BRANCH  15  16
ATOM     16  C   UNL     1       2.426   8.672  17.899  0.00  0.00    +0.000 C 
BRANCH  16  18
ATOM     17  C   UNL     1       1.041   9.226  19.773  0.00  0.00    +0.000 C 
ATOM     18  N   UNL     1       1.351   9.536  18.374  0.00  0.00    +0.000 NA
ATOM     19  C   UNL     1       1.816  10.931  18.278  0.00  0.00    +0.000 C 
ENDBRANCH  16  18
ENDBRANCH  15  16
ENDBRANCH   1  15
TORSDOF 3
ENDMDL
MODEL 4
REMARK VINA RESULT:      -6.7      2.408      5.337
REMARK  Name = 
REMARK  8 active torsions:
REMARK  status: ('A' for Active; 'I' for Inactive)
REMARK    1  A    between atoms: C_1  and  N_2
REMARK    2  A    between atoms: N_2  and  C_3
REMARK    3  A    between atoms: N_2  and  C_4
REMARK    4  A    between atoms: C_4  and  C_5
REMARK    5  A    between atoms: C_5  and  C_6
REMARK    6  A    between atoms: C_12  and  C_13
REMARK    7  A    between atoms: C_12  and  C_14
REMARK    8  A    between atoms: C_18  and  C_19
REMARK                            x       y       z     vdW  Elec       q    Type
REMARK                         _______ _______ _______ _____ _____    ______ ____
ROOT
ATOM      1  C   UNL     1       4.720   5.693  18.736  0.00  0.00    +0.000 C 
ATOM      2  C   UNL     1       3.331   5.548  19.706  0.00  0.00    +0.000 C 
ATOM      3  C   UNL     1       2.590   6.821  19.453  0.00  0.00    +0.000 C 
ATOM      4  C   UNL     1       2.308   6.486  17.981  0.00  0.00    +0.000 C 
ATOM      5  C   UNL     1       2.791   4.903  17.763  0.00  0.00    +0.000 C 
ATOM      6  C   UNL     1       2.204   4.498  19.037  0.00  0.00    +0.000 C 
ATOM      7  C   UNL     1       1.923   2.958  18.994  0.00  0.00    +0.000 C 
ATOM      8  C   UNL     1       2.367   2.098  17.767  0.00  0.00    +0.000 C 
ATOM      9  C   UNL     1       0.378   2.783  18.962  0.00  0.00    +0.000 C 
ATOM     10  C   UNL     1       2.503   2.391  20.279  0.00  0.00    +0.000 C 
ATOM     11  C   UNL     1       4.003   2.280  20.160  0.00  0.00    +0.000 C 
ATOM     12  C   UNL     1       4.824   3.341  19.397  0.00  0.00    +0.000 C 
ATOM     13  C   UNL     1       4.368   4.341  18.152  0.00  0.00    +0.000 C 
ATOM     14  C   UNL     1       5.127   3.806  16.919  0.00  0.00    +0.000 C 
ENDROOT
BRANCH   1  15
ATOM     15  C   UNL     1       5.085   6.543  17.410  0.00  0.00    +0.000 C 
BRANCH  15  16
ATOM     16  C   UNL     1       5.992   7.752  17.160  0.00  0.00    +0.000 C 
BRANCH  16  18
ATOM     17  C   UNL     1       8.075   8.750  17.793  0.00  0.00    +0.000 C 
ATOM     18  N   UNL     1       7.434   7.551  17.243  0.00  0.00    +0.000 NA
ATOM     19  C   UNL     1       7.681   6.412  18.144  0.00  0.00    +0.000 C 
ENDBRANCH  16  18
ENDBRANCH  15  16
ENDBRANCH   1  15
TORSDOF 3
ENDMDL
MODEL 5
REMARK VINA RESULT:      -6.7      2.237      5.479
REMARK  Name = 
REMARK  8 active torsions:
REMARK  status: ('A' for Active; 'I' for Inactive)
REMARK    1  A    between atoms: C_1  and  N_2
REMARK    2  A    between atoms: N_2  and  C_3
REMARK    3  A    between atoms: N_2  and  C_4
REMARK    4  A    between atoms: C_4  and  C_5
REMARK    5  A    between atoms: C_5  and  C_6
REMARK    6  A    between atoms: C_12  and  C_13
REMARK    7  A    between atoms: C_12  and  C_14
REMARK    8  A    between atoms: C_18  and  C_19
REMARK                            x       y       z     vdW  Elec       q    Type
REMARK                         _______ _______ _______ _____ _____    ______ ____
ROOT
ATOM      1  C   UNL     1       4.673   5.363  18.530  0.00  0.00    +0.000 C 
ATOM      2  C   UNL     1       3.463   5.586  19.704  0.00  0.00    +0.000 C 
ATOM      3  C   UNL     1       2.868   6.911  19.349  0.00  0.00    +0.000 C 
ATOM      4  C   UNL     1       2.296   6.413  18.013  0.00  0.00    +0.000 C 
ATOM      5  C   UNL     1       2.518   4.758  18.000  0.00  0.00    +0.000 C 
ATOM      6  C   UNL     1       2.108   4.644  19.396  0.00  0.00    +0.000 C 
ATOM      7  C   UNL     1       1.619   3.179  19.658  0.00  0.00    +0.000 C 
ATOM      8  C   UNL     1       1.727   2.089  18.544  0.00  0.00    +0.000 C 
ATOM      9  C   UNL     1       0.082   3.251  19.883  0.00  0.00    +0.000 C 
ATOM     10  C   UNL     1       2.327   2.721  20.922  0.00  0.00    +0.000 C 
ATOM     11  C   UNL     1       3.757   2.355  20.604  0.00  0.00    +0.000 C 
ATOM     12  C   UNL     1       4.570   3.148  19.561  0.00  0.00    +0.000 C 
ATOM     13  C   UNL     1       4.048   4.014  18.243  0.00  0.00    +0.000 C 
ATOM     14  C   UNL     1       4.507   3.190  17.022  0.00  0.00    +0.000 C 
ENDROOT
BRANCH   1  15
ATOM     15  C   UNL     1       4.918   5.940  17.040  0.00  0.00    +0.000 C 
BRANCH  15  16
ATOM     16  C   UNL     1       6.127   6.579  16.352  0.00  0.00    +0.000 C 
BRANCH  16  18
ATOM     17  C   UNL     1       7.568   4.800  17.055  0.00  0.00    +0.000 C 
ATOM     18  N   UNL     1       7.226   5.707  15.954  0.00  0.00    +0.000 NA
ATOM     19  C   UNL     1       6.779   4.915  14.795  0.00  0.00    +0.000 C 
ENDBRANCH  16  18
ENDBRANCH  15  16
ENDBRANCH   1  15
TORSDOF 3
ENDMDL
MODEL 6
REMARK VINA RESULT:      -6.6      2.245      5.821
REMARK  Name = 
REMARK  8 active torsions:
REMARK  status: ('A' for Active; 'I' for Inactive)
REMARK    1  A    between atoms: C_1  and  N_2
REMARK    2  A    between atoms: N_2  and  C_3
REMARK    3  A    between atoms: N_2  and  C_4
REMARK    4  A    between atoms: C_4  and  C_5
REMARK    5  A    between atoms: C_5  and  C_6
REMARK    6  A    between atoms: C_12  and  C_13
REMARK    7  A    between atoms: C_12  and  C_14
REMARK    8  A    between atoms: C_18  and  C_19
REMARK                            x       y       z     vdW  Elec       q    Type
REMARK                         _______ _______ _______ _____ _____    ______ ____
ROOT
ATOM      1  C   UNL     1       4.909   3.588  18.119  0.00  0.00    +0.000 C 
ATOM      2  C   UNL     1       4.844   4.737  19.371  0.00  0.00    +0.000 C 
ATOM      3  C   UNL     1       5.400   5.974  18.742  0.00  0.00    +0.000 C 
ATOM      4  C   UNL     1       4.231   6.123  17.756  0.00  0.00    +0.000 C 
ATOM      5  C   UNL     1       3.090   4.993  18.214  0.00  0.00    +0.000 C 
ATOM      6  C   UNL     1       3.283   5.300  19.628  0.00  0.00    +0.000 C 
ATOM      7  C   UNL     1       2.000   4.869  20.416  0.00  0.00    +0.000 C 
ATOM      8  C   UNL     1       0.830   4.127  19.694  0.00  0.00    +0.000 C 
ATOM      9  C   UNL     1       1.303   6.175  20.890  0.00  0.00    +0.000 C 
ATOM     10  C   UNL     1       2.492   4.060  21.604  0.00  0.00    +0.000 C 
ATOM     11  C   UNL     1       2.875   2.670  21.155  0.00  0.00    +0.000 C 
ATOM     12  C   UNL     1       3.542   2.430  19.785  0.00  0.00    +0.000 C 
ATOM     13  C   UNL     1       3.441   3.320  18.386  0.00  0.00    +0.000 C 
ATOM     14  C   UNL     1       2.625   2.439  17.416  0.00  0.00    +0.000 C 
ENDROOT
BRANCH   1  15
ATOM     15  C   UNL     1       4.943   3.679  16.507  0.00  0.00    +0.000 C 
BRANCH  15  16
ATOM     16  C   UNL     1       6.078   3.625  15.480  0.00  0.00    +0.000 C 
BRANCH  16  18
ATOM     17  C   UNL     1       7.256   5.134  14.041  0.00  0.00    +0.000 C 
ATOM     18  N   UNL     1       5.972   4.475  14.300  0.00  0.00    +0.000 NA
ATOM     19  C   UNL     1       5.627   3.618  13.154  0.00  0.00    +0.000 C 
ENDBRANCH  16  18
ENDBRANCH  15  16
ENDBRANCH   1  15
TORSDOF 3
ENDMDL
MODEL 7
REMARK VINA RESULT:      -6.5      1.091      2.869
REMARK  Name = 
REMARK  8 active torsions:
REMARK  status: ('A' for Active; 'I' for Inactive)
REMARK    1  A    between atoms: C_1  and  N_2
REMARK    2  A    between atoms: N_2  and  C_3
REMARK    3  A    between atoms: N_2  and  C_4
REMARK    4  A    between atoms: C_4  and  C_5
REMARK    5  A    between atoms: C_5  and  C_6
REMARK    6  A    between atoms: C_12  and  C_13
REMARK    7  A    between atoms: C_12  and  C_14
REMARK    8  A    between atoms: C_18  and  C_19
REMARK                            x       y       z     vdW  Elec       q    Type
REMARK                         _______ _______ _______ _____ _____    ______ ____
ROOT
ATOM      1  C   UNL     1       2.942   4.808  18.051  0.00  0.00    +0.000 C 
ATOM      2  C   UNL     1       3.578   6.122  17.179  0.00  0.00    +0.000 C 
ATOM      3  C   UNL     1       2.922   7.310  17.805  0.00  0.00    +0.000 C 
ATOM      4  C   UNL     1       3.626   7.116  19.156  0.00  0.00    +0.000 C 
ATOM      5  C   UNL     1       4.761   5.914  18.921  0.00  0.00    +0.000 C 
ATOM      6  C   UNL     1       5.156   6.473  17.632  0.00  0.00    +0.000 C 
ATOM      7  C   UNL     1       6.605   5.984  17.294  0.00  0.00    +0.000 C 
ATOM      8  C   UNL     1       7.341   4.964  18.221  0.00  0.00    +0.000 C 
ATOM      9  C   UNL     1       7.533   7.228  17.390  0.00  0.00    +0.000 C 
ATOM     10  C   UNL     1       6.549   5.463  15.867  0.00  0.00    +0.000 C 
ATOM     11  C   UNL     1       5.912   4.095  15.846  0.00  0.00    +0.000 C 
ATOM     12  C   UNL     1       4.750   3.741  16.796  0.00  0.00    +0.000 C 
ATOM     13  C   UNL     1       4.371   4.365  18.288  0.00  0.00    +0.000 C 
ATOM     14  C   UNL     1       4.675   3.224  19.282  0.00  0.00    +0.000 C 
ENDROOT
BRANCH   1  15
ATOM     15  C   UNL     1       2.293   4.640  19.522  0.00  0.00    +0.000 C 
BRANCH  15  16
ATOM     16  C   UNL     1       0.943   4.110  20.015  0.00  0.00    +0.000 C 
BRANCH  16  18
ATOM     17  C   UNL     1       1.332   1.843  19.348  0.00  0.00    +0.000 C 
ATOM     18  N   UNL     1       0.870   2.715  20.433  0.00  0.00    +0.000 NA
ATOM     19  C   UNL     1       1.751   2.545  21.601  0.00  0.00    +0.000 C 
ENDBRANCH  16  18
ENDBRANCH  15  16
ENDBRANCH   1  15
TORSDOF 3
ENDMDL
MODEL 8
REMARK VINA RESULT:      -6.4      1.670      2.228
REMARK  Name = 
REMARK  8 active torsions:
REMARK  status: ('A' for Active; 'I' for Inactive)
REMARK    1  A    between atoms: C_1  and  N_2
REMARK    2  A    between atoms: N_2  and  C_3
REMARK    3  A    between atoms: N_2  and  C_4
REMARK    4  A    between atoms: C_4  and  C_5
REMARK    5  A    between atoms: C_5  and  C_6
REMARK    6  A    between atoms: C_12  and  C_13
REMARK    7  A    between atoms: C_12  and  C_14
REMARK    8  A    between atoms: C_18  and  C_19
REMARK                            x       y       z     vdW  Elec       q    Type
REMARK                         _______ _______ _______ _____ _____    ______ ____
ROOT
ATOM      1  C   UNL     1       3.986   5.483  19.334  0.00  0.00    +0.000 C 
ATOM      2  C   UNL     1       4.746   4.051  18.818  0.00  0.00    +0.000 C 
ATOM      3  C   UNL     1       3.686   3.011  18.983  0.00  0.00    +0.000 C 
ATOM      4  C   UNL     1       2.781   3.611  17.898  0.00  0.00    +0.000 C 
ATOM      5  C   UNL     1       3.676   4.810  17.156  0.00  0.00    +0.000 C 
ATOM      6  C   UNL     1       4.873   3.975  17.145  0.00  0.00    +0.000 C 
ATOM      7  C   UNL     1       5.835   4.491  16.021  0.00  0.00    +0.000 C 
ATOM      8  C   UNL     1       5.494   5.778  15.206  0.00  0.00    +0.000 C 
ATOM      9  C   UNL     1       5.850   3.405  14.909  0.00  0.00    +0.000 C 
ATOM     10  C   UNL     1       7.204   4.617  16.669  0.00  0.00    +0.000 C 
ATOM     11  C   UNL     1       7.260   5.870  17.510  0.00  0.00    +0.000 C 
ATOM     12  C   UNL     1       6.030   6.350  18.308  0.00  0.00    +0.000 C 
ATOM     13  C   UNL     1       4.414   6.101  18.018  0.00  0.00    +0.000 C 
ATOM     14  C   UNL     1       3.871   7.482  17.597  0.00  0.00    +0.000 C 
ENDROOT
BRANCH   1  15
ATOM     15  C   UNL     1       2.448   5.965  19.444  0.00  0.00    +0.000 C 
BRANCH  15  16
ATOM     16  C   UNL     1       1.661   6.711  20.525  0.00  0.00    +0.000 C 
BRANCH  16  18
ATOM     17  C   UNL     1       1.258   8.808  19.440  0.00  0.00    +0.000 C 
ATOM     18  N   UNL     1       1.834   8.156  20.621  0.00  0.00    +0.000 NA
ATOM     19  C   UNL     1       1.124   8.619  21.825  0.00  0.00    +0.000 C 
ENDBRANCH  16  18
ENDBRANCH  15  16
ENDBRANCH   1  15
TORSDOF 3
ENDMDL
MODEL 9
REMARK VINA RESULT:      -6.4      1.430      3.012
REMARK  Name = 
REMARK  8 active torsions:
REMARK  status: ('A' for Active; 'I' for Inactive)
REMARK    1  A    between atoms: C_1  and  N_2
REMARK    2  A    between atoms: N_2  and  C_3
REMARK    3  A    between atoms: N_2  and  C_4
REMARK    4  A    between atoms: C_4  and  C_5
REMARK    5  A    between atoms: C_5  and  C_6
REMARK    6  A    between atoms: C_12  and  C_13
REMARK    7  A    between atoms: C_12  and  C_14
REMARK    8  A    between atoms: C_18  and  C_19
REMARK                            x       y       z     vdW  Elec       q    Type
REMARK                         _______ _______ _______ _____ _____    ______ ____
ROOT
ATOM      1  C   UNL     1       3.523   5.323  17.381  0.00  0.00    +0.000 C 
ATOM      2  C   UNL     1       4.278   6.259  18.583  0.00  0.00    +0.000 C 
ATOM      3  C   UNL     1       3.521   5.915  19.825  0.00  0.00    +0.000 C 
ATOM      4  C   UNL     1       4.002   4.456  19.839  0.00  0.00    +0.000 C 
ATOM      5  C   UNL     1       5.170   4.341  18.652  0.00  0.00    +0.000 C 
ATOM      6  C   UNL     1       5.761   5.617  19.041  0.00  0.00    +0.000 C 
ATOM      7  C   UNL     1       7.250   5.652  18.556  0.00  0.00    +0.000 C 
ATOM      8  C   UNL     1       7.837   4.488  17.695  0.00  0.00    +0.000 C 
ATOM      9  C   UNL     1       8.140   5.586  19.829  0.00  0.00    +0.000 C 
ATOM     10  C   UNL     1       7.427   6.983  17.844  0.00  0.00    +0.000 C 
ATOM     11  C   UNL     1       6.814   6.913  16.466  0.00  0.00    +0.000 C 
ATOM     12  C   UNL     1       5.517   6.117  16.209  0.00  0.00    +0.000 C 
ATOM     13  C   UNL     1       4.900   4.805  17.019  0.00  0.00    +0.000 C 
ATOM     14  C   UNL     1       5.051   3.626  16.034  0.00  0.00    +0.000 C 
ENDROOT
BRANCH   1  15
ATOM     15  C   UNL     1       2.650   3.963  17.395  0.00  0.00    +0.000 C 
BRANCH  15  16
ATOM     16  C   UNL     1       1.218   3.645  17.838  0.00  0.00    +0.000 C 
BRANCH  16  18
ATOM     17  C   UNL     1       2.232   1.696  18.791  0.00  0.00    +0.000 C 
ATOM     18  N   UNL     1       1.019   2.518  18.742  0.00  0.00    +0.000 NA
ATOM     19  C   UNL     1       0.744   3.058  20.085  0.00  0.00    +0.000 C 
ENDBRANCH  16  18
ENDBRANCH  15  16
ENDBRANCH   1  15
TORSDOF 3
ENDMDL
