MODEL 1
REMARK VINA RESULT:      -6.9      0.000      0.000
REMARK  Name = 
REMARK  11 active torsions:
REMARK  status: ('A' for Active; 'I' for Inactive)
REMARK    1  A    between atoms: C_1  and  C_2
REMARK    2  A    between atoms: C_2  and  C_3
REMARK    3  A    between atoms: C_2  and  N_4
REMARK    4  A    between atoms: N_4  and  C_5
REMARK    5  A    between atoms: N_4  and  C_6
REMARK    6  A    between atoms: C_6  and  C_7
REMARK    7  A    between atoms: N_11  and  C_12
REMARK    8  A    between atoms: C_12  and  C_13
REMARK    9  A    between atoms: N_15  and  C_16
REMARK   10  A    between atoms: N_15  and  C_17
REMARK   11  A    between atoms: C_17  and  C_18
REMARK                            x       y       z     vdW  Elec       q    Type
REMARK                         _______ _______ _______ _____ _____    ______ ____
ROOT
ATOM      1  C   UNL     1       4.381   3.385  19.110  0.00  0.00    +0.000 C 
ENDROOT
BRANCH   1   6
ATOM      2  C   UNL     1       2.412   4.683  20.113  0.00  0.00    +0.000 A 
ATOM      3  N   UNL     1       1.186   4.313  20.429  0.00  0.00    +0.000 NA
ATOM      4  N   UNL     1       1.135   2.954  20.292  0.00  0.00    +0.000 NA
ATOM      5  N   UNL     1       2.296   2.480  19.887  0.00  0.00    +0.000 NA
ATOM      6  N   UNL     1       3.121   3.548  19.796  0.00  0.00    +0.000 N 
BRANCH   2   7
ATOM      7  C   UNL     1       2.932   6.073  20.105  0.00  0.00    +0.000 C 
BRANCH   7   8
ATOM      8  N   UNL     1       2.204   6.994  19.202  0.00  0.00    +0.000 NA
ATOM      9  C   UNL     1       3.015   7.161  17.986  0.00  0.00    +0.000 C 
BRANCH   8  11
ATOM     10  C   UNL     1       1.227   9.350  18.929  0.00  0.00    +0.000 C 
ATOM     11  C   UNL     1       1.861   8.293  19.846  0.00  0.00    +0.000 C 
ATOM     12  C   UNL     1       0.975   8.097  21.087  0.00  0.00    +0.000 C 
ENDBRANCH   8  11
ENDBRANCH   7   8
ENDBRANCH   2   7
ENDBRANCH   1   6
BRANCH   1  13
ATOM     13  C   UNL     1       4.384   3.663  17.623  0.00  0.00    +0.000 C 
ATOM     14  O   UNL     1       3.381   3.467  16.939  0.00  0.00    +0.000 OA
ATOM     15  N   UNL     1       5.525   4.289  17.098  0.00  0.00    +0.000 N 
ATOM     16  C   UNL     1       6.704   4.576  17.904  0.00  0.00    +0.000 C 
BRANCH  15  17
ATOM     17  C   UNL     1       5.332   5.140  15.923  0.00  0.00    +0.000 C 
BRANCH  17  18
ATOM     18  C   UNL     1       5.944   4.704  14.610  0.00  0.00    +0.000 A 
ATOM     19  C   UNL     1       7.156   5.315  14.228  0.00  0.00    +0.000 A 
ATOM     20  C   UNL     1       7.764   5.025  13.009  0.00  0.00    +0.000 A 
ATOM     21  C   UNL     1       7.166   4.115  12.141  0.00  0.00    +0.000 A 
ATOM     22  C   UNL     1       5.980   3.482  12.515  0.00  0.00    +0.000 A 
ATOM     23 CL   UNL     1       5.245   2.358  11.436  0.00  0.00    +0.000 Cl
ATOM     24  C   UNL     1       5.374   3.763  13.747  0.00  0.00    +0.000 A 
ENDBRANCH  17  18
ENDBRANCH  15  17
ENDBRANCH   1  13
TORSDOF 7
ENDMDL
MODEL 2
REMARK VINA RESULT:      -6.8      3.226      8.113
REMARK  Name = 
REMARK  11 active torsions:
REMARK  status: ('A' for Active; 'I' for Inactive)
REMARK    1  A    between atoms: C_1  and  C_2
REMARK    2  A    between atoms: C_2  and  C_3
REMARK    3  A    between atoms: C_2  and  N_4
REMARK    4  A    between atoms: N_4  and  C_5
REMARK    5  A    between atoms: N_4  and  C_6
REMARK    6  A    between atoms: C_6  and  C_7
REMARK    7  A    between atoms: N_11  and  C_12
REMARK    8  A    between atoms: C_12  and  C_13
REMARK    9  A    between atoms: N_15  and  C_16
REMARK   10  A    between atoms: N_15  and  C_17
REMARK   11  A    between atoms: C_17  and  C_18
REMARK                            x       y       z     vdW  Elec       q    Type
REMARK                         _______ _______ _______ _____ _____    ______ ____
ROOT
ATOM      1  C   UNL     1       6.516   4.840  15.998  0.00  0.00    +0.000 C 
ENDROOT
BRANCH   1   6
ATOM      2  C   UNL     1       6.798   4.521  13.470  0.00  0.00    +0.000 A 
ATOM      3  N   UNL     1       7.619   5.079  12.601  0.00  0.00    +0.000 NA
ATOM      4  N   UNL     1       8.516   5.817  13.320  0.00  0.00    +0.000 NA
ATOM      5  N   UNL     1       8.261   5.737  14.611  0.00  0.00    +0.000 NA
ATOM      6  N   UNL     1       7.202   4.904  14.728  0.00  0.00    +0.000 N 
BRANCH   2   7
ATOM      7  C   UNL     1       5.651   3.637  13.148  0.00  0.00    +0.000 C 
BRANCH   7   8
ATOM      8  N   UNL     1       5.661   3.101  11.767  0.00  0.00    +0.000 NA
ATOM      9  C   UNL     1       4.262   2.965  11.331  0.00  0.00    +0.000 C 
BRANCH   8  11
ATOM     10  C   UNL     1       5.657   0.638  11.052  0.00  0.00    +0.000 C 
ATOM     11  C   UNL     1       6.428   1.830  11.640  0.00  0.00    +0.000 C 
ATOM     12  C   UNL     1       7.735   2.029  10.856  0.00  0.00    +0.000 C 
ENDBRANCH   8  11
ENDBRANCH   7   8
ENDBRANCH   2   7
ENDBRANCH   1   6
BRANCH   1  13
ATOM     13  C   UNL     1       5.547   5.961  16.301  0.00  0.00    +0.000 C 
ATOM     14  O   UNL     1       5.017   6.604  15.396  0.00  0.00    +0.000 OA
ATOM     15  N   UNL     1       5.174   6.130  17.643  0.00  0.00    +0.000 N 
ATOM     16  C   UNL     1       5.754   5.344  18.724  0.00  0.00    +0.000 C 
BRANCH  15  17
ATOM     17  C   UNL     1       3.841   6.679  17.896  0.00  0.00    +0.000 C 
BRANCH  17  18
ATOM     18  C   UNL     1       2.850   5.838  18.669  0.00  0.00    +0.000 A 
ATOM     19  C   UNL     1       2.415   6.335  19.914  0.00  0.00    +0.000 A 
ATOM     20  C   UNL     1       1.551   5.605  20.727  0.00  0.00    +0.000 A 
ATOM     21  C   UNL     1       1.105   4.353  20.308  0.00  0.00    +0.000 A 
ATOM     22  C   UNL     1       1.506   3.859  19.066  0.00  0.00    +0.000 A 
ATOM     23 CL   UNL     1       0.951   2.311  18.554  0.00  0.00    +0.000 Cl
ATOM     24  C   UNL     1       2.364   4.599  18.242  0.00  0.00    +0.000 A 
ENDBRANCH  17  18
ENDBRANCH  15  17
ENDBRANCH   1  13
TORSDOF 7
ENDMDL
MODEL 3
REMARK VINA RESULT:      -6.6      3.590      7.492
REMARK  Name = 
REMARK  11 active torsions:
REMARK  status: ('A' for Active; 'I' for Inactive)
REMARK    1  A    between atoms: C_1  and  C_2
REMARK    2  A    between atoms: C_2  and  C_3
REMARK    3  A    between atoms: C_2  and  N_4
REMARK    4  A    between atoms: N_4  and  C_5
REMARK    5  A    between atoms: N_4  and  C_6
REMARK    6  A    between atoms: C_6  and  C_7
REMARK    7  A    between atoms: N_11  and  C_12
REMARK    8  A    between atoms: C_12  and  C_13
REMARK    9  A    between atoms: N_15  and  C_16
REMARK   10  A    between atoms: N_15  and  C_17
REMARK   11  A    between atoms: C_17  and  C_18
REMARK                            x       y       z     vdW  Elec       q    Type
REMARK                         _______ _______ _______ _____ _____    ______ ____
ROOT
ATOM      1  C   UNL     1       2.887   6.074  19.058  0.00  0.00    +0.000 C 
ENDROOT
BRANCH   1   6
ATOM      2  C   UNL     1       3.970   4.015  17.981  0.00  0.00    +0.000 A 
ATOM      3  N   UNL     1       3.448   2.949  17.406  0.00  0.00    +0.000 NA
ATOM      4  N   UNL     1       2.105   3.175  17.296  0.00  0.00    +0.000 NA
ATOM      5  N   UNL     1       1.784   4.349  17.800  0.00  0.00    +0.000 NA
ATOM      6  N   UNL     1       2.947   4.906  18.210  0.00  0.00    +0.000 N 
BRANCH   2   7
ATOM      7  C   UNL     1       5.401   4.217  18.315  0.00  0.00    +0.000 C 
BRANCH   7   8
ATOM      8  N   UNL     1       6.089   5.225  17.476  0.00  0.00    +0.000 NA
ATOM      9  C   UNL     1       6.967   4.504  16.542  0.00  0.00    +0.000 C 
BRANCH   8  11
ATOM     10  C   UNL     1       7.838   5.708  19.289  0.00  0.00    +0.000 C 
ATOM     11  C   UNL     1       6.819   6.250  18.275  0.00  0.00    +0.000 C 
ATOM     12  C   UNL     1       7.500   7.294  17.376  0.00  0.00    +0.000 C 
ENDBRANCH   8  11
ENDBRANCH   7   8
ENDBRANCH   2   7
ENDBRANCH   1   6
BRANCH   1  13
ATOM     13  C   UNL     1       2.952   7.417  18.366  0.00  0.00    +0.000 C 
ATOM     14  O   UNL     1       3.565   7.557  17.309  0.00  0.00    +0.000 OA
ATOM     15  N   UNL     1       2.164   8.445  18.905  0.00  0.00    +0.000 N 
ATOM     16  C   UNL     1       1.391   8.284  20.128  0.00  0.00    +0.000 C 
BRANCH  15  17
ATOM     17  C   UNL     1       1.680   9.466  17.974  0.00  0.00    +0.000 C 
BRANCH  17  18
ATOM     18  C   UNL     1       0.381  10.173  18.290  0.00  0.00    +0.000 A 
ATOM     19  C   UNL     1       0.443  11.278  19.163  0.00  0.00    +0.000 A 
ATOM     20  C   UNL     1      -0.706  11.955  19.562  0.00  0.00    +0.000 A 
ATOM     21  C   UNL     1      -1.950  11.535  19.096  0.00  0.00    +0.000 A 
ATOM     22  C   UNL     1      -2.026  10.458  18.211  0.00  0.00    +0.000 A 
ATOM     23 CL   UNL     1      -3.566   9.942  17.638  0.00  0.00    +0.000 Cl
ATOM     24  C   UNL     1      -0.869   9.785  17.798  0.00  0.00    +0.000 A 
ENDBRANCH  17  18
ENDBRANCH  15  17
ENDBRANCH   1  13
TORSDOF 7
ENDMDL
MODEL 4
REMARK VINA RESULT:      -6.6      3.151      7.693
REMARK  Name = 
REMARK  11 active torsions:
REMARK  status: ('A' for Active; 'I' for Inactive)
REMARK    1  A    between atoms: C_1  and  C_2
REMARK    2  A    between atoms: C_2  and  C_3
REMARK    3  A    between atoms: C_2  and  N_4
REMARK    4  A    between atoms: N_4  and  C_5
REMARK    5  A    between atoms: N_4  and  C_6
REMARK    6  A    between atoms: C_6  and  C_7
REMARK    7  A    between atoms: N_11  and  C_12
REMARK    8  A    between atoms: C_12  and  C_13
REMARK    9  A    between atoms: N_15  and  C_16
REMARK   10  A    between atoms: N_15  and  C_17
REMARK   11  A    between atoms: C_17  and  C_18
REMARK                            x       y       z     vdW  Elec       q    Type
REMARK                         _______ _______ _______ _____ _____    ______ ____
ROOT
ATOM      1  C   UNL     1       5.015   3.509  16.841  0.00  0.00    +0.000 C 
ENDROOT
BRANCH   1   6
ATOM      2  C   UNL     1       6.248   4.686  14.926  0.00  0.00    +0.000 A 
ATOM      3  N   UNL     1       7.198   5.600  14.925  0.00  0.00    +0.000 NA
ATOM      4  N   UNL     1       7.610   5.746  16.219  0.00  0.00    +0.000 NA
ATOM      5  N   UNL     1       6.927   4.953  17.020  0.00  0.00    +0.000 NA
ATOM      6  N   UNL     1       6.086   4.257  16.222  0.00  0.00    +0.000 N 
BRANCH   2   7
ATOM      7  C   UNL     1       5.494   4.205  13.742  0.00  0.00    +0.000 C 
BRANCH   7   8
ATOM      8  N   UNL     1       6.291   3.385  12.800  0.00  0.00    +0.000 NA
ATOM      9  C   UNL     1       7.079   4.304  11.965  0.00  0.00    +0.000 C 
BRANCH   8  11
ATOM     10  C   UNL     1       4.326   3.088  11.179  0.00  0.00    +0.000 C 
ATOM     11  C   UNL     1       5.459   2.447  11.995  0.00  0.00    +0.000 C 
ATOM     12  C   UNL     1       6.322   1.572  11.070  0.00  0.00    +0.000 C 
ENDBRANCH   8  11
ENDBRANCH   7   8
ENDBRANCH   2   7
ENDBRANCH   1   6
BRANCH   1  13
ATOM     13  C   UNL     1       4.696   3.849  18.280  0.00  0.00    +0.000 C 
ATOM     14  O   UNL     1       5.592   4.024  19.104  0.00  0.00    +0.000 OA
ATOM     15  N   UNL     1       3.350   4.097  18.588  0.00  0.00    +0.000 N 
ATOM     16  C   UNL     1       2.280   3.943  17.613  0.00  0.00    +0.000 C 
BRANCH  15  17
ATOM     17  C   UNL     1       3.083   5.024  19.689  0.00  0.00    +0.000 C 
BRANCH  17  18
ATOM     18  C   UNL     1       2.602   6.419  19.356  0.00  0.00    +0.000 A 
ATOM     19  C   UNL     1       2.985   6.953  18.110  0.00  0.00    +0.000 A 
ATOM     20  C   UNL     1       2.643   8.251  17.739  0.00  0.00    +0.000 A 
ATOM     21  C   UNL     1       1.909   9.047  18.615  0.00  0.00    +0.000 A 
ATOM     22  C   UNL     1       1.499   8.523  19.842  0.00  0.00    +0.000 A 
ATOM     23 CL   UNL     1       0.591   9.512  20.922  0.00  0.00    +0.000 Cl
ATOM     24  C   UNL     1       1.831   7.213  20.211  0.00  0.00    +0.000 A 
ENDBRANCH  17  18
ENDBRANCH  15  17
ENDBRANCH   1  13
TORSDOF 7
ENDMDL
MODEL 5
REMARK VINA RESULT:      -6.4      3.524      8.209
REMARK  Name = 
REMARK  11 active torsions:
REMARK  status: ('A' for Active; 'I' for Inactive)
REMARK    1  A    between atoms: C_1  and  C_2
REMARK    2  A    between atoms: C_2  and  C_3
REMARK    3  A    between atoms: C_2  and  N_4
REMARK    4  A    between atoms: N_4  and  C_5
REMARK    5  A    between atoms: N_4  and  C_6
REMARK    6  A    between atoms: C_6  and  C_7
REMARK    7  A    between atoms: N_11  and  C_12
REMARK    8  A    between atoms: C_12  and  C_13
REMARK    9  A    between atoms: N_15  and  C_16
REMARK   10  A    between atoms: N_15  and  C_17
REMARK   11  A    between atoms: C_17  and  C_18
REMARK                            x       y       z     vdW  Elec       q    Type
REMARK                         _______ _______ _______ _____ _____    ______ ____
ROOT
ATOM      1  C   UNL     1       4.528   4.749  17.294  0.00  0.00    +0.000 C 
ENDROOT
BRANCH   1   6
ATOM      2  C   UNL     1       6.562   4.430  15.766  0.00  0.00    +0.000 A 
ATOM      3  N   UNL     1       7.854   4.368  16.027  0.00  0.00    +0.000 NA
ATOM      4  N   UNL     1       7.983   4.330  17.386  0.00  0.00    +0.000 NA
ATOM      5  N   UNL     1       6.803   4.378  17.971  0.00  0.00    +0.000 NA
ATOM      6  N   UNL     1       5.895   4.412  16.969  0.00  0.00    +0.000 N 
BRANCH   2   7
ATOM      7  C   UNL     1       5.942   4.500  14.420  0.00  0.00    +0.000 C 
BRANCH   7   8
ATOM      8  N   UNL     1       6.762   3.909  13.338  0.00  0.00    +0.000 NA
ATOM      9  C   UNL     1       7.369   5.016  12.582  0.00  0.00    +0.000 C 
BRANCH   8  11
ATOM     10  C   UNL     1       4.717   3.546  11.833  0.00  0.00    +0.000 C 
ATOM     11  C   UNL     1       5.993   2.974  12.468  0.00  0.00    +0.000 C 
ATOM     12  C   UNL     1       6.878   2.360  11.371  0.00  0.00    +0.000 C 
ENDBRANCH   8  11
ENDBRANCH   7   8
ENDBRANCH   2   7
ENDBRANCH   1   6
BRANCH   1  13
ATOM     13  C   UNL     1       4.257   6.189  17.667  0.00  0.00    +0.000 C 
ATOM     14  O   UNL     1       5.073   7.075  17.417  0.00  0.00    +0.000 OA
ATOM     15  N   UNL     1       2.981   6.483  18.171  0.00  0.00    +0.000 N 
ATOM     16  C   UNL     1       1.981   5.454  18.427  0.00  0.00    +0.000 C 
BRANCH  15  17
ATOM     17  C   UNL     1       2.462   7.828  17.919  0.00  0.00    +0.000 C 
BRANCH  17  18
ATOM     18  C   UNL     1       1.674   8.514  19.012  0.00  0.00    +0.000 A 
ATOM     19  C   UNL     1       1.798   7.998  20.318  0.00  0.00    +0.000 A 
ATOM     20  C   UNL     1       1.066   8.523  21.380  0.00  0.00    +0.000 A 
ATOM     21  C   UNL     1       0.186   9.578  21.155  0.00  0.00    +0.000 A 
ATOM     22  C   UNL     1       0.071  10.118  19.873  0.00  0.00    +0.000 A 
ATOM     23 CL   UNL     1      -1.020  11.423  19.601  0.00  0.00    +0.000 Cl
ATOM     24  C   UNL     1       0.817   9.599  18.806  0.00  0.00    +0.000 A 
ENDBRANCH  17  18
ENDBRANCH  15  17
ENDBRANCH   1  13
TORSDOF 7
ENDMDL
MODEL 6
REMARK VINA RESULT:      -6.4      1.629      3.469
REMARK  Name = 
REMARK  11 active torsions:
REMARK  status: ('A' for Active; 'I' for Inactive)
REMARK    1  A    between atoms: C_1  and  C_2
REMARK    2  A    between atoms: C_2  and  C_3
REMARK    3  A    between atoms: C_2  and  N_4
REMARK    4  A    between atoms: N_4  and  C_5
REMARK    5  A    between atoms: N_4  and  C_6
REMARK    6  A    between atoms: C_6  and  C_7
REMARK    7  A    between atoms: N_11  and  C_12
REMARK    8  A    between atoms: C_12  and  C_13
REMARK    9  A    between atoms: N_15  and  C_16
REMARK   10  A    between atoms: N_15  and  C_17
REMARK   11  A    between atoms: C_17  and  C_18
REMARK                            x       y       z     vdW  Elec       q    Type
REMARK                         _______ _______ _______ _____ _____    ______ ____
ROOT
ATOM      1  C   UNL     1       3.210   5.230  17.386  0.00  0.00    +0.000 C 
ENDROOT
BRANCH   1   6
ATOM      2  C   UNL     1       2.542   5.931  19.759  0.00  0.00    +0.000 A 
ATOM      3  N   UNL     1       2.246   7.109  20.276  0.00  0.00    +0.000 NA
ATOM      4  N   UNL     1       2.174   7.991  19.236  0.00  0.00    +0.000 NA
ATOM      5  N   UNL     1       2.429   7.390  18.091  0.00  0.00    +0.000 NA
ATOM      6  N   UNL     1       2.635   6.088  18.396  0.00  0.00    +0.000 N 
BRANCH   2   7
ATOM      7  C   UNL     1       2.734   4.668  20.512  0.00  0.00    +0.000 C 
BRANCH   7   8
ATOM      8  N   UNL     1       1.637   3.686  20.350  0.00  0.00    +0.000 NA
ATOM      9  C   UNL     1       1.576   2.878  21.578  0.00  0.00    +0.000 C 
BRANCH   8  11
ATOM     10  C   UNL     1       2.926   1.837  19.127  0.00  0.00    +0.000 C 
ATOM     11  C   UNL     1       1.774   2.854  19.122  0.00  0.00    +0.000 C 
ATOM     12  C   UNL     1       0.461   2.136  18.771  0.00  0.00    +0.000 C 
ENDBRANCH   8  11
ENDBRANCH   7   8
ENDBRANCH   2   7
ENDBRANCH   1   6
BRANCH   1  13
ATOM     13  C   UNL     1       4.708   5.032  17.439  0.00  0.00    +0.000 C 
ATOM     14  O   UNL     1       5.209   4.168  18.157  0.00  0.00    +0.000 OA
ATOM     15  N   UNL     1       5.478   5.772  16.528  0.00  0.00    +0.000 N 
ATOM     16  C   UNL     1       4.897   6.764  15.634  0.00  0.00    +0.000 C 
BRANCH  15  17
ATOM     17  C   UNL     1       6.738   5.173  16.086  0.00  0.00    +0.000 C 
BRANCH  17  18
ATOM     18  C   UNL     1       6.892   4.814  14.625  0.00  0.00    +0.000 A 
ATOM     19  C   UNL     1       7.815   5.565  13.869  0.00  0.00    +0.000 A 
ATOM     20  C   UNL     1       7.983   5.350  12.504  0.00  0.00    +0.000 A 
ATOM     21  C   UNL     1       7.223   4.376  11.862  0.00  0.00    +0.000 A 
ATOM     22  C   UNL     1       6.323   3.605  12.601  0.00  0.00    +0.000 A 
ATOM     23 CL   UNL     1       5.386   2.402  11.801  0.00  0.00    +0.000 Cl
ATOM     24  C   UNL     1       6.164   3.812  13.977  0.00  0.00    +0.000 A 
ENDBRANCH  17  18
ENDBRANCH  15  17
ENDBRANCH   1  13
TORSDOF 7
ENDMDL
MODEL 7
REMARK VINA RESULT:      -6.4      4.101      7.736
REMARK  Name = 
REMARK  11 active torsions:
REMARK  status: ('A' for Active; 'I' for Inactive)
REMARK    1  A    between atoms: C_1  and  C_2
REMARK    2  A    between atoms: C_2  and  C_3
REMARK    3  A    between atoms: C_2  and  N_4
REMARK    4  A    between atoms: N_4  and  C_5
REMARK    5  A    between atoms: N_4  and  C_6
REMARK    6  A    between atoms: C_6  and  C_7
REMARK    7  A    between atoms: N_11  and  C_12
REMARK    8  A    between atoms: C_12  and  C_13
REMARK    9  A    between atoms: N_15  and  C_16
REMARK   10  A    between atoms: N_15  and  C_17
REMARK   11  A    between atoms: C_17  and  C_18
REMARK                            x       y       z     vdW  Elec       q    Type
REMARK                         _______ _______ _______ _____ _____    ______ ____
ROOT
ATOM      1  C   UNL     1       2.929   6.310  19.138  0.00  0.00    +0.000 C 
ENDROOT
BRANCH   1   6
ATOM      2  C   UNL     1       3.887   4.442  17.668  0.00  0.00    +0.000 A 
ATOM      3  N   UNL     1       3.310   3.431  17.046  0.00  0.00    +0.000 NA
ATOM      4  N   UNL     1       1.961   3.614  17.160  0.00  0.00    +0.000 NA
ATOM      5  N   UNL     1       1.692   4.706  17.847  0.00  0.00    +0.000 NA
ATOM      6  N   UNL     1       2.890   5.256  18.151  0.00  0.00    +0.000 N 
BRANCH   2   7
ATOM      7  C   UNL     1       5.347   4.660  17.816  0.00  0.00    +0.000 C 
BRANCH   7   8
ATOM      8  N   UNL     1       5.824   5.967  17.308  0.00  0.00    +0.000 NA
ATOM      9  C   UNL     1       5.645   5.971  15.848  0.00  0.00    +0.000 C 
BRANCH   8  11
ATOM     10  C   UNL     1       7.645   7.749  17.607  0.00  0.00    +0.000 C 
ATOM     11  C   UNL     1       7.224   6.275  17.715  0.00  0.00    +0.000 C 
ATOM     12  C   UNL     1       7.532   5.759  19.130  0.00  0.00    +0.000 C 
ENDBRANCH   8  11
ENDBRANCH   7   8
ENDBRANCH   2   7
ENDBRANCH   1   6
BRANCH   1  13
ATOM     13  C   UNL     1       2.577   7.701  18.657  0.00  0.00    +0.000 C 
ATOM     14  O   UNL     1       2.855   8.067  17.516  0.00  0.00    +0.000 OA
ATOM     15  N   UNL     1       1.797   8.489  19.516  0.00  0.00    +0.000 N 
ATOM     16  C   UNL     1       1.416   8.053  20.853  0.00  0.00    +0.000 C 
BRANCH  15  17
ATOM     17  C   UNL     1       0.916   9.477  18.892  0.00  0.00    +0.000 C 
BRANCH  17  18
ATOM     18  C   UNL     1       1.197  10.945  19.128  0.00  0.00    +0.000 A 
ATOM     19  C   UNL     1       2.019  11.603  18.191  0.00  0.00    +0.000 A 
ATOM     20  C   UNL     1       2.384  12.937  18.355  0.00  0.00    +0.000 A 
ATOM     21  C   UNL     1       1.934  13.642  19.469  0.00  0.00    +0.000 A 
ATOM     22  C   UNL     1       1.098  13.012  20.392  0.00  0.00    +0.000 A 
ATOM     23 CL   UNL     1       0.546  13.889  21.768  0.00  0.00    +0.000 Cl
ATOM     24  C   UNL     1       0.720  11.674  20.221  0.00  0.00    +0.000 A 
ENDBRANCH  17  18
ENDBRANCH  15  17
ENDBRANCH   1  13
TORSDOF 7
ENDMDL
MODEL 8
REMARK VINA RESULT:      -6.3      2.767      7.786
REMARK  Name = 
REMARK  11 active torsions:
REMARK  status: ('A' for Active; 'I' for Inactive)
REMARK    1  A    between atoms: C_1  and  C_2
REMARK    2  A    between atoms: C_2  and  C_3
REMARK    3  A    between atoms: C_2  and  N_4
REMARK    4  A    between atoms: N_4  and  C_5
REMARK    5  A    between atoms: N_4  and  C_6
REMARK    6  A    between atoms: C_6  and  C_7
REMARK    7  A    between atoms: N_11  and  C_12
REMARK    8  A    between atoms: C_12  and  C_13
REMARK    9  A    between atoms: N_15  and  C_16
REMARK   10  A    between atoms: N_15  and  C_17
REMARK   11  A    between atoms: C_17  and  C_18
REMARK                            x       y       z     vdW  Elec       q    Type
REMARK                         _______ _______ _______ _____ _____    ______ ____
ROOT
ATOM      1  C   UNL     1       5.343   3.456  16.874  0.00  0.00    +0.000 C 
ENDROOT
BRANCH   1   6
ATOM      2  C   UNL     1       6.362   4.607  14.823  0.00  0.00    +0.000 A 
ATOM      3  N   UNL     1       7.271   5.557  14.711  0.00  0.00    +0.000 NA
ATOM      4  N   UNL     1       7.782   5.766  15.960  0.00  0.00    +0.000 NA
ATOM      5  N   UNL     1       7.202   4.978  16.843  0.00  0.00    +0.000 NA
ATOM      6  N   UNL     1       6.326   4.220  16.142  0.00  0.00    +0.000 N 
BRANCH   2   7
ATOM      7  C   UNL     1       5.534   4.054  13.724  0.00  0.00    +0.000 C 
BRANCH   7   8
ATOM      8  N   UNL     1       6.286   3.242  12.739  0.00  0.00    +0.000 NA
ATOM      9  C   UNL     1       7.089   4.164  11.922  0.00  0.00    +0.000 C 
BRANCH   8  11
ATOM     10  C   UNL     1       4.290   3.071  11.137  0.00  0.00    +0.000 C 
ATOM     11  C   UNL     1       5.408   2.362  11.917  0.00  0.00    +0.000 C 
ATOM     12  C   UNL     1       6.224   1.484  10.955  0.00  0.00    +0.000 C 
ENDBRANCH   8  11
ENDBRANCH   7   8
ENDBRANCH   2   7
ENDBRANCH   1   6
BRANCH   1  13
ATOM     13  C   UNL     1       4.114   4.204  17.340  0.00  0.00    +0.000 C 
ATOM     14  O   UNL     1       3.060   4.147  16.708  0.00  0.00    +0.000 OA
ATOM     15  N   UNL     1       4.192   4.835  18.590  0.00  0.00    +0.000 N 
ATOM     16  C   UNL     1       5.417   4.871  19.377  0.00  0.00    +0.000 C 
BRANCH  15  17
ATOM     17  C   UNL     1       2.945   4.968  19.345  0.00  0.00    +0.000 C 
BRANCH  17  18
ATOM     18  C   UNL     1       2.388   6.355  19.579  0.00  0.00    +0.000 A 
ATOM     19  C   UNL     1       1.715   6.583  20.796  0.00  0.00    +0.000 A 
ATOM     20  C   UNL     1       1.115   7.808  21.078  0.00  0.00    +0.000 A 
ATOM     21  C   UNL     1       1.175   8.835  20.139  0.00  0.00    +0.000 A 
ATOM     22  C   UNL     1       1.861   8.634  18.940  0.00  0.00    +0.000 A 
ATOM     23 CL   UNL     1       1.931   9.908  17.783  0.00  0.00    +0.000 Cl
ATOM     24  C   UNL     1       2.475   7.406  18.662  0.00  0.00    +0.000 A 
ENDBRANCH  17  18
ENDBRANCH  15  17
ENDBRANCH   1  13
TORSDOF 7
ENDMDL
MODEL 9
REMARK VINA RESULT:      -6.3      3.428      7.672
REMARK  Name = 
REMARK  11 active torsions:
REMARK  status: ('A' for Active; 'I' for Inactive)
REMARK    1  A    between atoms: C_1  and  C_2
REMARK    2  A    between atoms: C_2  and  C_3
REMARK    3  A    between atoms: C_2  and  N_4
REMARK    4  A    between atoms: N_4  and  C_5
REMARK    5  A    between atoms: N_4  and  C_6
REMARK    6  A    between atoms: C_6  and  C_7
REMARK    7  A    between atoms: N_11  and  C_12
REMARK    8  A    between atoms: C_12  and  C_13
REMARK    9  A    between atoms: N_15  and  C_16
REMARK   10  A    between atoms: N_15  and  C_17
REMARK   11  A    between atoms: C_17  and  C_18
REMARK                            x       y       z     vdW  Elec       q    Type
REMARK                         _______ _______ _______ _____ _____    ______ ____
ROOT
ATOM      1  C   UNL     1       2.303   4.785  18.536  0.00  0.00    +0.000 C 
ENDROOT
BRANCH   1   6
ATOM      2  C   UNL     1       4.675   4.058  19.181  0.00  0.00    +0.000 A 
ATOM      3  N   UNL     1       5.137   2.941  19.710  0.00  0.00    +0.000 NA
ATOM      4  N   UNL     1       4.101   2.052  19.727  0.00  0.00    +0.000 NA
ATOM      5  N   UNL     1       3.007   2.596  19.233  0.00  0.00    +0.000 NA
ATOM      6  N   UNL     1       3.355   3.848  18.857  0.00  0.00    +0.000 N 
BRANCH   2   7
ATOM      7  C   UNL     1       5.442   5.310  18.970  0.00  0.00    +0.000 C 
BRANCH   7   8
ATOM      8  N   UNL     1       6.478   5.223  17.915  0.00  0.00    +0.000 NA
ATOM      9  C   UNL     1       7.336   6.412  18.032  0.00  0.00    +0.000 C 
BRANCH   8  11
ATOM     10  C   UNL     1       5.163   6.279  15.983  0.00  0.00    +0.000 C 
ATOM     11  C   UNL     1       5.906   5.059  16.548  0.00  0.00    +0.000 C 
ATOM     12  C   UNL     1       6.969   4.596  15.539  0.00  0.00    +0.000 C 
ENDBRANCH   8  11
ENDBRANCH   7   8
ENDBRANCH   2   7
ENDBRANCH   1   6
BRANCH   1  13
ATOM     13  C   UNL     1       1.786   5.638  19.673  0.00  0.00    +0.000 C 
ATOM     14  O   UNL     1       1.372   5.127  20.713  0.00  0.00    +0.000 OA
ATOM     15  N   UNL     1       1.939   7.027  19.543  0.00  0.00    +0.000 N 
ATOM     16  C   UNL     1       2.474   7.649  18.339  0.00  0.00    +0.000 C 
BRANCH  15  17
ATOM     17  C   UNL     1       2.090   7.795  20.779  0.00  0.00    +0.000 C 
BRANCH  17  18
ATOM     18  C   UNL     1       1.078   8.879  21.082  0.00  0.00    +0.000 A 
ATOM     19  C   UNL     1       0.748   9.093  22.436  0.00  0.00    +0.000 A 
ATOM     20  C   UNL     1      -0.216  10.025  22.810  0.00  0.00    +0.000 A 
ATOM     21  C   UNL     1      -0.877  10.763  21.832  0.00  0.00    +0.000 A 
ATOM     22  C   UNL     1      -0.544  10.581  20.488  0.00  0.00    +0.000 A 
ATOM     23 CL   UNL     1      -1.365  11.496  19.282  0.00  0.00    +0.000 Cl
ATOM     24  C   UNL     1       0.436   9.653  20.112  0.00  0.00    +0.000 A 
ENDBRANCH  17  18
ENDBRANCH  15  17
ENDBRANCH   1  13
TORSDOF 7
ENDMDL
