MODEL 1
REMARK VINA RESULT:      -8.5      0.000      0.000
REMARK  Name = 
REMARK  5 active torsions:
REMARK  status: ('A' for Active; 'I' for Inactive)
REMARK    1  A    between atoms: N_14  and  O_15
REMARK    2  A    between atoms: O_15  and  C_16
REMARK    3  A    between atoms: C_16  and  C_18
REMARK    4  A    between atoms: C_18  and  O_19
REMARK    5  A    between atoms: O_19  and  C_20
REMARK                            x       y       z     vdW  Elec       q    Type
REMARK                         _______ _______ _______ _____ _____    ______ ____
ROOT
ATOM      1  O   UNL     1      -6.465  12.314  17.173  0.00  0.00    +0.000 OA
ATOM      2  C   UNL     1      -6.185  11.438  17.976  0.00  0.00    +0.000 C 
ATOM      3  C   UNL     1      -7.022  11.075  19.180  0.00  0.00    +0.000 C 
ATOM      4  C   UNL     1      -6.960  12.224  20.186  0.00  0.00    +0.000 C 
ATOM      5  C   UNL     1      -7.620  11.868  21.513  0.00  0.00    +0.000 C 
ATOM      6  C   UNL     1      -7.395  12.936  22.594  0.00  0.00    +0.000 C 
ATOM      7  C   UNL     1      -6.203  12.646  23.520  0.00  0.00    +0.000 C 
ATOM      8  C   UNL     1      -4.875  13.211  23.009  0.00  0.00    +0.000 C 
ATOM      9  C   UNL     1      -3.725  12.880  23.963  0.00  0.00    +0.000 C 
ATOM     10  C   UNL     1      -2.366  13.425  23.500  0.00  0.00    +0.000 C 
ATOM     11  C   UNL     1      -1.579  12.461  22.602  0.00  0.00    +0.000 C 
ATOM     12  C   UNL     1      -1.810  12.698  21.110  0.00  0.00    +0.000 C 
ATOM     13  C   UNL     1      -1.198  11.638  20.196  0.00  0.00    +0.000 C 
ATOM     14  N   UNL     1      -0.562  10.640  20.728  0.00  0.00    +0.000 NA
ATOM     15  C   UNL     1      -1.432  11.799  18.698  0.00  0.00    +0.000 C 
ATOM     16  C   UNL     1      -2.596  10.933  18.214  0.00  0.00    +0.000 C 
ATOM     17  C   UNL     1      -3.923  11.676  18.294  0.00  0.00    +0.000 C 
ATOM     18  O   UNL     1      -4.995  10.778  18.006  0.00  0.00    +0.000 OA
ENDROOT
BRANCH  14  19
ATOM     19  O   UNL     1      -0.085   9.720  19.775  0.00  0.00    +0.000 OA
BRANCH  19  20
ATOM     20  C   UNL     1       0.995   9.041  20.292  0.00  0.00    +0.000 C 
ATOM     21  O   UNL     1       1.254   8.868  21.476  0.00  0.00    +0.000 OA
BRANCH  20  22
ATOM     22  C   UNL     1       1.837   8.482  19.162  0.00  0.00    +0.000 C 
BRANCH  22  23
ATOM     23  O   UNL     1       2.657   7.443  19.676  0.00  0.00    +0.000 OA
BRANCH  23  24
ATOM     24  C   UNL     1       2.198   6.161  19.557  0.00  0.00    +0.000 A 
ATOM     25  C   UNL     1       1.745   5.346  20.594  0.00  0.00    +0.000 A 
ATOM     26  C   UNL     1       1.273   4.059  20.316  0.00  0.00    +0.000 A 
ATOM     27  C   UNL     1       1.261   3.586  19.004  0.00  0.00    +0.000 A 
ATOM     28 CL   UNL     1       0.659   2.010  18.666  0.00  0.00    +0.000 Cl
ATOM     29  C   UNL     1       1.729   4.385  17.967  0.00  0.00    +0.000 A 
ATOM     30  C   UNL     1       2.200   5.670  18.246  0.00  0.00    +0.000 A 
ENDBRANCH  23  24
ENDBRANCH  22  23
ENDBRANCH  20  22
ENDBRANCH  19  20
ENDBRANCH  14  19
TORSDOF 5
ENDMDL
MODEL 2
REMARK VINA RESULT:      -8.3      0.976      1.350
REMARK  Name = 
REMARK  5 active torsions:
REMARK  status: ('A' for Active; 'I' for Inactive)
REMARK    1  A    between atoms: N_14  and  O_15
REMARK    2  A    between atoms: O_15  and  C_16
REMARK    3  A    between atoms: C_16  and  C_18
REMARK    4  A    between atoms: C_18  and  O_19
REMARK    5  A    between atoms: O_19  and  C_20
REMARK                            x       y       z     vdW  Elec       q    Type
REMARK                         _______ _______ _______ _____ _____    ______ ____
ROOT
ATOM      1  O   UNL     1      -5.511  12.150  16.914  0.00  0.00    +0.000 OA
ATOM      2  C   UNL     1      -5.357  11.290  17.767  0.00  0.00    +0.000 C 
ATOM      3  C   UNL     1      -6.411  10.868  18.763  0.00  0.00    +0.000 C 
ATOM      4  C   UNL     1      -6.643  12.013  19.748  0.00  0.00    +0.000 C 
ATOM      5  C   UNL     1      -7.551  11.609  20.904  0.00  0.00    +0.000 C 
ATOM      6  C   UNL     1      -7.635  12.684  21.998  0.00  0.00    +0.000 C 
ATOM      7  C   UNL     1      -6.658  12.466  23.164  0.00  0.00    +0.000 C 
ATOM      8  C   UNL     1      -5.290  13.117  22.949  0.00  0.00    +0.000 C 
ATOM      9  C   UNL     1      -4.356  12.855  24.133  0.00  0.00    +0.000 C 
ATOM     10  C   UNL     1      -2.967  13.489  23.972  0.00  0.00    +0.000 C 
ATOM     11  C   UNL     1      -1.943  12.582  23.275  0.00  0.00    +0.000 C 
ATOM     12  C   UNL     1      -1.858  12.811  21.767  0.00  0.00    +0.000 C 
ATOM     13  C   UNL     1      -0.995  11.797  21.018  0.00  0.00    +0.000 C 
ATOM     14  N   UNL     1      -0.428  10.839  21.684  0.00  0.00    +0.000 NA
ATOM     15  C   UNL     1      -0.907  11.950  19.503  0.00  0.00    +0.000 C 
ATOM     16  C   UNL     1      -1.881  11.014  18.785  0.00  0.00    +0.000 C 
ATOM     17  C   UNL     1      -3.238  11.670  18.568  0.00  0.00    +0.000 C 
ATOM     18  O   UNL     1      -4.162  10.707  18.061  0.00  0.00    +0.000 OA
ENDROOT
BRANCH  14  19
ATOM     19  O   UNL     1       0.302   9.956  20.865  0.00  0.00    +0.000 OA
BRANCH  19  20
ATOM     20  C   UNL     1       0.214   8.680  21.373  0.00  0.00    +0.000 C 
ATOM     21  O   UNL     1      -0.802   8.109  21.750  0.00  0.00    +0.000 OA
BRANCH  20  22
ATOM     22  C   UNL     1       1.585   8.033  21.373  0.00  0.00    +0.000 C 
BRANCH  22  23
ATOM     23  O   UNL     1       2.003   7.852  20.029  0.00  0.00    +0.000 OA
BRANCH  23  24
ATOM     24  C   UNL     1       2.110   6.569  19.570  0.00  0.00    +0.000 A 
ATOM     25  C   UNL     1       2.414   6.181  18.265  0.00  0.00    +0.000 A 
ATOM     26  C   UNL     1       2.520   4.824  17.946  0.00  0.00    +0.000 A 
ATOM     27  C   UNL     1       2.318   3.856  18.930  0.00  0.00    +0.000 A 
ATOM     28 CL   UNL     1       2.472   2.188  18.537  0.00  0.00    +0.000 Cl
ATOM     29  C   UNL     1       1.997   4.234  20.228  0.00  0.00    +0.000 A 
ATOM     30  C   UNL     1       1.890   5.590  20.545  0.00  0.00    +0.000 A 
ENDBRANCH  23  24
ENDBRANCH  22  23
ENDBRANCH  20  22
ENDBRANCH  19  20
ENDBRANCH  14  19
TORSDOF 5
ENDMDL
MODEL 3
REMARK VINA RESULT:      -8.2      1.562      2.268
REMARK  Name = 
REMARK  5 active torsions:
REMARK  status: ('A' for Active; 'I' for Inactive)
REMARK    1  A    between atoms: N_14  and  O_15
REMARK    2  A    between atoms: O_15  and  C_16
REMARK    3  A    between atoms: C_16  and  C_18
REMARK    4  A    between atoms: C_18  and  O_19
REMARK    5  A    between atoms: O_19  and  C_20
REMARK                            x       y       z     vdW  Elec       q    Type
REMARK                         _______ _______ _______ _____ _____    ______ ____
ROOT
ATOM      1  O   UNL     1      -2.995  11.386  15.549  0.00  0.00    +0.000 OA
ATOM      2  C   UNL     1      -3.048  10.653  16.525  0.00  0.00    +0.000 C 
ATOM      3  C   UNL     1      -4.324  10.122  17.134  0.00  0.00    +0.000 C 
ATOM      4  C   UNL     1      -5.082  11.281  17.778  0.00  0.00    +0.000 C 
ATOM      5  C   UNL     1      -6.288  10.810  18.582  0.00  0.00    +0.000 C 
ATOM      6  C   UNL     1      -6.942  11.941  19.392  0.00  0.00    +0.000 C 
ATOM      7  C   UNL     1      -6.458  12.027  20.847  0.00  0.00    +0.000 C 
ATOM      8  C   UNL     1      -5.225  12.915  21.034  0.00  0.00    +0.000 C 
ATOM      9  C   UNL     1      -4.782  12.952  22.498  0.00  0.00    +0.000 C 
ATOM     10  C   UNL     1      -3.548  13.832  22.745  0.00  0.00    +0.000 C 
ATOM     11  C   UNL     1      -2.212  13.088  22.611  0.00  0.00    +0.000 C 
ATOM     12  C   UNL     1      -1.598  13.192  21.216  0.00  0.00    +0.000 C 
ATOM     13  C   UNL     1      -0.373  12.307  20.992  0.00  0.00    +0.000 C 
ATOM     14  N   UNL     1       0.037  11.544  21.959  0.00  0.00    +0.000 NA
ATOM     15  C   UNL     1       0.257  12.338  19.604  0.00  0.00    +0.000 C 
ATOM     16  C   UNL     1      -0.218  11.166  18.744  0.00  0.00    +0.000 C 
ATOM     17  C   UNL     1      -1.474  11.517  17.957  0.00  0.00    +0.000 C 
ATOM     18  O   UNL     1      -1.981  10.348  17.313  0.00  0.00    +0.000 OA
ENDROOT
BRANCH  14  19
ATOM     19  O   UNL     1       1.147  10.755  21.604  0.00  0.00    +0.000 OA
BRANCH  19  20
ATOM     20  C   UNL     1       1.050   9.525  22.215  0.00  0.00    +0.000 C 
ATOM     21  O   UNL     1       1.130   9.295  23.415  0.00  0.00    +0.000 OA
BRANCH  20  22
ATOM     22  C   UNL     1       0.786   8.456  21.174  0.00  0.00    +0.000 C 
BRANCH  22  23
ATOM     23  O   UNL     1       2.027   8.034  20.629  0.00  0.00    +0.000 OA
BRANCH  23  24
ATOM     24  C   UNL     1       2.071   6.801  20.042  0.00  0.00    +0.000 A 
ATOM     25  C   UNL     1       1.707   5.590  20.632  0.00  0.00    +0.000 A 
ATOM     26  C   UNL     1       1.775   4.405  19.894  0.00  0.00    +0.000 A 
ATOM     27  C   UNL     1       2.212   4.429  18.570  0.00  0.00    +0.000 A 
ATOM     28 CL   UNL     1       2.274   2.969  17.661  0.00  0.00    +0.000 Cl
ATOM     29  C   UNL     1       2.594   5.628  17.980  0.00  0.00    +0.000 A 
ATOM     30  C   UNL     1       2.526   6.811  18.718  0.00  0.00    +0.000 A 
ENDBRANCH  23  24
ENDBRANCH  22  23
ENDBRANCH  20  22
ENDBRANCH  19  20
ENDBRANCH  14  19
TORSDOF 5
ENDMDL
MODEL 4
REMARK VINA RESULT:      -8.2      1.266      1.503
REMARK  Name = 
REMARK  5 active torsions:
REMARK  status: ('A' for Active; 'I' for Inactive)
REMARK    1  A    between atoms: N_14  and  O_15
REMARK    2  A    between atoms: O_15  and  C_16
REMARK    3  A    between atoms: C_16  and  C_18
REMARK    4  A    between atoms: C_18  and  O_19
REMARK    5  A    between atoms: O_19  and  C_20
REMARK                            x       y       z     vdW  Elec       q    Type
REMARK                         _______ _______ _______ _____ _____    ______ ____
ROOT
ATOM      1  O   UNL     1      -5.008  11.910  16.653  0.00  0.00    +0.000 OA
ATOM      2  C   UNL     1      -4.844  11.122  17.571  0.00  0.00    +0.000 C 
ATOM      3  C   UNL     1      -5.866  10.823  18.642  0.00  0.00    +0.000 C 
ATOM      4  C   UNL     1      -6.023  12.057  19.530  0.00  0.00    +0.000 C 
ATOM      5  C   UNL     1      -6.893  11.785  20.752  0.00  0.00    +0.000 C 
ATOM      6  C   UNL     1      -6.900  12.953  21.749  0.00  0.00    +0.000 C 
ATOM      7  C   UNL     1      -5.881  12.805  22.890  0.00  0.00    +0.000 C 
ATOM      8  C   UNL     1      -4.505  13.390  22.565  0.00  0.00    +0.000 C 
ATOM      9  C   UNL     1      -3.530  13.203  23.729  0.00  0.00    +0.000 C 
ATOM     10  C   UNL     1      -2.130  13.774  23.458  0.00  0.00    +0.000 C 
ATOM     11  C   UNL     1      -1.164  12.777  22.804  0.00  0.00    +0.000 C 
ATOM     12  C   UNL     1      -1.136  12.871  21.280  0.00  0.00    +0.000 C 
ATOM     13  C   UNL     1      -0.336  11.768  20.589  0.00  0.00    +0.000 C 
ATOM     14  N   UNL     1       0.231  10.853  21.315  0.00  0.00    +0.000 NA
ATOM     15  C   UNL     1      -0.307  11.786  19.065  0.00  0.00    +0.000 C 
ATOM     16  C   UNL     1      -1.337  10.823  18.471  0.00  0.00    +0.000 C 
ATOM     17  C   UNL     1      -2.683  11.501  18.251  0.00  0.00    +0.000 C 
ATOM     18  O   UNL     1      -3.655  10.529  17.868  0.00  0.00    +0.000 OA
ENDROOT
BRANCH  14  19
ATOM     19  O   UNL     1       0.900   9.880  20.549  0.00  0.00    +0.000 OA
BRANCH  19  20
ATOM     20  C   UNL     1       0.682   8.636  21.096  0.00  0.00    +0.000 C 
ATOM     21  O   UNL     1      -0.186   8.333  21.906  0.00  0.00    +0.000 OA
BRANCH  20  22
ATOM     22  C   UNL     1       1.669   7.642  20.517  0.00  0.00    +0.000 C 
BRANCH  22  23
ATOM     23  O   UNL     1       1.358   6.349  21.015  0.00  0.00    +0.000 OA
BRANCH  23  24
ATOM     24  C   UNL     1       1.922   5.278  20.381  0.00  0.00    +0.000 A 
ATOM     25  C   UNL     1       3.191   5.232  19.804  0.00  0.00    +0.000 A 
ATOM     26  C   UNL     1       3.649   4.050  19.214  0.00  0.00    +0.000 A 
ATOM     27  C   UNL     1       2.836   2.916  19.196  0.00  0.00    +0.000 A 
ATOM     28 CL   UNL     1       3.414   1.459  18.488  0.00  0.00    +0.000 Cl
ATOM     29  C   UNL     1       1.563   2.959  19.752  0.00  0.00    +0.000 A 
ATOM     30  C   UNL     1       1.107   4.140  20.341  0.00  0.00    +0.000 A 
ENDBRANCH  23  24
ENDBRANCH  22  23
ENDBRANCH  20  22
ENDBRANCH  19  20
ENDBRANCH  14  19
TORSDOF 5
ENDMDL
MODEL 5
REMARK VINA RESULT:      -8.2      1.402      2.053
REMARK  Name = 
REMARK  5 active torsions:
REMARK  status: ('A' for Active; 'I' for Inactive)
REMARK    1  A    between atoms: N_14  and  O_15
REMARK    2  A    between atoms: O_15  and  C_16
REMARK    3  A    between atoms: C_16  and  C_18
REMARK    4  A    between atoms: C_18  and  O_19
REMARK    5  A    between atoms: O_19  and  C_20
REMARK                            x       y       z     vdW  Elec       q    Type
REMARK                         _______ _______ _______ _____ _____    ______ ____
ROOT
ATOM      1  O   UNL     1      -4.304  11.516  16.512  0.00  0.00    +0.000 OA
ATOM      2  C   UNL     1      -4.249  10.833  17.523  0.00  0.00    +0.000 C 
ATOM      3  C   UNL     1      -5.446  10.405  18.338  0.00  0.00    +0.000 C 
ATOM      4  C   UNL     1      -6.040  11.635  19.022  0.00  0.00    +0.000 C 
ATOM      5  C   UNL     1      -7.136  11.272  20.017  0.00  0.00    +0.000 C 
ATOM      6  C   UNL     1      -7.604  12.474  20.852  0.00  0.00    +0.000 C 
ATOM      7  C   UNL     1      -6.907  12.597  22.215  0.00  0.00    +0.000 C 
ATOM      8  C   UNL     1      -5.616  13.419  22.173  0.00  0.00    +0.000 C 
ATOM      9  C   UNL     1      -4.960  13.496  23.554  0.00  0.00    +0.000 C 
ATOM     10  C   UNL     1      -3.660  14.313  23.571  0.00  0.00    +0.000 C 
ATOM     11  C   UNL     1      -2.398  13.487  23.284  0.00  0.00    +0.000 C 
ATOM     12  C   UNL     1      -1.993  13.492  21.811  0.00  0.00    +0.000 C 
ATOM     13  C   UNL     1      -0.862  12.528  21.459  0.00  0.00    +0.000 C 
ATOM     14  N   UNL     1      -0.352  11.787  22.395  0.00  0.00    +0.000 NA
ATOM     15  C   UNL     1      -0.442  12.459  19.995  0.00  0.00    +0.000 C 
ATOM     16  C   UNL     1      -1.099  11.280  19.276  0.00  0.00    +0.000 C 
ATOM     17  C   UNL     1      -2.438  11.667  18.663  0.00  0.00    +0.000 C 
ATOM     18  O   UNL     1      -3.093  10.502  18.162  0.00  0.00    +0.000 OA
ENDROOT
BRANCH  14  19
ATOM     19  O   UNL     1       0.651  10.919  21.925  0.00  0.00    +0.000 OA
BRANCH  19  20
ATOM     20  C   UNL     1       0.530   9.697  22.548  0.00  0.00    +0.000 C 
ATOM     21  O   UNL     1       0.450   9.492  23.752  0.00  0.00    +0.000 OA
BRANCH  20  22
ATOM     22  C   UNL     1       0.468   8.597  21.507  0.00  0.00    +0.000 C 
BRANCH  22  23
ATOM     23  O   UNL     1       1.716   8.536  20.834  0.00  0.00    +0.000 OA
BRANCH  23  24
ATOM     24  C   UNL     1       1.951   7.450  20.039  0.00  0.00    +0.000 A 
ATOM     25  C   UNL     1       2.423   7.472  18.726  0.00  0.00    +0.000 A 
ATOM     26  C   UNL     1       2.647   6.273  18.043  0.00  0.00    +0.000 A 
ATOM     27  C   UNL     1       2.393   5.053  18.670  0.00  0.00    +0.000 A 
ATOM     28 CL   UNL     1       2.691   3.580  17.831  0.00  0.00    +0.000 Cl
ATOM     29  C   UNL     1       1.905   5.022  19.971  0.00  0.00    +0.000 A 
ATOM     30  C   UNL     1       1.682   6.221  20.651  0.00  0.00    +0.000 A 
ENDBRANCH  23  24
ENDBRANCH  22  23
ENDBRANCH  20  22
ENDBRANCH  19  20
ENDBRANCH  14  19
TORSDOF 5
ENDMDL
MODEL 6
REMARK VINA RESULT:      -8.1      1.631      2.287
REMARK  Name = 
REMARK  5 active torsions:
REMARK  status: ('A' for Active; 'I' for Inactive)
REMARK    1  A    between atoms: N_14  and  O_15
REMARK    2  A    between atoms: O_15  and  C_16
REMARK    3  A    between atoms: C_16  and  C_18
REMARK    4  A    between atoms: C_18  and  O_19
REMARK    5  A    between atoms: O_19  and  C_20
REMARK                            x       y       z     vdW  Elec       q    Type
REMARK                         _______ _______ _______ _____ _____    ______ ____
ROOT
ATOM      1  O   UNL     1      -2.599  11.479  15.836  0.00  0.00    +0.000 OA
ATOM      2  C   UNL     1      -2.800  10.696  16.751  0.00  0.00    +0.000 C 
ATOM      3  C   UNL     1      -4.163  10.325  17.283  0.00  0.00    +0.000 C 
ATOM      4  C   UNL     1      -4.762  11.539  17.992  0.00  0.00    +0.000 C 
ATOM      5  C   UNL     1      -6.056  11.203  18.725  0.00  0.00    +0.000 C 
ATOM      6  C   UNL     1      -6.562  12.360  19.600  0.00  0.00    +0.000 C 
ATOM      7  C   UNL     1      -6.127  12.267  21.070  0.00  0.00    +0.000 C 
ATOM      8  C   UNL     1      -4.783  12.940  21.358  0.00  0.00    +0.000 C 
ATOM      9  C   UNL     1      -4.396  12.804  22.833  0.00  0.00    +0.000 C 
ATOM     10  C   UNL     1      -3.054  13.464  23.180  0.00  0.00    +0.000 C 
ATOM     11  C   UNL     1      -1.842  12.535  23.026  0.00  0.00    +0.000 C 
ATOM     12  C   UNL     1      -1.165  12.643  21.660  0.00  0.00    +0.000 C 
ATOM     13  C   UNL     1      -0.081  11.598  21.403  0.00  0.00    +0.000 C 
ATOM     14  N   UNL     1       0.172  10.715  22.320  0.00  0.00    +0.000 NA
ATOM     15  C   UNL     1       0.601  11.630  20.040  0.00  0.00    +0.000 C 
ATOM     16  C   UNL     1      -0.012  10.610  19.080  0.00  0.00    +0.000 C 
ATOM     17  C   UNL     1      -1.170  11.204  18.288  0.00  0.00    +0.000 C 
ATOM     18  O   UNL     1      -1.822  10.176  17.543  0.00  0.00    +0.000 OA
ENDROOT
BRANCH  14  19
ATOM     19  O   UNL     1       1.163   9.791  21.937  0.00  0.00    +0.000 OA
BRANCH  19  20
ATOM     20  C   UNL     1       0.570   8.596  21.600  0.00  0.00    +0.000 C 
ATOM     21  O   UNL     1      -0.541   8.206  21.939  0.00  0.00    +0.000 OA
BRANCH  20  22
ATOM     22  C   UNL     1       1.491   7.806  20.691  0.00  0.00    +0.000 C 
BRANCH  22  23
ATOM     23  O   UNL     1       1.778   6.559  21.305  0.00  0.00    +0.000 OA
BRANCH  23  24
ATOM     24  C   UNL     1       1.872   5.464  20.494  0.00  0.00    +0.000 A 
ATOM     25  C   UNL     1       1.131   4.286  20.605  0.00  0.00    +0.000 A 
ATOM     26  C   UNL     1       1.314   3.256  19.678  0.00  0.00    +0.000 A 
ATOM     27  C   UNL     1       2.240   3.399  18.645  0.00  0.00    +0.000 A 
ATOM     28 CL   UNL     1       2.445   2.136  17.496  0.00  0.00    +0.000 Cl
ATOM     29  C   UNL     1       2.996   4.561  18.539  0.00  0.00    +0.000 A 
ATOM     30  C   UNL     1       2.812   5.590  19.466  0.00  0.00    +0.000 A 
ENDBRANCH  23  24
ENDBRANCH  22  23
ENDBRANCH  20  22
ENDBRANCH  19  20
ENDBRANCH  14  19
TORSDOF 5
ENDMDL
MODEL 7
REMARK VINA RESULT:      -8.1      1.549      1.951
REMARK  Name = 
REMARK  5 active torsions:
REMARK  status: ('A' for Active; 'I' for Inactive)
REMARK    1  A    between atoms: N_14  and  O_15
REMARK    2  A    between atoms: O_15  and  C_16
REMARK    3  A    between atoms: C_16  and  C_18
REMARK    4  A    between atoms: C_18  and  O_19
REMARK    5  A    between atoms: O_19  and  C_20
REMARK                            x       y       z     vdW  Elec       q    Type
REMARK                         _______ _______ _______ _____ _____    ______ ____
ROOT
ATOM      1  O   UNL     1      -5.069  12.153  16.505  0.00  0.00    +0.000 OA
ATOM      2  C   UNL     1      -5.081  11.295  17.373  0.00  0.00    +0.000 C 
ATOM      3  C   UNL     1      -6.240  11.029  18.304  0.00  0.00    +0.000 C 
ATOM      4  C   UNL     1      -6.384  12.211  19.261  0.00  0.00    +0.000 C 
ATOM      5  C   UNL     1      -7.407  11.947  20.360  0.00  0.00    +0.000 C 
ATOM      6  C   UNL     1      -7.420  13.042  21.437  0.00  0.00    +0.000 C 
ATOM      7  C   UNL     1      -6.553  12.721  22.664  0.00  0.00    +0.000 C 
ATOM      8  C   UNL     1      -5.101  13.188  22.532  0.00  0.00    +0.000 C 
ATOM      9  C   UNL     1      -4.285  12.830  23.775  0.00  0.00    +0.000 C 
ATOM     10  C   UNL     1      -2.818  13.278  23.698  0.00  0.00    +0.000 C 
ATOM     11  C   UNL     1      -1.878  12.236  23.076  0.00  0.00    +0.000 C 
ATOM     12  C   UNL     1      -1.670  12.426  21.574  0.00  0.00    +0.000 C 
ATOM     13  C   UNL     1      -0.901  11.298  20.891  0.00  0.00    +0.000 C 
ATOM     14  N   UNL     1      -0.504  10.286  21.601  0.00  0.00    +0.000 NA
ATOM     15  C   UNL     1      -0.700  11.412  19.384  0.00  0.00    +0.000 C 
ATOM     16  C   UNL     1      -1.739  10.595  18.613  0.00  0.00    +0.000 C 
ATOM     17  C   UNL     1      -2.984  11.416  18.304  0.00  0.00    +0.000 C 
ATOM     18  O   UNL     1      -3.991  10.570  17.748  0.00  0.00    +0.000 OA
ENDROOT
BRANCH  14  19
ATOM     19  O   UNL     1       0.156   9.304  20.839  0.00  0.00    +0.000 OA
BRANCH  19  20
ATOM     20  C   UNL     1       1.250   8.841  21.535  0.00  0.00    +0.000 C 
ATOM     21  O   UNL     1       1.696   9.290  22.583  0.00  0.00    +0.000 OA
BRANCH  20  22
ATOM     22  C   UNL     1       1.832   7.632  20.829  0.00  0.00    +0.000 C 
BRANCH  22  23
ATOM     23  O   UNL     1       1.773   7.852  19.428  0.00  0.00    +0.000 OA
BRANCH  23  24
ATOM     24  C   UNL     1       2.556   7.063  18.633  0.00  0.00    +0.000 A 
ATOM     25  C   UNL     1       3.626   7.488  17.844  0.00  0.00    +0.000 A 
ATOM     26  C   UNL     1       4.360   6.557  17.102  0.00  0.00    +0.000 A 
ATOM     27  C   UNL     1       4.022   5.204  17.146  0.00  0.00    +0.000 A 
ATOM     28 CL   UNL     1       4.942   4.061  16.248  0.00  0.00    +0.000 Cl
ATOM     29  C   UNL     1       2.946   4.776  17.914  0.00  0.00    +0.000 A 
ATOM     30  C   UNL     1       2.213   5.707  18.654  0.00  0.00    +0.000 A 
ENDBRANCH  23  24
ENDBRANCH  22  23
ENDBRANCH  20  22
ENDBRANCH  19  20
ENDBRANCH  14  19
TORSDOF 5
ENDMDL
MODEL 8
REMARK VINA RESULT:      -8.1      2.197      2.969
REMARK  Name = 
REMARK  5 active torsions:
REMARK  status: ('A' for Active; 'I' for Inactive)
REMARK    1  A    between atoms: N_14  and  O_15
REMARK    2  A    between atoms: O_15  and  C_16
REMARK    3  A    between atoms: C_16  and  C_18
REMARK    4  A    between atoms: C_18  and  O_19
REMARK    5  A    between atoms: O_19  and  C_20
REMARK                            x       y       z     vdW  Elec       q    Type
REMARK                         _______ _______ _______ _____ _____    ______ ____
ROOT
ATOM      1  O   UNL     1      -2.663  11.254  15.710  0.00  0.00    +0.000 OA
ATOM      2  C   UNL     1      -2.820  10.522  16.675  0.00  0.00    +0.000 C 
ATOM      3  C   UNL     1      -4.155  10.009  17.158  0.00  0.00    +0.000 C 
ATOM      4  C   UNL     1      -4.955  11.179  17.728  0.00  0.00    +0.000 C 
ATOM      5  C   UNL     1      -6.240  10.725  18.412  0.00  0.00    +0.000 C 
ATOM      6  C   UNL     1      -6.952  11.864  19.157  0.00  0.00    +0.000 C 
ATOM      7  C   UNL     1      -6.609  11.943  20.653  0.00  0.00    +0.000 C 
ATOM      8  C   UNL     1      -5.387  12.813  20.959  0.00  0.00    +0.000 C 
ATOM      9  C   UNL     1      -5.086  12.843  22.459  0.00  0.00    +0.000 C 
ATOM     10  C   UNL     1      -3.869  13.705  22.824  0.00  0.00    +0.000 C 
ATOM     11  C   UNL     1      -2.537  12.942  22.817  0.00  0.00    +0.000 C 
ATOM     12  C   UNL     1      -1.790  13.038  21.488  0.00  0.00    +0.000 C 
ATOM     13  C   UNL     1      -0.563  12.136  21.381  0.00  0.00    +0.000 C 
ATOM     14  N   UNL     1      -0.258  11.367  22.381  0.00  0.00    +0.000 NA
ATOM     15  C   UNL     1       0.199  12.158  20.060  0.00  0.00    +0.000 C 
ATOM     16  C   UNL     1      -0.208  10.994  19.156  0.00  0.00    +0.000 C 
ATOM     17  C   UNL     1      -1.378  11.363  18.253  0.00  0.00    +0.000 C 
ATOM     18  O   UNL     1      -1.837  10.201  17.561  0.00  0.00    +0.000 OA
ENDROOT
BRANCH  14  19
ATOM     19  O   UNL     1       0.870  10.561  22.133  0.00  0.00    +0.000 OA
BRANCH  19  20
ATOM     20  C   UNL     1       0.491   9.239  22.100  0.00  0.00    +0.000 C 
ATOM     21  O   UNL     1      -0.636   8.793  22.282  0.00  0.00    +0.000 OA
BRANCH  20  22
ATOM     22  C   UNL     1       1.687   8.372  21.761  0.00  0.00    +0.000 C 
BRANCH  22  23
ATOM     23  O   UNL     1       1.296   7.415  20.787  0.00  0.00    +0.000 OA
BRANCH  23  24
ATOM     24  C   UNL     1       2.179   7.144  19.780  0.00  0.00    +0.000 A 
ATOM     25  C   UNL     1       3.008   6.026  19.686  0.00  0.00    +0.000 A 
ATOM     26  C   UNL     1       3.841   5.866  18.575  0.00  0.00    +0.000 A 
ATOM     27  C   UNL     1       3.851   6.825  17.563  0.00  0.00    +0.000 A 
ATOM     28 CL   UNL     1       4.863   6.611  16.188  0.00  0.00    +0.000 Cl
ATOM     29  C   UNL     1       3.042   7.951  17.658  0.00  0.00    +0.000 A 
ATOM     30  C   UNL     1       2.210   8.110  18.768  0.00  0.00    +0.000 A 
ENDBRANCH  23  24
ENDBRANCH  22  23
ENDBRANCH  20  22
ENDBRANCH  19  20
ENDBRANCH  14  19
TORSDOF 5
ENDMDL
MODEL 9
REMARK VINA RESULT:      -8.1      1.566      2.393
REMARK  Name = 
REMARK  5 active torsions:
REMARK  status: ('A' for Active; 'I' for Inactive)
REMARK    1  A    between atoms: N_14  and  O_15
REMARK    2  A    between atoms: O_15  and  C_16
REMARK    3  A    between atoms: C_16  and  C_18
REMARK    4  A    between atoms: C_18  and  O_19
REMARK    5  A    between atoms: O_19  and  C_20
REMARK                            x       y       z     vdW  Elec       q    Type
REMARK                         _______ _______ _______ _____ _____    ______ ____
ROOT
ATOM      1  O   UNL     1      -2.666  11.331  15.808  0.00  0.00    +0.000 OA
ATOM      2  C   UNL     1      -2.826  10.582  16.759  0.00  0.00    +0.000 C 
ATOM      3  C   UNL     1      -4.168  10.174  17.317  0.00  0.00    +0.000 C 
ATOM      4  C   UNL     1      -4.818  11.389  17.976  0.00  0.00    +0.000 C 
ATOM      5  C   UNL     1      -6.091  11.028  18.733  0.00  0.00    +0.000 C 
ATOM      6  C   UNL     1      -6.645  12.199  19.558  0.00  0.00    +0.000 C 
ATOM      7  C   UNL     1      -6.199  12.193  21.029  0.00  0.00    +0.000 C 
ATOM      8  C   UNL     1      -4.885  12.939  21.276  0.00  0.00    +0.000 C 
ATOM      9  C   UNL     1      -4.484  12.888  22.752  0.00  0.00    +0.000 C 
ATOM     10  C   UNL     1      -3.172  13.624  23.058  0.00  0.00    +0.000 C 
ATOM     11  C   UNL     1      -1.919  12.745  22.937  0.00  0.00    +0.000 C 
ATOM     12  C   UNL     1      -1.256  12.822  21.563  0.00  0.00    +0.000 C 
ATOM     13  C   UNL     1      -0.126  11.818  21.345  0.00  0.00    +0.000 C 
ATOM     14  N   UNL     1       0.172  10.989  22.299  0.00  0.00    +0.000 NA
ATOM     15  C   UNL     1       0.546  11.819  19.976  0.00  0.00    +0.000 C 
ATOM     16  C   UNL     1      -0.024  10.729  19.068  0.00  0.00    +0.000 C 
ATOM     17  C   UNL     1      -1.212  11.234  18.259  0.00  0.00    +0.000 C 
ATOM     18  O   UNL     1      -1.821  10.143  17.566  0.00  0.00    +0.000 OA
ENDROOT
BRANCH  14  19
ATOM     19  O   UNL     1       1.203  10.096  21.950  0.00  0.00    +0.000 OA
BRANCH  19  20
ATOM     20  C   UNL     1       0.688   8.824  21.834  0.00  0.00    +0.000 C 
ATOM     21  O   UNL     1      -0.493   8.504  21.879  0.00  0.00    +0.000 OA
BRANCH  20  22
ATOM     22  C   UNL     1       1.813   7.836  21.599  0.00  0.00    +0.000 C 
BRANCH  22  23
ATOM     23  O   UNL     1       2.077   7.770  20.205  0.00  0.00    +0.000 OA
BRANCH  23  24
ATOM     24  C   UNL     1       2.095   6.533  19.626  0.00  0.00    +0.000 A 
ATOM     25  C   UNL     1       2.396   6.248  18.293  0.00  0.00    +0.000 A 
ATOM     26  C   UNL     1       2.404   4.923  17.846  0.00  0.00    +0.000 A 
ATOM     27  C   UNL     1       2.107   3.885  18.729  0.00  0.00    +0.000 A 
ATOM     28 CL   UNL     1       2.140   2.256  18.178  0.00  0.00    +0.000 Cl
ATOM     29  C   UNL     1       1.787   4.161  20.053  0.00  0.00    +0.000 A 
ATOM     30  C   UNL     1       1.779   5.485  20.498  0.00  0.00    +0.000 A 
ENDBRANCH  23  24
ENDBRANCH  22  23
ENDBRANCH  20  22
ENDBRANCH  19  20
ENDBRANCH  14  19
TORSDOF 5
ENDMDL
