MODEL 1
REMARK VINA RESULT:      -7.4      0.000      0.000
REMARK  Name = 
REMARK  2 active torsions:
REMARK  status: ('A' for Active; 'I' for Inactive)
REMARK    1  A    between atoms: C_2  and  C_11
REMARK    2  A    between atoms: N_3  and  C_4
REMARK                            x       y       z     vdW  Elec       q    Type
REMARK                         _______ _______ _______ _____ _____    ______ ____
ROOT
ATOM      1  O   UNL     1       2.217   9.011  17.282  0.00  0.00    +0.000 OA
ATOM      2  C   UNL     1       2.110   8.418  18.352  0.00  0.00    +0.000 C 
ATOM      3  N   UNL     1       2.739   7.221  18.666  0.00  0.00    +0.000 N 
ATOM      4  H   UNL     1       2.561   6.896  19.615  0.00  0.00    +0.000 HD
ENDROOT
BRANCH   2   5
ATOM      5  C   UNL     1       1.276   8.881  19.460  0.00  0.00    +0.000 A 
ATOM      6  N   UNL     1       0.485   9.931  19.352  0.00  0.00    +0.000 NA
ATOM      7  C   UNL     1      -0.059  10.222  20.590  0.00  0.00    +0.000 A 
ATOM      8  C   UNL     1      -0.855  11.344  20.888  0.00  0.00    +0.000 A 
ATOM      9  C   UNL     1      -1.281  11.547  22.201  0.00  0.00    +0.000 A 
ATOM     10 CL   UNL     1      -2.161  12.974  22.590  0.00  0.00    +0.000 Cl
ATOM     11  C   UNL     1      -0.979  10.631  23.203  0.00  0.00    +0.000 A 
ATOM     12  C   UNL     1      -0.218   9.490  22.923  0.00  0.00    +0.000 A 
ATOM     13  C   UNL     1       0.257   9.323  21.612  0.00  0.00    +0.000 A 
ATOM     14  S   UNL     1       1.291   8.097  20.980  0.00  0.00    +0.000 S 
ENDBRANCH   2   5
BRANCH   3  15
ATOM     15  C   UNL     1       3.571   6.430  17.858  0.00  0.00    +0.000 A 
ATOM     16  C   UNL     1       4.689   6.915  17.176  0.00  0.00    +0.000 A 
ATOM     17  C   UNL     1       5.465   6.060  16.387  0.00  0.00    +0.000 A 
ATOM     18  C   UNL     1       5.125   4.714  16.275  0.00  0.00    +0.000 A 
ATOM     19 CL   UNL     1       6.081   3.663  15.307  0.00  0.00    +0.000 Cl
ATOM     20  C   UNL     1       4.011   4.217  16.943  0.00  0.00    +0.000 A 
ATOM     21  C   UNL     1       3.234   5.075  17.729  0.00  0.00    +0.000 A 
ENDBRANCH   3  15
TORSDOF 2
ENDMDL
MODEL 2
REMARK VINA RESULT:      -7.3      0.133      1.085
REMARK  Name = 
REMARK  2 active torsions:
REMARK  status: ('A' for Active; 'I' for Inactive)
REMARK    1  A    between atoms: C_2  and  C_11
REMARK    2  A    between atoms: N_3  and  C_4
REMARK                            x       y       z     vdW  Elec       q    Type
REMARK                         _______ _______ _______ _____ _____    ______ ____
ROOT
ATOM      1  O   UNL     1       2.259   8.974  17.329  0.00  0.00    +0.000 OA
ATOM      2  C   UNL     1       2.078   8.378  18.387  0.00  0.00    +0.000 C 
ATOM      3  N   UNL     1       2.612   7.136  18.703  0.00  0.00    +0.000 N 
ATOM      4  H   UNL     1       2.382   6.814  19.641  0.00  0.00    +0.000 HD
ENDROOT
BRANCH   2   5
ATOM      5  C   UNL     1       1.244   8.886  19.475  0.00  0.00    +0.000 A 
ATOM      6  N   UNL     1       0.449   9.927  19.324  0.00  0.00    +0.000 NA
ATOM      7  C   UNL     1      -0.094  10.269  20.550  0.00  0.00    +0.000 A 
ATOM      8  C   UNL     1      -0.893  11.400  20.801  0.00  0.00    +0.000 A 
ATOM      9  C   UNL     1      -1.316  11.658  22.105  0.00  0.00    +0.000 A 
ATOM     10 CL   UNL     1      -2.201  13.097  22.434  0.00  0.00    +0.000 Cl
ATOM     11  C   UNL     1      -1.008  10.788  23.145  0.00  0.00    +0.000 A 
ATOM     12  C   UNL     1      -0.243   9.639  22.913  0.00  0.00    +0.000 A 
ATOM     13  C   UNL     1       0.230   9.417  21.609  0.00  0.00    +0.000 A 
ATOM     14  S   UNL     1       1.267   8.169  21.028  0.00  0.00    +0.000 S 
ENDBRANCH   2   5
BRANCH   3  15
ATOM     15  C   UNL     1       3.410   6.298  17.909  0.00  0.00    +0.000 A 
ATOM     16  C   UNL     1       3.179   4.931  17.739  0.00  0.00    +0.000 A 
ATOM     17  C   UNL     1       4.024   4.163  16.932  0.00  0.00    +0.000 A 
ATOM     18  C   UNL     1       5.108   4.760  16.291  0.00  0.00    +0.000 A 
ATOM     19 CL   UNL     1       6.145   3.815  15.297  0.00  0.00    +0.000 Cl
ATOM     20  C   UNL     1       5.355   6.118  16.455  0.00  0.00    +0.000 A 
ATOM     21  C   UNL     1       4.509   6.883  17.266  0.00  0.00    +0.000 A 
ENDBRANCH   3  15
TORSDOF 2
ENDMDL
MODEL 3
REMARK VINA RESULT:      -6.9      1.280      8.270
REMARK  Name = 
REMARK  2 active torsions:
REMARK  status: ('A' for Active; 'I' for Inactive)
REMARK    1  A    between atoms: C_2  and  C_11
REMARK    2  A    between atoms: N_3  and  C_4
REMARK                            x       y       z     vdW  Elec       q    Type
REMARK                         _______ _______ _______ _____ _____    ______ ____
ROOT
ATOM      1  O   UNL     1       1.617   9.453  17.766  0.00  0.00    +0.000 OA
ATOM      2  C   UNL     1       1.949   8.528  18.502  0.00  0.00    +0.000 C 
ATOM      3  N   UNL     1       1.574   8.394  19.832  0.00  0.00    +0.000 N 
ATOM      4  H   UNL     1       1.916   7.543  20.275  0.00  0.00    +0.000 HD
ENDROOT
BRANCH   2   5
ATOM      5  C   UNL     1       2.817   7.427  18.086  0.00  0.00    +0.000 A 
ATOM      6  N   UNL     1       3.859   7.614  17.300  0.00  0.00    +0.000 NA
ATOM      7  C   UNL     1       4.396   6.386  16.954  0.00  0.00    +0.000 A 
ATOM      8  C   UNL     1       5.441   6.183  16.033  0.00  0.00    +0.000 A 
ATOM      9  C   UNL     1       5.836   4.880  15.730  0.00  0.00    +0.000 A 
ATOM     10 CL   UNL     1       7.037   4.623  14.524  0.00  0.00    +0.000 Cl
ATOM     11  C   UNL     1       5.254   3.787  16.363  0.00  0.00    +0.000 A 
ATOM     12  C   UNL     1       4.237   3.967  17.307  0.00  0.00    +0.000 A 
ATOM     13  C   UNL     1       3.803   5.278  17.565  0.00  0.00    +0.000 A 
ATOM     14  S   UNL     1       2.519   5.817  18.579  0.00  0.00    +0.000 S 
ENDBRANCH   2   5
BRANCH   3  15
ATOM     15  C   UNL     1       0.801   9.264  20.616  0.00  0.00    +0.000 A 
ATOM     16  C   UNL     1       0.459  10.564  20.235  0.00  0.00    +0.000 A 
ATOM     17  C   UNL     1      -0.314  11.370  21.077  0.00  0.00    +0.000 A 
ATOM     18  C   UNL     1      -0.749  10.879  22.306  0.00  0.00    +0.000 A 
ATOM     19 CL   UNL     1      -1.701  11.871  23.339  0.00  0.00    +0.000 Cl
ATOM     20  C   UNL     1      -0.412   9.590  22.703  0.00  0.00    +0.000 A 
ATOM     21  C   UNL     1       0.365   8.787  21.859  0.00  0.00    +0.000 A 
ENDBRANCH   3  15
TORSDOF 2
ENDMDL
MODEL 4
REMARK VINA RESULT:      -6.9      1.289      8.307
REMARK  Name = 
REMARK  2 active torsions:
REMARK  status: ('A' for Active; 'I' for Inactive)
REMARK    1  A    between atoms: C_2  and  C_11
REMARK    2  A    between atoms: N_3  and  C_4
REMARK                            x       y       z     vdW  Elec       q    Type
REMARK                         _______ _______ _______ _____ _____    ______ ____
ROOT
ATOM      1  O   UNL     1       1.700   9.453  17.970  0.00  0.00    +0.000 OA
ATOM      2  C   UNL     1       2.002   8.476  18.650  0.00  0.00    +0.000 C 
ATOM      3  N   UNL     1       1.602   8.265  19.962  0.00  0.00    +0.000 N 
ATOM      4  H   UNL     1       1.920   7.381  20.355  0.00  0.00    +0.000 HD
ENDROOT
BRANCH   2   5
ATOM      5  C   UNL     1       2.857   7.388  18.179  0.00  0.00    +0.000 A 
ATOM      6  N   UNL     1       3.869   7.595  17.359  0.00  0.00    +0.000 NA
ATOM      7  C   UNL     1       4.396   6.377  16.967  0.00  0.00    +0.000 A 
ATOM      8  C   UNL     1       5.407   6.197  16.004  0.00  0.00    +0.000 A 
ATOM      9  C   UNL     1       5.794   4.903  15.658  0.00  0.00    +0.000 A 
ATOM     10 CL   UNL     1       6.951   4.677  14.404  0.00  0.00    +0.000 Cl
ATOM     11  C   UNL     1       5.239   3.795  16.288  0.00  0.00    +0.000 A 
ATOM     12  C   UNL     1       4.256   3.951  17.273  0.00  0.00    +0.000 A 
ATOM     13  C   UNL     1       3.829   5.254  17.574  0.00  0.00    +0.000 A 
ATOM     14  S   UNL     1       2.582   5.767  18.647  0.00  0.00    +0.000 S 
ENDBRANCH   2   5
BRANCH   3  15
ATOM     15  C   UNL     1       0.830   9.098  20.788  0.00  0.00    +0.000 A 
ATOM     16  C   UNL     1       0.752   8.966  22.176  0.00  0.00    +0.000 A 
ATOM     17  C   UNL     1      -0.043   9.836  22.928  0.00  0.00    +0.000 A 
ATOM     18  C   UNL     1      -0.767  10.844  22.294  0.00  0.00    +0.000 A 
ATOM     19 CL   UNL     1      -1.743  11.915  23.220  0.00  0.00    +0.000 Cl
ATOM     20  C   UNL     1      -0.705  10.985  20.912  0.00  0.00    +0.000 A 
ATOM     21  C   UNL     1       0.090  10.110  20.162  0.00  0.00    +0.000 A 
ENDBRANCH   3  15
TORSDOF 2
ENDMDL
MODEL 5
REMARK VINA RESULT:      -6.7      2.778      9.111
REMARK  Name = 
REMARK  2 active torsions:
REMARK  status: ('A' for Active; 'I' for Inactive)
REMARK    1  A    between atoms: C_2  and  C_11
REMARK    2  A    between atoms: N_3  and  C_4
REMARK                            x       y       z     vdW  Elec       q    Type
REMARK                         _______ _______ _______ _____ _____    ______ ____
ROOT
ATOM      1  O   UNL     1       0.156   9.933  23.539  0.00  0.00    +0.000 OA
ATOM      2  C   UNL     1       0.028  10.277  22.367  0.00  0.00    +0.000 C 
ATOM      3  N   UNL     1      -0.687  11.387  21.936  0.00  0.00    +0.000 N 
ATOM      4  H   UNL     1      -0.654  11.535  20.929  0.00  0.00    +0.000 HD
ENDROOT
BRANCH   2   5
ATOM      5  C   UNL     1       0.599   9.547  21.237  0.00  0.00    +0.000 A 
ATOM      6  N   UNL     1       1.031   8.307  21.348  0.00  0.00    +0.000 NA
ATOM      7  C   UNL     1       1.653   7.931  20.170  0.00  0.00    +0.000 A 
ATOM      8  C   UNL     1       2.341   6.722  19.961  0.00  0.00    +0.000 A 
ATOM      9  C   UNL     1       2.980   6.505  18.739  0.00  0.00    +0.000 A 
ATOM     10 CL   UNL     1       3.913   5.076  18.519  0.00  0.00    +0.000 Cl
ATOM     11  C   UNL     1       2.899   7.439  17.712  0.00  0.00    +0.000 A 
ATOM     12  C   UNL     1       2.191   8.634  17.886  0.00  0.00    +0.000 A 
ATOM     13  C   UNL     1       1.601   8.871  19.138  0.00  0.00    +0.000 A 
ATOM     14  S   UNL     1       0.762  10.270  19.695  0.00  0.00    +0.000 S 
ENDBRANCH   2   5
BRANCH   3  15
ATOM     15  C   UNL     1      -1.426  12.304  22.700  0.00  0.00    +0.000 A 
ATOM     16  C   UNL     1      -2.720  12.065  23.171  0.00  0.00    +0.000 A 
ATOM     17  C   UNL     1      -3.391  13.033  23.924  0.00  0.00    +0.000 A 
ATOM     18  C   UNL     1      -2.771  14.248  24.209  0.00  0.00    +0.000 A 
ATOM     19 CL   UNL     1      -3.597  15.436  25.138  0.00  0.00    +0.000 Cl
ATOM     20  C   UNL     1      -1.487  14.504  23.742  0.00  0.00    +0.000 A 
ATOM     21  C   UNL     1      -0.819  13.533  22.986  0.00  0.00    +0.000 A 
ENDBRANCH   3  15
TORSDOF 2
ENDMDL
MODEL 6
REMARK VINA RESULT:      -6.6      1.413      2.100
REMARK  Name = 
REMARK  2 active torsions:
REMARK  status: ('A' for Active; 'I' for Inactive)
REMARK    1  A    between atoms: C_2  and  C_11
REMARK    2  A    between atoms: N_3  and  C_4
REMARK                            x       y       z     vdW  Elec       q    Type
REMARK                         _______ _______ _______ _____ _____    ______ ____
ROOT
ATOM      1  O   UNL     1       2.296   6.157  20.367  0.00  0.00    +0.000 OA
ATOM      2  C   UNL     1       2.188   7.140  19.639  0.00  0.00    +0.000 C 
ATOM      3  N   UNL     1       2.728   7.250  18.365  0.00  0.00    +0.000 N 
ATOM      4  H   UNL     1       2.506   8.126  17.895  0.00  0.00    +0.000 HD
ENDROOT
BRANCH   2   5
ATOM      5  C   UNL     1       1.483   8.362  20.020  0.00  0.00    +0.000 A 
ATOM      6  N   UNL     1       1.014   8.552  21.238  0.00  0.00    +0.000 NA
ATOM      7  C   UNL     1       0.269   9.718  21.264  0.00  0.00    +0.000 A 
ATOM      8  C   UNL     1      -0.483  10.181  22.360  0.00  0.00    +0.000 A 
ATOM      9  C   UNL     1      -1.244  11.342  22.221  0.00  0.00    +0.000 A 
ATOM     10 CL   UNL     1      -2.250  11.850  23.522  0.00  0.00    +0.000 Cl
ATOM     11  C   UNL     1      -1.225  12.075  21.040  0.00  0.00    +0.000 A 
ATOM     12  C   UNL     1      -0.457  11.653  19.948  0.00  0.00    +0.000 A 
ATOM     13  C   UNL     1       0.259  10.452  20.074  0.00  0.00    +0.000 A 
ATOM     14  S   UNL     1       1.201   9.620  18.895  0.00  0.00    +0.000 S 
ENDBRANCH   2   5
BRANCH   3  15
ATOM     15  C   UNL     1       3.519   6.325  17.665  0.00  0.00    +0.000 A 
ATOM     16  C   UNL     1       3.274   4.950  17.639  0.00  0.00    +0.000 A 
ATOM     17  C   UNL     1       4.113   4.093  16.919  0.00  0.00    +0.000 A 
ATOM     18  C   UNL     1       5.204   4.609  16.222  0.00  0.00    +0.000 A 
ATOM     19 CL   UNL     1       6.233   3.554  15.335  0.00  0.00    +0.000 Cl
ATOM     20  C   UNL     1       5.465   5.974  16.244  0.00  0.00    +0.000 A 
ATOM     21  C   UNL     1       4.625   6.828  16.968  0.00  0.00    +0.000 A 
ENDBRANCH   3  15
TORSDOF 2
ENDMDL
MODEL 7
REMARK VINA RESULT:      -6.6      2.559      8.343
REMARK  Name = 
REMARK  2 active torsions:
REMARK  status: ('A' for Active; 'I' for Inactive)
REMARK    1  A    between atoms: C_2  and  C_11
REMARK    2  A    between atoms: N_3  and  C_4
REMARK                            x       y       z     vdW  Elec       q    Type
REMARK                         _______ _______ _______ _____ _____    ______ ____
ROOT
ATOM      1  O   UNL     1       1.954   7.581  20.132  0.00  0.00    +0.000 OA
ATOM      2  C   UNL     1       2.301   7.711  18.961  0.00  0.00    +0.000 C 
ATOM      3  N   UNL     1       1.895   8.738  18.120  0.00  0.00    +0.000 N 
ATOM      4  H   UNL     1       2.313   8.703  17.192  0.00  0.00    +0.000 HD
ENDROOT
BRANCH   2   5
ATOM      5  C   UNL     1       3.186   6.779  18.266  0.00  0.00    +0.000 A 
ATOM      6  N   UNL     1       4.108   7.187  17.416  0.00  0.00    +0.000 NA
ATOM      7  C   UNL     1       4.684   6.088  16.803  0.00  0.00    +0.000 A 
ATOM      8  C   UNL     1       5.619   6.137  15.753  0.00  0.00    +0.000 A 
ATOM      9  C   UNL     1       6.065   4.944  15.183  0.00  0.00    +0.000 A 
ATOM     10 CL   UNL     1       7.125   5.002  13.828  0.00  0.00    +0.000 Cl
ATOM     11  C   UNL     1       5.643   3.713  15.672  0.00  0.00    +0.000 A 
ATOM     12  C   UNL     1       4.738   3.640  16.739  0.00  0.00    +0.000 A 
ATOM     13  C   UNL     1       4.249   4.844  17.269  0.00  0.00    +0.000 A 
ATOM     14  S   UNL     1       3.064   5.088  18.496  0.00  0.00    +0.000 S 
ENDBRANCH   2   5
BRANCH   3  15
ATOM     15  C   UNL     1       1.007   9.792  18.388  0.00  0.00    +0.000 A 
ATOM     16  C   UNL     1      -0.341   9.790  18.020  0.00  0.00    +0.000 A 
ATOM     17  C   UNL     1      -1.160  10.882  18.322  0.00  0.00    +0.000 A 
ATOM     18  C   UNL     1      -0.634  11.984  18.993  0.00  0.00    +0.000 A 
ATOM     19 CL   UNL     1      -1.644  13.325  19.366  0.00  0.00    +0.000 Cl
ATOM     20  C   UNL     1       0.706  12.004  19.361  0.00  0.00    +0.000 A 
ATOM     21  C   UNL     1       1.525  10.910  19.055  0.00  0.00    +0.000 A 
ENDBRANCH   3  15
TORSDOF 2
ENDMDL
MODEL 8
REMARK VINA RESULT:      -6.6      1.960      8.142
REMARK  Name = 
REMARK  2 active torsions:
REMARK  status: ('A' for Active; 'I' for Inactive)
REMARK    1  A    between atoms: C_2  and  C_11
REMARK    2  A    between atoms: N_3  and  C_4
REMARK                            x       y       z     vdW  Elec       q    Type
REMARK                         _______ _______ _______ _____ _____    ______ ____
ROOT
ATOM      1  O   UNL     1       1.398   7.591  21.013  0.00  0.00    +0.000 OA
ATOM      2  C   UNL     1       1.801   7.797  19.872  0.00  0.00    +0.000 C 
ATOM      3  N   UNL     1       1.493   8.914  19.108  0.00  0.00    +0.000 N 
ATOM      4  H   UNL     1       1.947   8.930  18.196  0.00  0.00    +0.000 HD
ENDROOT
BRANCH   2   5
ATOM      5  C   UNL     1       2.659   6.873  19.132  0.00  0.00    +0.000 A 
ATOM      6  N   UNL     1       3.488   7.283  18.193  0.00  0.00    +0.000 NA
ATOM      7  C   UNL     1       4.051   6.185  17.567  0.00  0.00    +0.000 A 
ATOM      8  C   UNL     1       4.891   6.230  16.439  0.00  0.00    +0.000 A 
ATOM      9  C   UNL     1       5.331   5.034  15.870  0.00  0.00    +0.000 A 
ATOM     10 CL   UNL     1       6.268   5.083  14.427  0.00  0.00    +0.000 Cl
ATOM     11  C   UNL     1       4.999   3.807  16.433  0.00  0.00    +0.000 A 
ATOM     12  C   UNL     1       4.193   3.739  17.576  0.00  0.00    +0.000 A 
ATOM     13  C   UNL     1       3.705   4.943  18.108  0.00  0.00    +0.000 A 
ATOM     14  S   UNL     1       2.621   5.188  19.425  0.00  0.00    +0.000 S 
ENDBRANCH   2   5
BRANCH   3  15
ATOM     15  C   UNL     1       0.657   9.994  19.433  0.00  0.00    +0.000 A 
ATOM     16  C   UNL     1       0.908  10.891  20.474  0.00  0.00    +0.000 A 
ATOM     17  C   UNL     1       0.023  11.941  20.735  0.00  0.00    +0.000 A 
ATOM     18  C   UNL     1      -1.121  12.099  19.955  0.00  0.00    +0.000 A 
ATOM     19 CL   UNL     1      -2.207  13.393  20.276  0.00  0.00    +0.000 Cl
ATOM     20  C   UNL     1      -1.389  11.212  18.920  0.00  0.00    +0.000 A 
ATOM     21  C   UNL     1      -0.502  10.159  18.662  0.00  0.00    +0.000 A 
ENDBRANCH   3  15
TORSDOF 2
ENDMDL
MODEL 9
REMARK VINA RESULT:      -6.6      2.132      8.396
REMARK  Name = 
REMARK  2 active torsions:
REMARK  status: ('A' for Active; 'I' for Inactive)
REMARK    1  A    between atoms: C_2  and  C_11
REMARK    2  A    between atoms: N_3  and  C_4
REMARK                            x       y       z     vdW  Elec       q    Type
REMARK                         _______ _______ _______ _____ _____    ______ ____
ROOT
ATOM      1  O   UNL     1       1.862   6.342  19.857  0.00  0.00    +0.000 OA
ATOM      2  C   UNL     1       2.544   6.986  19.065  0.00  0.00    +0.000 C 
ATOM      3  N   UNL     1       2.301   8.301  18.691  0.00  0.00    +0.000 N 
ATOM      4  H   UNL     1       2.994   8.683  18.050  0.00  0.00    +0.000 HD
ENDROOT
BRANCH   2   5
ATOM      5  C   UNL     1       3.715   6.449  18.374  0.00  0.00    +0.000 A 
ATOM      6  N   UNL     1       3.938   6.670  17.093  0.00  0.00    +0.000 NA
ATOM      7  C   UNL     1       5.025   5.920  16.682  0.00  0.00    +0.000 A 
ATOM      8  C   UNL     1       5.483   5.806  15.356  0.00  0.00    +0.000 A 
ATOM      9  C   UNL     1       6.554   4.957  15.077  0.00  0.00    +0.000 A 
ATOM     10 CL   UNL     1       7.046   4.731  13.443  0.00  0.00    +0.000 Cl
ATOM     11  C   UNL     1       7.207   4.267  16.092  0.00  0.00    +0.000 A 
ATOM     12  C   UNL     1       6.791   4.392  17.423  0.00  0.00    +0.000 A 
ATOM     13  C   UNL     1       5.675   5.202  17.690  0.00  0.00    +0.000 A 
ATOM     14  S   UNL     1       4.864   5.475  19.185  0.00  0.00    +0.000 S 
ENDBRANCH   2   5
BRANCH   3  15
ATOM     15  C   UNL     1       1.249   9.143  19.081  0.00  0.00    +0.000 A 
ATOM     16  C   UNL     1       0.940   9.444  20.410  0.00  0.00    +0.000 A 
ATOM     17  C   UNL     1      -0.129  10.291  20.716  0.00  0.00    +0.000 A 
ATOM     18  C   UNL     1      -0.898  10.841  19.693  0.00  0.00    +0.000 A 
ATOM     19 CL   UNL     1      -2.211  11.885  20.070  0.00  0.00    +0.000 Cl
ATOM     20  C   UNL     1      -0.608  10.547  18.365  0.00  0.00    +0.000 A 
ATOM     21  C   UNL     1       0.461   9.696  18.062  0.00  0.00    +0.000 A 
ENDBRANCH   3  15
TORSDOF 2
ENDMDL
