MODEL 1
REMARK VINA RESULT:      -3.6      0.000      0.000
REMARK  Name = 
REMARK  2 active torsions:
REMARK  status: ('A' for Active; 'I' for Inactive)
REMARK    1  A    between atoms: C_2  and  O_3
REMARK    2  A    between atoms: C_2  and  C_4
REMARK                            x       y       z     vdW  Elec       q    Type
REMARK                         _______ _______ _______ _____ _____    ______ ____
ROOT
ATOM      1  O   UNL     1       7.530   3.638  26.921  0.00  0.00    +0.000 OA
ATOM      2  C   UNL     1       7.530   4.713  27.512  0.00  0.00    +0.000 C 
ENDROOT
BRANCH   2   3
ATOM      3  O   UNL     1       6.413   5.466  27.590  0.00  0.00    +0.000 OA
ATOM      4  H   UNL     1       5.771   5.259  26.881  0.00  0.00    +0.000 HD
ENDBRANCH   2   3
BRANCH   2   5
ATOM      5  C   UNL     1       8.765   5.253  28.183  0.00  0.00    +0.000 C 
ATOM      6 BR   UNL     1      10.354   4.230  27.716  0.00  0.00    +0.000 Br
ENDBRANCH   2   5
TORSDOF 2
ENDMDL
MODEL 2
REMARK VINA RESULT:      -3.4      1.417      1.809
REMARK  Name = 
REMARK  2 active torsions:
REMARK  status: ('A' for Active; 'I' for Inactive)
REMARK    1  A    between atoms: C_2  and  O_3
REMARK    2  A    between atoms: C_2  and  C_4
REMARK                            x       y       z     vdW  Elec       q    Type
REMARK                         _______ _______ _______ _____ _____    ______ ____
ROOT
ATOM      1  O   UNL     1       8.160   5.353  28.297  0.00  0.00    +0.000 OA
ATOM      2  C   UNL     1       8.484   4.444  27.542  0.00  0.00    +0.000 C 
ENDROOT
BRANCH   2   3
ATOM      3  O   UNL     1       7.572   3.826  26.762  0.00  0.00    +0.000 OA
ATOM      4  H   UNL     1       7.056   4.454  26.218  0.00  0.00    +0.000 HD
ENDBRANCH   2   3
BRANCH   2   5
ATOM      5  C   UNL     1       9.908   3.964  27.436  0.00  0.00    +0.000 C 
ATOM      6 BR   UNL     1      11.159   5.219  28.242  0.00  0.00    +0.000 Br
ENDBRANCH   2   5
TORSDOF 2
ENDMDL
MODEL 3
REMARK VINA RESULT:      -3.4      0.461      1.448
REMARK  Name = 
REMARK  2 active torsions:
REMARK  status: ('A' for Active; 'I' for Inactive)
REMARK    1  A    between atoms: C_2  and  O_3
REMARK    2  A    between atoms: C_2  and  C_4
REMARK                            x       y       z     vdW  Elec       q    Type
REMARK                         _______ _______ _______ _____ _____    ______ ____
ROOT
ATOM      1  O   UNL     1       6.785   5.221  28.083  0.00  0.00    +0.000 OA
ATOM      2  C   UNL     1       7.786   4.707  27.597  0.00  0.00    +0.000 C 
ENDROOT
BRANCH   2   3
ATOM      3  O   UNL     1       7.690   3.702  26.701  0.00  0.00    +0.000 OA
ATOM      4  H   UNL     1       8.435   3.071  26.765  0.00  0.00    +0.000 HD
ENDBRANCH   2   3
BRANCH   2   5
ATOM      5  C   UNL     1       9.174   5.161  27.965  0.00  0.00    +0.000 C 
ATOM      6 BR   UNL     1      10.493   3.754  27.704  0.00  0.00    +0.000 Br
ENDBRANCH   2   5
TORSDOF 2
ENDMDL
MODEL 4
REMARK VINA RESULT:      -3.2      1.557      1.579
REMARK  Name = 
REMARK  2 active torsions:
REMARK  status: ('A' for Active; 'I' for Inactive)
REMARK    1  A    between atoms: C_2  and  O_3
REMARK    2  A    between atoms: C_2  and  C_4
REMARK                            x       y       z     vdW  Elec       q    Type
REMARK                         _______ _______ _______ _____ _____    ______ ____
ROOT
ATOM      1  O   UNL     1       7.754   3.779  27.091  0.00  0.00    +0.000 OA
ATOM      2  C   UNL     1       8.675   4.403  27.607  0.00  0.00    +0.000 C 
ENDROOT
BRANCH   2   3
ATOM      3  O   UNL     1       8.442   5.513  28.339  0.00  0.00    +0.000 OA
ATOM      4  H   UNL     1       7.489   5.728  28.403  0.00  0.00    +0.000 HD
ENDBRANCH   2   3
BRANCH   2   5
ATOM      5  C   UNL     1      10.110   3.972  27.461  0.00  0.00    +0.000 C 
ATOM      6 BR   UNL     1      11.334   5.219  28.318  0.00  0.00    +0.000 Br
ENDBRANCH   2   5
TORSDOF 2
ENDMDL
MODEL 5
REMARK VINA RESULT:      -3.0      8.796      9.152
REMARK  Name = 
REMARK  2 active torsions:
REMARK  status: ('A' for Active; 'I' for Inactive)
REMARK    1  A    between atoms: C_2  and  O_3
REMARK    2  A    between atoms: C_2  and  C_4
REMARK                            x       y       z     vdW  Elec       q    Type
REMARK                         _______ _______ _______ _____ _____    ______ ____
ROOT
ATOM      1  O   UNL     1       5.046   1.704  20.704  0.00  0.00    +0.000 OA
ATOM      2  C   UNL     1       4.517   2.459  19.896  0.00  0.00    +0.000 C 
ENDROOT
BRANCH   2   3
ATOM      3  O   UNL     1       5.258   3.246  19.087  0.00  0.00    +0.000 OA
ATOM      4  H   UNL     1       5.935   2.742  18.591  0.00  0.00    +0.000 HD
ENDBRANCH   2   3
BRANCH   2   5
ATOM      5  C   UNL     1       3.021   2.554  19.755  0.00  0.00    +0.000 C 
ATOM      6 BR   UNL     1       2.152   2.924  21.457  0.00  0.00    +0.000 Br
ENDBRANCH   2   5
TORSDOF 2
ENDMDL
MODEL 6
REMARK VINA RESULT:      -3.0     13.359     13.660
REMARK  Name = 
REMARK  2 active torsions:
REMARK  status: ('A' for Active; 'I' for Inactive)
REMARK    1  A    between atoms: C_2  and  O_3
REMARK    2  A    between atoms: C_2  and  C_4
REMARK                            x       y       z     vdW  Elec       q    Type
REMARK                         _______ _______ _______ _____ _____    ______ ____
ROOT
ATOM      1  O   UNL     1       7.823   5.550  13.932  0.00  0.00    +0.000 OA
ATOM      2  C   UNL     1       7.159   4.833  14.673  0.00  0.00    +0.000 C 
ENDROOT
BRANCH   2   3
ATOM      3  O   UNL     1       7.497   4.667  15.969  0.00  0.00    +0.000 OA
ATOM      4  H   UNL     1       8.466   4.640  16.104  0.00  0.00    +0.000 HD
ENDBRANCH   2   3
BRANCH   2   5
ATOM      5  C   UNL     1       5.935   4.102  14.189  0.00  0.00    +0.000 C 
ATOM      6 BR   UNL     1       6.161   3.424  12.379  0.00  0.00    +0.000 Br
ENDBRANCH   2   5
TORSDOF 2
ENDMDL
MODEL 7
REMARK VINA RESULT:      -3.0     10.834     11.174
REMARK  Name = 
REMARK  2 active torsions:
REMARK  status: ('A' for Active; 'I' for Inactive)
REMARK    1  A    between atoms: C_2  and  O_3
REMARK    2  A    between atoms: C_2  and  C_4
REMARK                            x       y       z     vdW  Elec       q    Type
REMARK                         _______ _______ _______ _____ _____    ______ ____
ROOT
ATOM      1  O   UNL     1       7.585   4.821  15.660  0.00  0.00    +0.000 OA
ATOM      2  C   UNL     1       7.288   4.546  16.818  0.00  0.00    +0.000 C 
ENDROOT
BRANCH   2   3
ATOM      3  O   UNL     1       8.208   4.065  17.680  0.00  0.00    +0.000 OA
ATOM      4  H   UNL     1       9.056   3.847  17.241  0.00  0.00    +0.000 HD
ENDBRANCH   2   3
BRANCH   2   5
ATOM      5  C   UNL     1       5.890   4.729  17.346  0.00  0.00    +0.000 C 
ATOM      6 BR   UNL     1       5.108   6.415  16.766  0.00  0.00    +0.000 Br
ENDBRANCH   2   5
TORSDOF 2
ENDMDL
MODEL 8
REMARK VINA RESULT:      -3.0     10.845     11.135
REMARK  Name = 
REMARK  2 active torsions:
REMARK  status: ('A' for Active; 'I' for Inactive)
REMARK    1  A    between atoms: C_2  and  O_3
REMARK    2  A    between atoms: C_2  and  C_4
REMARK                            x       y       z     vdW  Elec       q    Type
REMARK                         _______ _______ _______ _____ _____    ______ ____
ROOT
ATOM      1  O   UNL     1       8.231   4.223  17.293  0.00  0.00    +0.000 OA
ATOM      2  C   UNL     1       7.031   4.466  17.354  0.00  0.00    +0.000 C 
ENDROOT
BRANCH   2   3
ATOM      3  O   UNL     1       6.285   4.039  18.395  0.00  0.00    +0.000 OA
ATOM      4  H   UNL     1       5.837   4.773  18.862  0.00  0.00    +0.000 HD
ENDBRANCH   2   3
BRANCH   2   5
ATOM      5  C   UNL     1       6.320   5.250  16.283  0.00  0.00    +0.000 C 
ATOM      6 BR   UNL     1       6.056   4.199  14.666  0.00  0.00    +0.000 Br
ENDBRANCH   2   5
TORSDOF 2
ENDMDL
MODEL 9
REMARK VINA RESULT:      -3.0     13.176     13.479
REMARK  Name = 
REMARK  2 active torsions:
REMARK  status: ('A' for Active; 'I' for Inactive)
REMARK    1  A    between atoms: C_2  and  O_3
REMARK    2  A    between atoms: C_2  and  C_4
REMARK                            x       y       z     vdW  Elec       q    Type
REMARK                         _______ _______ _______ _____ _____    ______ ____
ROOT
ATOM      1  O   UNL     1       7.502   4.939  16.111  0.00  0.00    +0.000 OA
ATOM      2  C   UNL     1       7.187   4.828  14.932  0.00  0.00    +0.000 C 
ENDROOT
BRANCH   2   3
ATOM      3  O   UNL     1       7.825   5.527  13.969  0.00  0.00    +0.000 OA
ATOM      4  H   UNL     1       7.634   5.189  13.071  0.00  0.00    +0.000 HD
ENDBRANCH   2   3
BRANCH   2   5
ATOM      5  C   UNL     1       6.078   3.912  14.486  0.00  0.00    +0.000 C 
ATOM      6 BR   UNL     1       6.162   3.544  12.576  0.00  0.00    +0.000 Br
ENDBRANCH   2   5
TORSDOF 2
ENDMDL
