MODEL 1
REMARK VINA RESULT:      -8.2      0.000      0.000
REMARK  Name = 
REMARK  10 active torsions:
REMARK  status: ('A' for Active; 'I' for Inactive)
REMARK    1  A    between atoms: C_1  and  C_2
REMARK    2  A    between atoms: C_2  and  O_3
REMARK    3  A    between atoms: O_3  and  C_4
REMARK    4  A    between atoms: C_8  and  C_9
REMARK    5  A    between atoms: C_9  and  N_10
REMARK    6  A    between atoms: C_11  and  C_13
REMARK    7  A    between atoms: C_16  and  N_17
REMARK    8  A    between atoms: C_22  and  N_23
REMARK    9  A    between atoms: N_26  and  C_27
REMARK   10  A    between atoms: C_27  and  C_28
REMARK                            x       y       z     vdW  Elec       q    Type
REMARK                         _______ _______ _______ _____ _____    ______ ____
ROOT
ATOM      1  C   UNL     1       3.055   5.452  18.531  0.00  0.00    +0.000 A 
ATOM      2  C   UNL     1       3.073   4.249  17.825  0.00  0.00    +0.000 A 
ATOM      3  C   UNL     1       3.950   4.077  16.741  0.00  0.00    +0.000 A 
ATOM      4  C   UNL     1       4.827   5.096  16.330  0.00  0.00    +0.000 A 
ATOM      5  C   UNL     1       4.810   6.297  17.087  0.00  0.00    +0.000 A 
ATOM      6  C   UNL     1       3.932   6.475  18.168  0.00  0.00    +0.000 A 
ENDROOT
BRANCH   5   7
ATOM      7  N   UNL     1       5.771   7.305  16.808  0.00  0.00    +0.000 N 
ATOM      8  C   UNL     1       6.847   7.493  17.653  0.00  0.00    +0.000 C 
ATOM      9  O   UNL     1       7.127   6.776  18.610  0.00  0.00    +0.000 OA
ATOM     10  N   UNL     1       7.558   8.638  17.358  0.00  0.00    +0.000 N 
ATOM     11  H   UNL     1       5.356   8.156  16.456  0.00  0.00    +0.000 HD
ATOM     12  H   UNL     1       7.485   9.016  16.425  0.00  0.00    +0.000 HD
BRANCH  10  13
ATOM     13  C   UNL     1       8.738   8.932  18.142  0.00  0.00    +0.000 C 
BRANCH  13  14
ATOM     14  C   UNL     1       9.070  10.401  18.204  0.00  0.00    +0.000 A 
ATOM     15  C   UNL     1       8.204  11.364  17.653  0.00  0.00    +0.000 A 
ATOM     16  C   UNL     1       8.495  12.725  17.766  0.00  0.00    +0.000 A 
ATOM     17  C   UNL     1       9.652  13.129  18.421  0.00  0.00    +0.000 A 
ATOM     18  F   UNL     1       9.925  14.437  18.536  0.00  0.00    +0.000 F 
ATOM     19  C   UNL     1      10.526  12.197  18.965  0.00  0.00    +0.000 A 
ATOM     20  C   UNL     1      10.237  10.833  18.853  0.00  0.00    +0.000 A 
ENDBRANCH  13  14
ENDBRANCH  10  13
ENDBRANCH   5   7
BRANCH   4  21
ATOM     21  N   UNL     1       5.688   4.940  15.245  0.00  0.00    +0.000 N 
ATOM     22  C   UNL     1       7.125   4.726  15.412  0.00  0.00    +0.000 C 
ATOM     23  C   UNL     1       7.586   4.799  13.964  0.00  0.00    +0.000 C 
ATOM     24  C   UNL     1       6.518   3.994  13.230  0.00  0.00    +0.000 C 
ATOM     25  C   UNL     1       5.254   4.133  14.090  0.00  0.00    +0.000 C 
ENDBRANCH   4  21
BRANCH   1  27
ATOM     26  N   UNL     1       2.029   6.963  20.140  0.00  0.00    +0.000 N 
ATOM     27  C   UNL     1       2.164   5.655  19.713  0.00  0.00    +0.000 C 
ATOM     28  O   UNL     1       1.611   4.703  20.242  0.00  0.00    +0.000 OA
ATOM     29  H   UNL     1       2.631   7.671  19.754  0.00  0.00    +0.000 HD
BRANCH  26  30
ATOM     30  C   UNL     1       1.242   7.312  21.305  0.00  0.00    +0.000 C 
BRANCH  30  35
ATOM     31  C   UNL     1       0.189  10.820  20.149  0.00  0.00    +0.000 A 
ATOM     32  C   UNL     1      -0.316  11.341  21.340  0.00  0.00    +0.000 A 
ATOM     33  C   UNL     1      -0.325  10.568  22.501  0.00  0.00    +0.000 A 
ATOM     34  C   UNL     1       0.185   9.270  22.477  0.00  0.00    +0.000 A 
ATOM     35  C   UNL     1       0.719   8.731  21.297  0.00  0.00    +0.000 A 
ATOM     36  C   UNL     1       0.692   9.515  20.132  0.00  0.00    +0.000 A 
BRANCH  31  37
ATOM     37  O   UNL     1       0.142  11.673  19.077  0.00  0.00    +0.000 OA
BRANCH  37  39
ATOM     38  C   UNL     1       2.264  12.606  18.473  0.00  0.00    +0.000 C 
ATOM     39  C   UNL     1       0.939  12.853  19.170  0.00  0.00    +0.000 C 
ENDBRANCH  37  39
ENDBRANCH  31  37
ENDBRANCH  30  35
ENDBRANCH  26  30
ENDBRANCH   1  27
TORSDOF 9
ENDMDL
MODEL 2
REMARK VINA RESULT:      -8.1      3.111      7.952
REMARK  Name = 
REMARK  10 active torsions:
REMARK  status: ('A' for Active; 'I' for Inactive)
REMARK    1  A    between atoms: C_1  and  C_2
REMARK    2  A    between atoms: C_2  and  O_3
REMARK    3  A    between atoms: O_3  and  C_4
REMARK    4  A    between atoms: C_8  and  C_9
REMARK    5  A    between atoms: C_9  and  N_10
REMARK    6  A    between atoms: C_11  and  C_13
REMARK    7  A    between atoms: C_16  and  N_17
REMARK    8  A    between atoms: C_22  and  N_23
REMARK    9  A    between atoms: N_26  and  C_27
REMARK   10  A    between atoms: C_27  and  C_28
REMARK                            x       y       z     vdW  Elec       q    Type
REMARK                         _______ _______ _______ _____ _____    ______ ____
ROOT
ATOM      1  C   UNL     1       5.935   6.037  17.671  0.00  0.00    +0.000 A 
ATOM      2  C   UNL     1       5.691   4.710  17.312  0.00  0.00    +0.000 A 
ATOM      3  C   UNL     1       4.569   4.035  17.820  0.00  0.00    +0.000 A 
ATOM      4  C   UNL     1       3.665   4.657  18.698  0.00  0.00    +0.000 A 
ATOM      5  C   UNL     1       3.920   6.016  19.020  0.00  0.00    +0.000 A 
ATOM      6  C   UNL     1       5.042   6.695  18.519  0.00  0.00    +0.000 A 
ENDROOT
BRANCH   5   7
ATOM      7  N   UNL     1       2.965   6.737  19.786  0.00  0.00    +0.000 N 
ATOM      8  C   UNL     1       2.222   7.744  19.201  0.00  0.00    +0.000 C 
ATOM      9  O   UNL     1       2.228   8.023  18.006  0.00  0.00    +0.000 OA
ATOM     10  N   UNL     1       1.506   8.477  20.126  0.00  0.00    +0.000 N 
ATOM     11  H   UNL     1       3.285   6.937  20.723  0.00  0.00    +0.000 HD
ATOM     12  H   UNL     1       1.296   8.047  21.015  0.00  0.00    +0.000 HD
BRANCH  10  13
ATOM     13  C   UNL     1       0.649   9.537  19.641  0.00  0.00    +0.000 C 
BRANCH  13  14
ATOM     14  C   UNL     1      -0.151  10.209  20.728  0.00  0.00    +0.000 A 
ATOM     15  C   UNL     1      -0.116   9.736  22.053  0.00  0.00    +0.000 A 
ATOM     16  C   UNL     1      -0.817  10.400  23.062  0.00  0.00    +0.000 A 
ATOM     17  C   UNL     1      -1.560  11.532  22.751  0.00  0.00    +0.000 A 
ATOM     18  F   UNL     1      -2.225  12.174  23.723  0.00  0.00    +0.000 F 
ATOM     19  C   UNL     1      -1.618  12.013  21.450  0.00  0.00    +0.000 A 
ATOM     20  C   UNL     1      -0.917  11.349  20.437  0.00  0.00    +0.000 A 
ENDBRANCH  13  14
ENDBRANCH  10  13
ENDBRANCH   5   7
BRANCH   4  21
ATOM     21  N   UNL     1       2.558   3.988  19.219  0.00  0.00    +0.000 N 
ATOM     22  C   UNL     1       1.854   2.944  18.477  0.00  0.00    +0.000 C 
ATOM     23  C   UNL     1       0.672   2.696  19.403  0.00  0.00    +0.000 C 
ATOM     24  C   UNL     1       1.321   2.698  20.784  0.00  0.00    +0.000 C 
ATOM     25  C   UNL     1       2.558   3.594  20.640  0.00  0.00    +0.000 C 
ENDBRANCH   4  21
BRANCH   1  27
ATOM     26  N   UNL     1       7.386   7.989  17.760  0.00  0.00    +0.000 N 
ATOM     27  C   UNL     1       7.096   6.798  17.119  0.00  0.00    +0.000 C 
ATOM     28  O   UNL     1       7.721   6.368  16.163  0.00  0.00    +0.000 OA
ATOM     29  H   UNL     1       6.739   8.353  18.438  0.00  0.00    +0.000 HD
BRANCH  26  30
ATOM     30  C   UNL     1       8.448   8.864  17.307  0.00  0.00    +0.000 C 
BRANCH  30  35
ATOM     31  C   UNL     1       8.886  12.398  18.746  0.00  0.00    +0.000 A 
ATOM     32  C   UNL     1       9.265  12.097  20.054  0.00  0.00    +0.000 A 
ATOM     33  C   UNL     1       9.369  10.770  20.470  0.00  0.00    +0.000 A 
ATOM     34  C   UNL     1       9.107   9.735  19.572  0.00  0.00    +0.000 A 
ATOM     35  C   UNL     1       8.747  10.012  18.245  0.00  0.00    +0.000 A 
ATOM     36  C   UNL     1       8.618  11.355  17.853  0.00  0.00    +0.000 A 
BRANCH  31  37
ATOM     37  O   UNL     1       8.817  13.736  18.455  0.00  0.00    +0.000 OA
BRANCH  37  39
ATOM     38  C   UNL     1       7.192  15.466  18.776  0.00  0.00    +0.000 C 
ATOM     39  C   UNL     1       8.217  14.570  19.445  0.00  0.00    +0.000 C 
ENDBRANCH  37  39
ENDBRANCH  31  37
ENDBRANCH  30  35
ENDBRANCH  26  30
ENDBRANCH   1  27
TORSDOF 9
ENDMDL
MODEL 3
REMARK VINA RESULT:      -8.1      3.776      8.546
REMARK  Name = 
REMARK  10 active torsions:
REMARK  status: ('A' for Active; 'I' for Inactive)
REMARK    1  A    between atoms: C_1  and  C_2
REMARK    2  A    between atoms: C_2  and  O_3
REMARK    3  A    between atoms: O_3  and  C_4
REMARK    4  A    between atoms: C_8  and  C_9
REMARK    5  A    between atoms: C_9  and  N_10
REMARK    6  A    between atoms: C_11  and  C_13
REMARK    7  A    between atoms: C_16  and  N_17
REMARK    8  A    between atoms: C_22  and  N_23
REMARK    9  A    between atoms: N_26  and  C_27
REMARK   10  A    between atoms: C_27  and  C_28
REMARK                            x       y       z     vdW  Elec       q    Type
REMARK                         _______ _______ _______ _____ _____    ______ ____
ROOT
ATOM      1  C   UNL     1       5.964   6.518  17.840  0.00  0.00    +0.000 A 
ATOM      2  C   UNL     1       6.083   5.266  18.446  0.00  0.00    +0.000 A 
ATOM      3  C   UNL     1       4.944   4.602  18.930  0.00  0.00    +0.000 A 
ATOM      4  C   UNL     1       3.660   5.165  18.827  0.00  0.00    +0.000 A 
ATOM      5  C   UNL     1       3.564   6.424  18.177  0.00  0.00    +0.000 A 
ATOM      6  C   UNL     1       4.701   7.094  17.696  0.00  0.00    +0.000 A 
ENDROOT
BRANCH   5   7
ATOM      7  N   UNL     1       2.281   6.974  17.918  0.00  0.00    +0.000 N 
ATOM      8  C   UNL     1       2.061   8.329  18.071  0.00  0.00    +0.000 C 
ATOM      9  O   UNL     1       2.928   9.161  18.320  0.00  0.00    +0.000 OA
ATOM     10  N   UNL     1       0.724   8.660  17.988  0.00  0.00    +0.000 N 
ATOM     11  H   UNL     1       1.528   6.384  18.244  0.00  0.00    +0.000 HD
ATOM     12  H   UNL     1       0.106   8.027  17.503  0.00  0.00    +0.000 HD
BRANCH  10  13
ATOM     13  C   UNL     1       0.358  10.057  18.089  0.00  0.00    +0.000 C 
BRANCH  13  14
ATOM     14  C   UNL     1      -1.116  10.309  17.897  0.00  0.00    +0.000 A 
ATOM     15  C   UNL     1      -1.815  11.194  18.738  0.00  0.00    +0.000 A 
ATOM     16  C   UNL     1      -3.168  11.462  18.515  0.00  0.00    +0.000 A 
ATOM     17  C   UNL     1      -3.826  10.844  17.459  0.00  0.00    +0.000 A 
ATOM     18  F   UNL     1      -5.123  11.110  17.242  0.00  0.00    +0.000 F 
ATOM     19  C   UNL     1      -3.160   9.960  16.622  0.00  0.00    +0.000 A 
ATOM     20  C   UNL     1      -1.805   9.690  16.843  0.00  0.00    +0.000 A 
ENDBRANCH  13  14
ENDBRANCH  10  13
ENDBRANCH   5   7
BRANCH   4  21
ATOM     21  N   UNL     1       2.526   4.521  19.320  0.00  0.00    +0.000 N 
ATOM     22  C   UNL     1       2.036   3.263  18.759  0.00  0.00    +0.000 C 
ATOM     23  C   UNL     1       0.729   3.111  19.522  0.00  0.00    +0.000 C 
ATOM     24  C   UNL     1       1.121   3.503  20.943  0.00  0.00    +0.000 C 
ATOM     25  C   UNL     1       2.302   4.470  20.776  0.00  0.00    +0.000 C 
ENDBRANCH   4  21
BRANCH   1  27
ATOM     26  N   UNL     1       7.414   8.473  17.834  0.00  0.00    +0.000 N 
ATOM     27  C   UNL     1       7.149   7.234  17.279  0.00  0.00    +0.000 C 
ATOM     28  O   UNL     1       7.813   6.729  16.387  0.00  0.00    +0.000 OA
ATOM     29  H   UNL     1       6.739   8.889  18.453  0.00  0.00    +0.000 HD
BRANCH  26  30
ATOM     30  C   UNL     1       8.496   9.310  17.359  0.00  0.00    +0.000 C 
BRANCH  30  35
ATOM     31  C   UNL     1       9.263  12.763  18.854  0.00  0.00    +0.000 A 
ATOM     32  C   UNL     1       9.593  12.409  20.161  0.00  0.00    +0.000 A 
ATOM     33  C   UNL     1       9.559  11.073  20.560  0.00  0.00    +0.000 A 
ATOM     34  C   UNL     1       9.207  10.081  19.644  0.00  0.00    +0.000 A 
ATOM     35  C   UNL     1       8.895  10.410  18.317  0.00  0.00    +0.000 A 
ATOM     36  C   UNL     1       8.905  11.764  17.943  0.00  0.00    +0.000 A 
BRANCH  31  37
ATOM     37  O   UNL     1       9.330  14.105  18.582  0.00  0.00    +0.000 OA
BRANCH  37  39
ATOM     38  C   UNL     1      10.476  16.164  19.014  0.00  0.00    +0.000 C 
ATOM     39  C   UNL     1      10.625  14.701  18.641  0.00  0.00    +0.000 C 
ENDBRANCH  37  39
ENDBRANCH  31  37
ENDBRANCH  30  35
ENDBRANCH  26  30
ENDBRANCH   1  27
TORSDOF 9
ENDMDL
MODEL 4
REMARK VINA RESULT:      -8.0      3.975      6.768
REMARK  Name = 
REMARK  10 active torsions:
REMARK  status: ('A' for Active; 'I' for Inactive)
REMARK    1  A    between atoms: C_1  and  C_2
REMARK    2  A    between atoms: C_2  and  O_3
REMARK    3  A    between atoms: O_3  and  C_4
REMARK    4  A    between atoms: C_8  and  C_9
REMARK    5  A    between atoms: C_9  and  N_10
REMARK    6  A    between atoms: C_11  and  C_13
REMARK    7  A    between atoms: C_16  and  N_17
REMARK    8  A    between atoms: C_22  and  N_23
REMARK    9  A    between atoms: N_26  and  C_27
REMARK   10  A    between atoms: C_27  and  C_28
REMARK                            x       y       z     vdW  Elec       q    Type
REMARK                         _______ _______ _______ _____ _____    ______ ____
ROOT
ATOM      1  C   UNL     1       1.788   8.669  18.992  0.00  0.00    +0.000 A 
ATOM      2  C   UNL     1       1.460   8.350  20.311  0.00  0.00    +0.000 A 
ATOM      3  C   UNL     1       1.546   7.023  20.761  0.00  0.00    +0.000 A 
ATOM      4  C   UNL     1       1.956   5.979  19.914  0.00  0.00    +0.000 A 
ATOM      5  C   UNL     1       2.316   6.337  18.588  0.00  0.00    +0.000 A 
ATOM      6  C   UNL     1       2.227   7.661  18.131  0.00  0.00    +0.000 A 
ENDROOT
BRANCH   5   7
ATOM      7  N   UNL     1       2.873   5.350  17.731  0.00  0.00    +0.000 N 
ATOM      8  C   UNL     1       4.241   5.268  17.562  0.00  0.00    +0.000 C 
ATOM      9  O   UNL     1       5.070   5.924  18.186  0.00  0.00    +0.000 OA
ATOM     10  N   UNL     1       4.597   4.406  16.545  0.00  0.00    +0.000 N 
ATOM     11  H   UNL     1       2.333   5.213  16.888  0.00  0.00    +0.000 HD
ATOM     12  H   UNL     1       3.939   3.690  16.275  0.00  0.00    +0.000 HD
BRANCH  10  13
ATOM     13  C   UNL     1       6.006   4.194  16.290  0.00  0.00    +0.000 C 
BRANCH  13  14
ATOM     14  C   UNL     1       6.377   4.297  14.833  0.00  0.00    +0.000 A 
ATOM     15  C   UNL     1       7.458   5.095  14.414  0.00  0.00    +0.000 A 
ATOM     16  C   UNL     1       7.827   5.138  13.068  0.00  0.00    +0.000 A 
ATOM     17  C   UNL     1       7.114   4.393  12.136  0.00  0.00    +0.000 A 
ATOM     18  F   UNL     1       7.476   4.429  10.845  0.00  0.00    +0.000 F 
ATOM     19  C   UNL     1       6.038   3.607  12.523  0.00  0.00    +0.000 A 
ATOM     20  C   UNL     1       5.667   3.561  13.871  0.00  0.00    +0.000 A 
ENDBRANCH  13  14
ENDBRANCH  10  13
ENDBRANCH   5   7
BRANCH   4  21
ATOM     21  N   UNL     1       2.029   4.657  20.349  0.00  0.00    +0.000 N 
ATOM     22  C   UNL     1       2.660   4.282  21.613  0.00  0.00    +0.000 C 
ATOM     23  C   UNL     1       2.618   2.765  21.504  0.00  0.00    +0.000 C 
ATOM     24  C   UNL     1       1.219   2.506  20.952  0.00  0.00    +0.000 C 
ATOM     25  C   UNL     1       0.866   3.771  20.158  0.00  0.00    +0.000 C 
ENDBRANCH   4  21
BRANCH   1  27
ATOM     26  N   UNL     1       1.101  10.981  19.312  0.00  0.00    +0.000 N 
ATOM     27  C   UNL     1       1.746  10.075  18.490  0.00  0.00    +0.000 C 
ATOM     28  O   UNL     1       2.254  10.367  17.419  0.00  0.00    +0.000 OA
ATOM     29  H   UNL     1       0.576  10.643  20.101  0.00  0.00    +0.000 HD
BRANCH  26  30
ATOM     30  C   UNL     1       0.932  12.371  18.938  0.00  0.00    +0.000 C 
BRANCH  30  35
ATOM     31  C   UNL     1       3.539  14.244  21.044  0.00  0.00    +0.000 A 
ATOM     32  C   UNL     1       4.249  14.907  20.044  0.00  0.00    +0.000 A 
ATOM     33  C   UNL     1       3.897  14.744  18.704  0.00  0.00    +0.000 A 
ATOM     34  C   UNL     1       2.821  13.926  18.360  0.00  0.00    +0.000 A 
ATOM     35  C   UNL     1       2.077  13.267  19.351  0.00  0.00    +0.000 A 
ATOM     36  C   UNL     1       2.466  13.419  20.692  0.00  0.00    +0.000 A 
BRANCH  31  37
ATOM     37  O   UNL     1       3.979  14.480  22.321  0.00  0.00    +0.000 OA
BRANCH  37  39
ATOM     38  C   UNL     1       6.158  14.932  23.209  0.00  0.00    +0.000 C 
ATOM     39  C   UNL     1       5.212  13.864  22.692  0.00  0.00    +0.000 C 
ENDBRANCH  37  39
ENDBRANCH  31  37
ENDBRANCH  30  35
ENDBRANCH  26  30
ENDBRANCH   1  27
TORSDOF 9
ENDMDL
MODEL 5
REMARK VINA RESULT:      -8.0      2.661      7.018
REMARK  Name = 
REMARK  10 active torsions:
REMARK  status: ('A' for Active; 'I' for Inactive)
REMARK    1  A    between atoms: C_1  and  C_2
REMARK    2  A    between atoms: C_2  and  O_3
REMARK    3  A    between atoms: O_3  and  C_4
REMARK    4  A    between atoms: C_8  and  C_9
REMARK    5  A    between atoms: C_9  and  N_10
REMARK    6  A    between atoms: C_11  and  C_13
REMARK    7  A    between atoms: C_16  and  N_17
REMARK    8  A    between atoms: C_22  and  N_23
REMARK    9  A    between atoms: N_26  and  C_27
REMARK   10  A    between atoms: C_27  and  C_28
REMARK                            x       y       z     vdW  Elec       q    Type
REMARK                         _______ _______ _______ _____ _____    ______ ____
ROOT
ATOM      1  C   UNL     1       5.929   6.203  17.682  0.00  0.00    +0.000 A 
ATOM      2  C   UNL     1       5.844   4.812  17.617  0.00  0.00    +0.000 A 
ATOM      3  C   UNL     1       4.709   4.148  18.112  0.00  0.00    +0.000 A 
ATOM      4  C   UNL     1       3.634   4.849  18.685  0.00  0.00    +0.000 A 
ATOM      5  C   UNL     1       3.734   6.265  18.708  0.00  0.00    +0.000 A 
ATOM      6  C   UNL     1       4.868   6.933  18.219  0.00  0.00    +0.000 A 
ENDROOT
BRANCH   5   7
ATOM      7  N   UNL     1       2.619   7.031  19.145  0.00  0.00    +0.000 N 
ATOM      8  C   UNL     1       2.209   8.134  18.423  0.00  0.00    +0.000 C 
ATOM      9  O   UNL     1       2.666   8.477  17.336  0.00  0.00    +0.000 OA
ATOM     10  N   UNL     1       1.260   8.880  19.091  0.00  0.00    +0.000 N 
ATOM     11  H   UNL     1       2.592   7.147  20.148  0.00  0.00    +0.000 HD
ATOM     12  H   UNL     1       0.715   8.425  19.808  0.00  0.00    +0.000 HD
BRANCH  10  13
ATOM     13  C   UNL     1       0.712  10.043  18.427  0.00  0.00    +0.000 C 
BRANCH  13  14
ATOM     14  C   UNL     1       1.307  11.345  18.902  0.00  0.00    +0.000 A 
ATOM     15  C   UNL     1       1.001  11.860  20.176  0.00  0.00    +0.000 A 
ATOM     16  C   UNL     1       1.602  13.037  20.627  0.00  0.00    +0.000 A 
ATOM     17  C   UNL     1       2.503  13.707  19.806  0.00  0.00    +0.000 A 
ATOM     18  F   UNL     1       3.085  14.832  20.245  0.00  0.00    +0.000 F 
ATOM     19  C   UNL     1       2.813  13.223  18.543  0.00  0.00    +0.000 A 
ATOM     20  C   UNL     1       2.213  12.044  18.089  0.00  0.00    +0.000 A 
ENDBRANCH  13  14
ENDBRANCH  10  13
ENDBRANCH   5   7
BRANCH   4  21
ATOM     21  N   UNL     1       2.511   4.197  19.194  0.00  0.00    +0.000 N 
ATOM     22  C   UNL     1       1.807   3.155  18.448  0.00  0.00    +0.000 C 
ATOM     23  C   UNL     1       0.607   2.928  19.356  0.00  0.00    +0.000 C 
ATOM     24  C   UNL     1       1.233   2.934  20.748  0.00  0.00    +0.000 C 
ATOM     25  C   UNL     1       2.483   3.815  20.617  0.00  0.00    +0.000 C 
ENDBRANCH   4  21
BRANCH   1  27
ATOM     26  N   UNL     1       7.426   8.120  17.782  0.00  0.00    +0.000 N 
ATOM     27  C   UNL     1       7.104   6.944  17.130  0.00  0.00    +0.000 C 
ATOM     28  O   UNL     1       7.711   6.510  16.164  0.00  0.00    +0.000 OA
ATOM     29  H   UNL     1       6.793   8.491  18.470  0.00  0.00    +0.000 HD
BRANCH  26  30
ATOM     30  C   UNL     1       8.506   8.975  17.332  0.00  0.00    +0.000 C 
BRANCH  30  35
ATOM     31  C   UNL     1       8.992  12.517  18.734  0.00  0.00    +0.000 A 
ATOM     32  C   UNL     1       9.339  12.225  20.053  0.00  0.00    +0.000 A 
ATOM     33  C   UNL     1       9.407  10.901  20.487  0.00  0.00    +0.000 A 
ATOM     34  C   UNL     1       9.139   9.861  19.598  0.00  0.00    +0.000 A 
ATOM     35  C   UNL     1       8.811  10.129  18.261  0.00  0.00    +0.000 A 
ATOM     36  C   UNL     1       8.718  11.468  17.849  0.00  0.00    +0.000 A 
BRANCH  31  37
ATOM     37  O   UNL     1       8.956  13.852  18.426  0.00  0.00    +0.000 OA
BRANCH  37  39
ATOM     38  C   UNL     1       7.168  15.400  18.042  0.00  0.00    +0.000 C 
ATOM     39  C   UNL     1       7.958  14.630  19.084  0.00  0.00    +0.000 C 
ENDBRANCH  37  39
ENDBRANCH  31  37
ENDBRANCH  30  35
ENDBRANCH  26  30
ENDBRANCH   1  27
TORSDOF 9
ENDMDL
MODEL 6
REMARK VINA RESULT:      -8.0      5.497     11.424
REMARK  Name = 
REMARK  10 active torsions:
REMARK  status: ('A' for Active; 'I' for Inactive)
REMARK    1  A    between atoms: C_1  and  C_2
REMARK    2  A    between atoms: C_2  and  O_3
REMARK    3  A    between atoms: O_3  and  C_4
REMARK    4  A    between atoms: C_8  and  C_9
REMARK    5  A    between atoms: C_9  and  N_10
REMARK    6  A    between atoms: C_11  and  C_13
REMARK    7  A    between atoms: C_16  and  N_17
REMARK    8  A    between atoms: C_22  and  N_23
REMARK    9  A    between atoms: N_26  and  C_27
REMARK   10  A    between atoms: C_27  and  C_28
REMARK                            x       y       z     vdW  Elec       q    Type
REMARK                         _______ _______ _______ _____ _____    ______ ____
ROOT
ATOM      1  C   UNL     1      -0.078  10.341  18.043  0.00  0.00    +0.000 A 
ATOM      2  C   UNL     1      -1.053   9.623  17.349  0.00  0.00    +0.000 A 
ATOM      3  C   UNL     1      -2.384  10.071  17.332  0.00  0.00    +0.000 A 
ATOM      4  C   UNL     1      -2.781  11.240  18.005  0.00  0.00    +0.000 A 
ATOM      5  C   UNL     1      -1.762  11.968  18.675  0.00  0.00    +0.000 A 
ATOM      6  C   UNL     1      -0.431  11.522  18.699  0.00  0.00    +0.000 A 
ENDROOT
BRANCH   5   7
ATOM      7  N   UNL     1      -2.076  13.228  19.250  0.00  0.00    +0.000 N 
ATOM      8  C   UNL     1      -2.389  13.321  20.592  0.00  0.00    +0.000 C 
ATOM      9  O   UNL     1      -2.320  12.398  21.399  0.00  0.00    +0.000 OA
ATOM     10  N   UNL     1      -2.872  14.567  20.937  0.00  0.00    +0.000 N 
ATOM     11  H   UNL     1      -2.639  13.807  18.643  0.00  0.00    +0.000 HD
ATOM     12  H   UNL     1      -2.637  15.349  20.344  0.00  0.00    +0.000 HD
BRANCH  10  13
ATOM     13  C   UNL     1      -3.198  14.813  22.325  0.00  0.00    +0.000 C 
BRANCH  13  14
ATOM     14  C   UNL     1      -4.474  14.144  22.772  0.00  0.00    +0.000 A 
ATOM     15  C   UNL     1      -5.659  14.269  22.023  0.00  0.00    +0.000 A 
ATOM     16  C   UNL     1      -6.819  13.599  22.416  0.00  0.00    +0.000 A 
ATOM     17  C   UNL     1      -6.803  12.811  23.560  0.00  0.00    +0.000 A 
ATOM     18  F   UNL     1      -7.916  12.161  23.931  0.00  0.00    +0.000 F 
ATOM     19  C   UNL     1      -5.649  12.679  24.320  0.00  0.00    +0.000 A 
ATOM     20  C   UNL     1      -4.485  13.349  23.928  0.00  0.00    +0.000 A 
ENDBRANCH  13  14
ENDBRANCH  10  13
ENDBRANCH   5   7
BRANCH   4  21
ATOM     21  N   UNL     1      -4.103  11.682  18.006  0.00  0.00    +0.000 N 
ATOM     22  C   UNL     1      -4.892  11.792  16.781  0.00  0.00    +0.000 C 
ATOM     23  C   UNL     1      -6.146  12.465  17.319  0.00  0.00    +0.000 C 
ATOM     24  C   UNL     1      -6.397  11.716  18.624  0.00  0.00    +0.000 C 
ATOM     25  C   UNL     1      -5.012  11.233  19.077  0.00  0.00    +0.000 C 
ENDBRANCH   4  21
BRANCH   1  27
ATOM     26  N   UNL     1       1.570   8.553  17.957  0.00  0.00    +0.000 N 
ATOM     27  C   UNL     1       1.353   9.916  18.050  0.00  0.00    +0.000 C 
ATOM     28  O   UNL     1       2.246  10.744  18.137  0.00  0.00    +0.000 OA
ATOM     29  H   UNL     1       0.790   7.924  18.041  0.00  0.00    +0.000 HD
BRANCH  26  30
ATOM     30  C   UNL     1       2.901   7.983  18.004  0.00  0.00    +0.000 C 
BRANCH  30  35
ATOM     31  C   UNL     1       4.133   4.433  17.209  0.00  0.00    +0.000 A 
ATOM     32  C   UNL     1       2.967   3.702  17.433  0.00  0.00    +0.000 A 
ATOM     33  C   UNL     1       1.799   4.344  17.844  0.00  0.00    +0.000 A 
ATOM     34  C   UNL     1       1.790   5.728  18.021  0.00  0.00    +0.000 A 
ATOM     35  C   UNL     1       2.944   6.488  17.779  0.00  0.00    +0.000 A 
ATOM     36  C   UNL     1       4.118   5.820  17.395  0.00  0.00    +0.000 A 
BRANCH  31  37
ATOM     37  O   UNL     1       5.215   3.692  16.811  0.00  0.00    +0.000 OA
BRANCH  37  39
ATOM     38  C   UNL     1       7.427   4.527  17.195  0.00  0.00    +0.000 C 
ATOM     39  C   UNL     1       6.286   4.411  16.201  0.00  0.00    +0.000 C 
ENDBRANCH  37  39
ENDBRANCH  31  37
ENDBRANCH  30  35
ENDBRANCH  26  30
ENDBRANCH   1  27
TORSDOF 9
ENDMDL
MODEL 7
REMARK VINA RESULT:      -8.0      3.451      6.540
REMARK  Name = 
REMARK  10 active torsions:
REMARK  status: ('A' for Active; 'I' for Inactive)
REMARK    1  A    between atoms: C_1  and  C_2
REMARK    2  A    between atoms: C_2  and  O_3
REMARK    3  A    between atoms: O_3  and  C_4
REMARK    4  A    between atoms: C_8  and  C_9
REMARK    5  A    between atoms: C_9  and  N_10
REMARK    6  A    between atoms: C_11  and  C_13
REMARK    7  A    between atoms: C_16  and  N_17
REMARK    8  A    between atoms: C_22  and  N_23
REMARK    9  A    between atoms: N_26  and  C_27
REMARK   10  A    between atoms: C_27  and  C_28
REMARK                            x       y       z     vdW  Elec       q    Type
REMARK                         _______ _______ _______ _____ _____    ______ ____
ROOT
ATOM      1  C   UNL     1       1.903   8.481  18.906  0.00  0.00    +0.000 A 
ATOM      2  C   UNL     1       1.620   8.138  20.229  0.00  0.00    +0.000 A 
ATOM      3  C   UNL     1       1.732   6.804  20.653  0.00  0.00    +0.000 A 
ATOM      4  C   UNL     1       2.125   5.779  19.776  0.00  0.00    +0.000 A 
ATOM      5  C   UNL     1       2.438   6.162  18.445  0.00  0.00    +0.000 A 
ATOM      6  C   UNL     1       2.323   7.493  18.014  0.00  0.00    +0.000 A 
ENDROOT
BRANCH   5   7
ATOM      7  N   UNL     1       2.976   5.195  17.554  0.00  0.00    +0.000 N 
ATOM      8  C   UNL     1       4.343   5.077  17.399  0.00  0.00    +0.000 C 
ATOM      9  O   UNL     1       5.183   5.680  18.059  0.00  0.00    +0.000 OA
ATOM     10  N   UNL     1       4.686   4.248  16.350  0.00  0.00    +0.000 N 
ATOM     11  H   UNL     1       2.444   5.111  16.700  0.00  0.00    +0.000 HD
ATOM     12  H   UNL     1       4.010   3.565  16.042  0.00  0.00    +0.000 HD
BRANCH  10  13
ATOM     13  C   UNL     1       6.091   4.003  16.104  0.00  0.00    +0.000 C 
BRANCH  13  14
ATOM     14  C   UNL     1       6.490   4.186  14.661  0.00  0.00    +0.000 A 
ATOM     15  C   UNL     1       5.849   3.469  13.635  0.00  0.00    +0.000 A 
ATOM     16  C   UNL     1       6.189   3.688  12.298  0.00  0.00    +0.000 A 
ATOM     17  C   UNL     1       7.174   4.617  11.983  0.00  0.00    +0.000 A 
ATOM     18  F   UNL     1       7.493   4.832  10.698  0.00  0.00    +0.000 F 
ATOM     19  C   UNL     1       7.827   5.330  12.979  0.00  0.00    +0.000 A 
ATOM     20  C   UNL     1       7.488   5.112  14.319  0.00  0.00    +0.000 A 
ENDBRANCH  13  14
ENDBRANCH  10  13
ENDBRANCH   5   7
BRANCH   4  21
ATOM     21  N   UNL     1       2.223   4.450  20.185  0.00  0.00    +0.000 N 
ATOM     22  C   UNL     1       3.430   3.911  20.811  0.00  0.00    +0.000 C 
ATOM     23  C   UNL     1       3.068   2.435  20.885  0.00  0.00    +0.000 C 
ATOM     24  C   UNL     1       1.613   2.468  21.346  0.00  0.00    +0.000 C 
ATOM     25  C   UNL     1       1.066   3.809  20.836  0.00  0.00    +0.000 C 
ENDBRANCH   4  21
BRANCH   1  27
ATOM     26  N   UNL     1       1.028  10.736  19.179  0.00  0.00    +0.000 N 
ATOM     27  C   UNL     1       1.832   9.895  18.430  0.00  0.00    +0.000 C 
ATOM     28  O   UNL     1       2.453  10.248  17.439  0.00  0.00    +0.000 OA
ATOM     29  H   UNL     1       0.431  10.344  19.886  0.00  0.00    +0.000 HD
BRANCH  26  30
ATOM     30  C   UNL     1       0.817  12.122  18.812  0.00  0.00    +0.000 C 
BRANCH  30  35
ATOM     31  C   UNL     1       3.817  14.518  18.889  0.00  0.00    +0.000 A 
ATOM     32  C   UNL     1       3.850  14.844  20.245  0.00  0.00    +0.000 A 
ATOM     33  C   UNL     1       2.910  14.305  21.122  0.00  0.00    +0.000 A 
ATOM     34  C   UNL     1       1.938  13.423  20.648  0.00  0.00    +0.000 A 
ATOM     35  C   UNL     1       1.899  13.062  19.293  0.00  0.00    +0.000 A 
ATOM     36  C   UNL     1       2.835  13.639  18.420  0.00  0.00    +0.000 A 
BRANCH  31  37
ATOM     37  O   UNL     1       4.790  15.111  18.126  0.00  0.00    +0.000 OA
BRANCH  37  39
ATOM     38  C   UNL     1       6.972  14.283  17.586  0.00  0.00    +0.000 C 
ATOM     39  C   UNL     1       6.127  15.012  18.614  0.00  0.00    +0.000 C 
ENDBRANCH  37  39
ENDBRANCH  31  37
ENDBRANCH  30  35
ENDBRANCH  26  30
ENDBRANCH   1  27
TORSDOF 9
ENDMDL
MODEL 8
REMARK VINA RESULT:      -7.8      5.546     11.351
REMARK  Name = 
REMARK  10 active torsions:
REMARK  status: ('A' for Active; 'I' for Inactive)
REMARK    1  A    between atoms: C_1  and  C_2
REMARK    2  A    between atoms: C_2  and  O_3
REMARK    3  A    between atoms: O_3  and  C_4
REMARK    4  A    between atoms: C_8  and  C_9
REMARK    5  A    between atoms: C_9  and  N_10
REMARK    6  A    between atoms: C_11  and  C_13
REMARK    7  A    between atoms: C_16  and  N_17
REMARK    8  A    between atoms: C_22  and  N_23
REMARK    9  A    between atoms: N_26  and  C_27
REMARK   10  A    between atoms: C_27  and  C_28
REMARK                            x       y       z     vdW  Elec       q    Type
REMARK                         _______ _______ _______ _____ _____    ______ ____
ROOT
ATOM      1  C   UNL     1      -1.138  10.665  19.124  0.00  0.00    +0.000 A 
ATOM      2  C   UNL     1      -1.921  10.064  18.138  0.00  0.00    +0.000 A 
ATOM      3  C   UNL     1      -3.213  10.545  17.870  0.00  0.00    +0.000 A 
ATOM      4  C   UNL     1      -3.760  11.631  18.575  0.00  0.00    +0.000 A 
ATOM      5  C   UNL     1      -2.929  12.243  19.550  0.00  0.00    +0.000 A 
ATOM      6  C   UNL     1      -1.638  11.763  19.825  0.00  0.00    +0.000 A 
ENDROOT
BRANCH   5   7
ATOM      7  N   UNL     1      -3.373  13.429  20.193  0.00  0.00    +0.000 N 
ATOM      8  C   UNL     1      -3.847  13.382  21.489  0.00  0.00    +0.000 C 
ATOM      9  O   UNL     1      -3.826  12.391  22.213  0.00  0.00    +0.000 OA
ATOM     10  N   UNL     1      -4.430  14.569  21.883  0.00  0.00    +0.000 N 
ATOM     11  H   UNL     1      -3.890  14.040  19.576  0.00  0.00    +0.000 HD
ATOM     12  H   UNL     1      -4.168  15.413  21.395  0.00  0.00    +0.000 HD
BRANCH  10  13
ATOM     13  C   UNL     1      -4.931  14.669  23.237  0.00  0.00    +0.000 C 
BRANCH  13  14
ATOM     14  C   UNL     1      -3.984  15.369  24.179  0.00  0.00    +0.000 A 
ATOM     15  C   UNL     1      -3.012  14.649  24.898  0.00  0.00    +0.000 A 
ATOM     16  C   UNL     1      -2.105  15.315  25.724  0.00  0.00    +0.000 A 
ATOM     17  C   UNL     1      -2.169  16.698  25.841  0.00  0.00    +0.000 A 
ATOM     18  F   UNL     1      -1.290  17.336  26.629  0.00  0.00    +0.000 F 
ATOM     19  C   UNL     1      -3.124  17.430  25.149  0.00  0.00    +0.000 A 
ATOM     20  C   UNL     1      -4.034  16.765  24.320  0.00  0.00    +0.000 A 
ENDBRANCH  13  14
ENDBRANCH  10  13
ENDBRANCH   5   7
BRANCH   4  21
ATOM     21  N   UNL     1      -5.048  12.104  18.327  0.00  0.00    +0.000 N 
ATOM     22  C   UNL     1      -5.563  12.295  16.972  0.00  0.00    +0.000 C 
ATOM     23  C   UNL     1      -6.893  12.969  17.275  0.00  0.00    +0.000 C 
ATOM     24  C   UNL     1      -7.420  12.160  18.456  0.00  0.00    +0.000 C 
ATOM     25  C   UNL     1      -6.166  11.621  19.159  0.00  0.00    +0.000 C 
ENDBRANCH   4  21
BRANCH   1  27
ATOM     26  N   UNL     1       0.362   9.130  20.273  0.00  0.00    +0.000 N 
ATOM     27  C   UNL     1       0.255  10.205  19.409  0.00  0.00    +0.000 C 
ATOM     28  O   UNL     1       1.210  10.767  18.897  0.00  0.00    +0.000 OA
ATOM     29  H   UNL     1      -0.452   8.818  20.772  0.00  0.00    +0.000 HD
BRANCH  26  30
ATOM     30  C   UNL     1       1.648   8.604  20.686  0.00  0.00    +0.000 C 
BRANCH  30  35
ATOM     31  C   UNL     1       2.424   4.999  19.614  0.00  0.00    +0.000 A 
ATOM     32  C   UNL     1       2.941   5.217  18.338  0.00  0.00    +0.000 A 
ATOM     33  C   UNL     1       3.029   6.511  17.824  0.00  0.00    +0.000 A 
ATOM     34  C   UNL     1       2.612   7.596  18.594  0.00  0.00    +0.000 A 
ATOM     35  C   UNL     1       2.111   7.405  19.890  0.00  0.00    +0.000 A 
ATOM     36  C   UNL     1       2.001   6.093  20.378  0.00  0.00    +0.000 A 
BRANCH  31  37
ATOM     37  O   UNL     1       2.385   3.687  20.009  0.00  0.00    +0.000 OA
BRANCH  37  39
ATOM     38  C   UNL     1       0.739   2.342  18.904  0.00  0.00    +0.000 C 
ATOM     39  C   UNL     1       1.090   3.109  20.165  0.00  0.00    +0.000 C 
ENDBRANCH  37  39
ENDBRANCH  31  37
ENDBRANCH  30  35
ENDBRANCH  26  30
ENDBRANCH   1  27
TORSDOF 9
ENDMDL
MODEL 9
REMARK VINA RESULT:      -7.8      4.975     10.866
REMARK  Name = 
REMARK  10 active torsions:
REMARK  status: ('A' for Active; 'I' for Inactive)
REMARK    1  A    between atoms: C_1  and  C_2
REMARK    2  A    between atoms: C_2  and  O_3
REMARK    3  A    between atoms: O_3  and  C_4
REMARK    4  A    between atoms: C_8  and  C_9
REMARK    5  A    between atoms: C_9  and  N_10
REMARK    6  A    between atoms: C_11  and  C_13
REMARK    7  A    between atoms: C_16  and  N_17
REMARK    8  A    between atoms: C_22  and  N_23
REMARK    9  A    between atoms: N_26  and  C_27
REMARK   10  A    between atoms: C_27  and  C_28
REMARK                            x       y       z     vdW  Elec       q    Type
REMARK                         _______ _______ _______ _____ _____    ______ ____
ROOT
ATOM      1  C   UNL     1       1.830   8.754  19.094  0.00  0.00    +0.000 A 
ATOM      2  C   UNL     1       1.818   8.533  20.472  0.00  0.00    +0.000 A 
ATOM      3  C   UNL     1       0.996   9.308  21.307  0.00  0.00    +0.000 A 
ATOM      4  C   UNL     1       0.169  10.322  20.795  0.00  0.00    +0.000 A 
ATOM      5  C   UNL     1       0.177  10.504  19.387  0.00  0.00    +0.000 A 
ATOM      6  C   UNL     1       1.000   9.735  18.549  0.00  0.00    +0.000 A 
ENDROOT
BRANCH   5   7
ATOM      7  N   UNL     1      -0.742  11.415  18.800  0.00  0.00    +0.000 N 
ATOM      8  C   UNL     1      -1.987  10.980  18.392  0.00  0.00    +0.000 C 
ATOM      9  O   UNL     1      -2.442   9.857  18.586  0.00  0.00    +0.000 OA
ATOM     10  N   UNL     1      -2.665  11.932  17.657  0.00  0.00    +0.000 N 
ATOM     11  H   UNL     1      -0.297  12.072  18.176  0.00  0.00    +0.000 HD
ATOM     12  H   UNL     1      -2.401  12.899  17.773  0.00  0.00    +0.000 HD
BRANCH  10  13
ATOM     13  C   UNL     1      -4.003  11.620  17.203  0.00  0.00    +0.000 C 
BRANCH  13  14
ATOM     14  C   UNL     1      -5.033  11.640  18.303  0.00  0.00    +0.000 A 
ATOM     15  C   UNL     1      -6.219  10.889  18.200  0.00  0.00    +0.000 A 
ATOM     16  C   UNL     1      -7.139  10.872  19.250  0.00  0.00    +0.000 A 
ATOM     17  C   UNL     1      -6.884  11.608  20.401  0.00  0.00    +0.000 A 
ATOM     18  F   UNL     1      -7.765  11.582  21.412  0.00  0.00    +0.000 F 
ATOM     19  C   UNL     1      -5.725  12.364  20.522  0.00  0.00    +0.000 A 
ATOM     20  C   UNL     1      -4.801  12.383  19.472  0.00  0.00    +0.000 A 
ENDBRANCH  13  14
ENDBRANCH  10  13
ENDBRANCH   5   7
BRANCH   4  21
ATOM     21  N   UNL     1      -0.638  11.107  21.618  0.00  0.00    +0.000 N 
ATOM     22  C   UNL     1      -1.169  10.618  22.889  0.00  0.00    +0.000 C 
ATOM     23  C   UNL     1      -2.088  11.771  23.267  0.00  0.00    +0.000 C 
ATOM     24  C   UNL     1      -1.248  12.997  22.922  0.00  0.00    +0.000 C 
ATOM     25  C   UNL     1      -0.313  12.534  21.796  0.00  0.00    +0.000 C 
ENDBRANCH   4  21
BRANCH   1  27
ATOM     26  N   UNL     1       3.543   7.052  18.789  0.00  0.00    +0.000 N 
ATOM     27  C   UNL     1       2.662   7.923  18.174  0.00  0.00    +0.000 C 
ATOM     28  O   UNL     1       2.548   8.035  16.963  0.00  0.00    +0.000 OA
ATOM     29  H   UNL     1       3.691   7.122  19.781  0.00  0.00    +0.000 HD
BRANCH  26  30
ATOM     30  C   UNL     1       4.454   6.219  18.031  0.00  0.00    +0.000 C 
BRANCH  30  35
ATOM     31  C   UNL     1       2.860   2.820  18.840  0.00  0.00    +0.000 A 
ATOM     32  C   UNL     1       3.299   2.066  17.752  0.00  0.00    +0.000 A 
ATOM     33  C   UNL     1       4.092   2.649  16.764  0.00  0.00    +0.000 A 
ATOM     34  C   UNL     1       4.461   3.990  16.868  0.00  0.00    +0.000 A 
ATOM     35  C   UNL     1       4.052   4.763  17.964  0.00  0.00    +0.000 A 
ATOM     36  C   UNL     1       3.229   4.166  18.934  0.00  0.00    +0.000 A 
BRANCH  31  37
ATOM     37  O   UNL     1       2.085   2.139  19.743  0.00  0.00    +0.000 OA
BRANCH  37  39
ATOM     38  C   UNL     1       1.443   2.815  21.950  0.00  0.00    +0.000 C 
ATOM     39  C   UNL     1       1.129   2.910  20.468  0.00  0.00    +0.000 C 
ENDBRANCH  37  39
ENDBRANCH  31  37
ENDBRANCH  30  35
ENDBRANCH  26  30
ENDBRANCH   1  27
TORSDOF 9
ENDMDL
