MODEL 1
REMARK VINA RESULT:      -8.1      0.000      0.000
REMARK  Name = 
REMARK  10 active torsions:
REMARK  status: ('A' for Active; 'I' for Inactive)
REMARK    1  A    between atoms: C_1  and  C_2
REMARK    2  A    between atoms: C_3  and  C_4
REMARK    3  A    between atoms: C_7  and  O_8
REMARK    4  A    between atoms: N_12  and  C_13
REMARK    5  A    between atoms: C_16  and  O_17
REMARK    6  A    between atoms: C_20  and  C_21
REMARK    7  A    between atoms: C_24  and  C_25
REMARK    8  A    between atoms: C_25  and  C_26
REMARK    9  A    between atoms: C_26  and  C_27
REMARK   10  A    between atoms: C_27  and  N_28
REMARK                            x       y       z     vdW  Elec       q    Type
REMARK                         _______ _______ _______ _____ _____    ______ ____
ROOT
ATOM      1  C   UNL     1       0.030  11.077  22.453  0.00  0.00    +0.000 C 
ATOM      2  C   UNL     1      -0.876  11.320  21.296  0.00  0.00    +0.000 A 
ATOM      3  C   UNL     1      -1.979  12.232  21.217  0.00  0.00    +0.000 A 
ATOM      4  N   UNL     1      -2.440  12.299  19.960  0.00  0.00    +0.000 NA
ATOM      5  N   UNL     1      -1.843  11.276  19.301  0.00  0.00    +0.000 N 
ATOM      6  C   UNL     1      -0.793  10.732  20.034  0.00  0.00    +0.000 A 
ENDROOT
BRANCH   3   7
ATOM      7  C   UNL     1      -2.562  13.077  22.271  0.00  0.00    +0.000 A 
ATOM      8  C   UNL     1      -3.456  12.532  23.206  0.00  0.00    +0.000 A 
ATOM      9  C   UNL     1      -4.051  13.337  24.185  0.00  0.00    +0.000 A 
ATOM     10  C   UNL     1      -3.751  14.693  24.229  0.00  0.00    +0.000 A 
ATOM     11  C   UNL     1      -2.845  15.248  23.337  0.00  0.00    +0.000 A 
ATOM     12  C   UNL     1      -2.234  14.437  22.377  0.00  0.00    +0.000 A 
BRANCH  10  13
ATOM     13  O   UNL     1      -4.324  15.523  25.146  0.00  0.00    +0.000 OA
ATOM     14  H   UNL     1      -4.385  16.412  24.761  0.00  0.00    +0.000 HD
ENDBRANCH  10  13
ENDBRANCH   3   7
BRANCH   5  15
ATOM     15  C   UNL     1      -2.338  10.890  18.019  0.00  0.00    +0.000 A 
ATOM     16  C   UNL     1      -3.020   9.673  17.876  0.00  0.00    +0.000 A 
ATOM     17  C   UNL     1      -3.556   9.313  16.635  0.00  0.00    +0.000 A 
ATOM     18  C   UNL     1      -3.383  10.156  15.540  0.00  0.00    +0.000 A 
ATOM     19  C   UNL     1      -2.688  11.352  15.664  0.00  0.00    +0.000 A 
ATOM     20  C   UNL     1      -2.159  11.720  16.902  0.00  0.00    +0.000 A 
BRANCH  18  21
ATOM     21  O   UNL     1      -3.876   9.840  14.310  0.00  0.00    +0.000 OA
ATOM     22  H   UNL     1      -4.770   9.472  14.420  0.00  0.00    +0.000 HD
ENDBRANCH  18  21
ENDBRANCH   5  15
BRANCH   6  23
ATOM     23  C   UNL     1       0.206   9.778  19.515  0.00  0.00    +0.000 A 
ATOM     24  C   UNL     1       0.747   8.773  20.333  0.00  0.00    +0.000 A 
ATOM     25  C   UNL     1       1.771   7.943  19.872  0.00  0.00    +0.000 A 
ATOM     26  C   UNL     1       2.226   8.054  18.556  0.00  0.00    +0.000 A 
ATOM     27  C   UNL     1       1.649   9.008  17.715  0.00  0.00    +0.000 A 
ATOM     28  C   UNL     1       0.661   9.870  18.194  0.00  0.00    +0.000 A 
BRANCH  26  29
ATOM     29  C   UNL     1       3.276   7.114  18.028  0.00  0.00    +0.000 C 
BRANCH  29  30
ATOM     30  C   UNL     1       3.652   6.037  19.050  0.00  0.00    +0.000 C 
BRANCH  30  31
ATOM     31  C   UNL     1       3.639   4.599  18.501  0.00  0.00    +0.000 C 
BRANCH  31  32
ATOM     32  N   UNL     1       4.874   4.185  17.809  0.00  0.00    +0.000 NA
ATOM     33  C   UNL     1       4.736   4.260  16.347  0.00  0.00    +0.000 C 
ATOM     34  C   UNL     1       6.017   3.822  15.638  0.00  0.00    +0.000 C 
ATOM     35  C   UNL     1       7.213   4.644  16.099  0.00  0.00    +0.000 C 
ATOM     36  C   UNL     1       7.319   4.603  17.617  0.00  0.00    +0.000 C 
ATOM     37  C   UNL     1       6.001   5.011  18.276  0.00  0.00    +0.000 C 
ENDBRANCH  31  32
ENDBRANCH  30  31
ENDBRANCH  29  30
ENDBRANCH  26  29
ENDBRANCH   6  23
TORSDOF 9
ENDMDL
MODEL 2
REMARK VINA RESULT:      -8.0      0.787      1.434
REMARK  Name = 
REMARK  10 active torsions:
REMARK  status: ('A' for Active; 'I' for Inactive)
REMARK    1  A    between atoms: C_1  and  C_2
REMARK    2  A    between atoms: C_3  and  C_4
REMARK    3  A    between atoms: C_7  and  O_8
REMARK    4  A    between atoms: N_12  and  C_13
REMARK    5  A    between atoms: C_16  and  O_17
REMARK    6  A    between atoms: C_20  and  C_21
REMARK    7  A    between atoms: C_24  and  C_25
REMARK    8  A    between atoms: C_25  and  C_26
REMARK    9  A    between atoms: C_26  and  C_27
REMARK   10  A    between atoms: C_27  and  N_28
REMARK                            x       y       z     vdW  Elec       q    Type
REMARK                         _______ _______ _______ _____ _____    ______ ____
ROOT
ATOM      1  C   UNL     1      -0.285  11.781  22.347  0.00  0.00    +0.000 C 
ATOM      2  C   UNL     1      -1.208  11.859  21.180  0.00  0.00    +0.000 A 
ATOM      3  C   UNL     1      -2.411  12.629  21.059  0.00  0.00    +0.000 A 
ATOM      4  N   UNL     1      -2.870  12.581  19.799  0.00  0.00    +0.000 NA
ATOM      5  N   UNL     1      -2.152  11.606  19.190  0.00  0.00    +0.000 N 
ATOM      6  C   UNL     1      -1.049  11.226  19.947  0.00  0.00    +0.000 A 
ENDROOT
BRANCH   3   7
ATOM      7  C   UNL     1      -3.096  13.447  22.071  0.00  0.00    +0.000 A 
ATOM      8  C   UNL     1      -3.299  14.819  21.858  0.00  0.00    +0.000 A 
ATOM      9  C   UNL     1      -3.910  15.615  22.835  0.00  0.00    +0.000 A 
ATOM     10  C   UNL     1      -4.319  15.037  24.030  0.00  0.00    +0.000 A 
ATOM     11  C   UNL     1      -4.161  13.676  24.250  0.00  0.00    +0.000 A 
ATOM     12  C   UNL     1      -3.573  12.880  23.263  0.00  0.00    +0.000 A 
BRANCH  10  13
ATOM     13  O   UNL     1      -4.894  15.774  25.021  0.00  0.00    +0.000 OA
ATOM     14  H   UNL     1      -5.392  15.176  25.601  0.00  0.00    +0.000 HD
ENDBRANCH  10  13
ENDBRANCH   3   7
BRANCH   5  15
ATOM     15  C   UNL     1      -2.591  11.104  17.928  0.00  0.00    +0.000 A 
ATOM     16  C   UNL     1      -3.763  11.614  17.349  0.00  0.00    +0.000 A 
ATOM     17  C   UNL     1      -4.170  11.168  16.086  0.00  0.00    +0.000 A 
ATOM     18  C   UNL     1      -3.423  10.195  15.427  0.00  0.00    +0.000 A 
ATOM     19  C   UNL     1      -2.276   9.665  16.002  0.00  0.00    +0.000 A 
ATOM     20  C   UNL     1      -1.860  10.114  17.256  0.00  0.00    +0.000 A 
BRANCH  18  21
ATOM     21  O   UNL     1      -3.789   9.722  14.202  0.00  0.00    +0.000 OA
ATOM     22  H   UNL     1      -4.556  10.232  13.890  0.00  0.00    +0.000 HD
ENDBRANCH  18  21
ENDBRANCH   5  15
BRANCH   6  23
ATOM     23  C   UNL     1       0.059  10.374  19.474  0.00  0.00    +0.000 A 
ATOM     24  C   UNL     1       0.863  10.761  18.390  0.00  0.00    +0.000 A 
ATOM     25  C   UNL     1       1.838   9.905  17.875  0.00  0.00    +0.000 A 
ATOM     26  C   UNL     1       2.078   8.670  18.480  0.00  0.00    +0.000 A 
ATOM     27  C   UNL     1       1.326   8.303  19.598  0.00  0.00    +0.000 A 
ATOM     28  C   UNL     1       0.318   9.139  20.080  0.00  0.00    +0.000 A 
BRANCH  26  29
ATOM     29  C   UNL     1       3.178   7.772  17.979  0.00  0.00    +0.000 C 
BRANCH  29  30
ATOM     30  C   UNL     1       2.855   6.291  18.193  0.00  0.00    +0.000 C 
BRANCH  30  31
ATOM     31  C   UNL     1       3.892   5.523  19.031  0.00  0.00    +0.000 C 
BRANCH  31  32
ATOM     32  N   UNL     1       4.908   4.793  18.249  0.00  0.00    +0.000 NA
ATOM     33  C   UNL     1       4.539   4.691  16.829  0.00  0.00    +0.000 C 
ATOM     34  C   UNL     1       5.592   3.927  16.027  0.00  0.00    +0.000 C 
ATOM     35  C   UNL     1       6.967   4.566  16.172  0.00  0.00    +0.000 C 
ATOM     36  C   UNL     1       7.321   4.715  17.645  0.00  0.00    +0.000 C 
ATOM     37  C   UNL     1       6.218   5.449  18.408  0.00  0.00    +0.000 C 
ENDBRANCH  31  32
ENDBRANCH  30  31
ENDBRANCH  29  30
ENDBRANCH  26  29
ENDBRANCH   6  23
TORSDOF 9
ENDMDL
MODEL 3
REMARK VINA RESULT:      -7.9      1.434      2.669
REMARK  Name = 
REMARK  10 active torsions:
REMARK  status: ('A' for Active; 'I' for Inactive)
REMARK    1  A    between atoms: C_1  and  C_2
REMARK    2  A    between atoms: C_3  and  C_4
REMARK    3  A    between atoms: C_7  and  O_8
REMARK    4  A    between atoms: N_12  and  C_13
REMARK    5  A    between atoms: C_16  and  O_17
REMARK    6  A    between atoms: C_20  and  C_21
REMARK    7  A    between atoms: C_24  and  C_25
REMARK    8  A    between atoms: C_25  and  C_26
REMARK    9  A    between atoms: C_26  and  C_27
REMARK   10  A    between atoms: C_27  and  N_28
REMARK                            x       y       z     vdW  Elec       q    Type
REMARK                         _______ _______ _______ _____ _____    ______ ____
ROOT
ATOM      1  C   UNL     1      -0.079  11.410  22.300  0.00  0.00    +0.000 C 
ATOM      2  C   UNL     1      -1.023  11.559  21.158  0.00  0.00    +0.000 A 
ATOM      3  C   UNL     1      -2.196  12.378  21.085  0.00  0.00    +0.000 A 
ATOM      4  N   UNL     1      -2.683  12.384  19.835  0.00  0.00    +0.000 NA
ATOM      5  N   UNL     1      -2.018  11.400  19.183  0.00  0.00    +0.000 N 
ATOM      6  C   UNL     1      -0.915  10.956  19.904  0.00  0.00    +0.000 A 
ENDROOT
BRANCH   3   7
ATOM      7  C   UNL     1      -2.826  13.193  22.135  0.00  0.00    +0.000 A 
ATOM      8  C   UNL     1      -2.836  14.593  22.038  0.00  0.00    +0.000 A 
ATOM      9  C   UNL     1      -3.393  15.380  23.053  0.00  0.00    +0.000 A 
ATOM     10  C   UNL     1      -3.942  14.764  24.172  0.00  0.00    +0.000 A 
ATOM     11  C   UNL     1      -3.975  13.380  24.275  0.00  0.00    +0.000 A 
ATOM     12  C   UNL     1      -3.440  12.598  23.248  0.00  0.00    +0.000 A 
BRANCH  10  13
ATOM     13  O   UNL     1      -4.472  15.486  25.198  0.00  0.00    +0.000 OA
ATOM     14  H   UNL     1      -5.270  15.032  25.515  0.00  0.00    +0.000 HD
ENDBRANCH  10  13
ENDBRANCH   3   7
BRANCH   5  15
ATOM     15  C   UNL     1      -2.504  10.953  17.918  0.00  0.00    +0.000 A 
ATOM     16  C   UNL     1      -2.356  11.772  16.789  0.00  0.00    +0.000 A 
ATOM     17  C   UNL     1      -2.779  11.318  15.535  0.00  0.00    +0.000 A 
ATOM     18  C   UNL     1      -3.374  10.064  15.422  0.00  0.00    +0.000 A 
ATOM     19  C   UNL     1      -3.548   9.255  16.537  0.00  0.00    +0.000 A 
ATOM     20  C   UNL     1      -3.119   9.699  17.788  0.00  0.00    +0.000 A 
BRANCH  18  21
ATOM     21  O   UNL     1      -3.813   9.587  14.223  0.00  0.00    +0.000 OA
ATOM     22  H   UNL     1      -4.133   8.678  14.350  0.00  0.00    +0.000 HD
ENDBRANCH  18  21
ENDBRANCH   5  15
BRANCH   6  23
ATOM     23  C   UNL     1       0.147  10.075  19.382  0.00  0.00    +0.000 A 
ATOM     24  C   UNL     1       0.573   8.944  20.098  0.00  0.00    +0.000 A 
ATOM     25  C   UNL     1       1.652   8.176  19.656  0.00  0.00    +0.000 A 
ATOM     26  C   UNL     1       2.283   8.481  18.448  0.00  0.00    +0.000 A 
ATOM     27  C   UNL     1       1.825   9.566  17.697  0.00  0.00    +0.000 A 
ATOM     28  C   UNL     1       0.779  10.362  18.167  0.00  0.00    +0.000 A 
BRANCH  26  29
ATOM     29  C   UNL     1       3.397   7.615  17.926  0.00  0.00    +0.000 C 
BRANCH  29  30
ATOM     30  C   UNL     1       3.040   6.127  17.973  0.00  0.00    +0.000 C 
BRANCH  30  31
ATOM     31  C   UNL     1       3.953   5.276  18.874  0.00  0.00    +0.000 C 
BRANCH  31  32
ATOM     32  N   UNL     1       3.277   4.171  19.581  0.00  0.00    +0.000 NA
ATOM     33  C   UNL     1       2.418   4.661  20.669  0.00  0.00    +0.000 C 
ATOM     34  C   UNL     1       1.727   3.511  21.401  0.00  0.00    +0.000 C 
ATOM     35  C   UNL     1       0.922   2.648  20.440  0.00  0.00    +0.000 C 
ATOM     36  C   UNL     1       1.806   2.186  19.289  0.00  0.00    +0.000 C 
ATOM     37  C   UNL     1       2.504   3.369  18.617  0.00  0.00    +0.000 C 
ENDBRANCH  31  32
ENDBRANCH  30  31
ENDBRANCH  29  30
ENDBRANCH  26  29
ENDBRANCH   6  23
TORSDOF 9
ENDMDL
MODEL 4
REMARK VINA RESULT:      -7.9      1.770      2.470
REMARK  Name = 
REMARK  10 active torsions:
REMARK  status: ('A' for Active; 'I' for Inactive)
REMARK    1  A    between atoms: C_1  and  C_2
REMARK    2  A    between atoms: C_3  and  C_4
REMARK    3  A    between atoms: C_7  and  O_8
REMARK    4  A    between atoms: N_12  and  C_13
REMARK    5  A    between atoms: C_16  and  O_17
REMARK    6  A    between atoms: C_20  and  C_21
REMARK    7  A    between atoms: C_24  and  C_25
REMARK    8  A    between atoms: C_25  and  C_26
REMARK    9  A    between atoms: C_26  and  C_27
REMARK   10  A    between atoms: C_27  and  N_28
REMARK                            x       y       z     vdW  Elec       q    Type
REMARK                         _______ _______ _______ _____ _____    ______ ____
ROOT
ATOM      1  C   UNL     1      -0.417  11.982  22.347  0.00  0.00    +0.000 C 
ATOM      2  C   UNL     1      -1.361  12.095  21.200  0.00  0.00    +0.000 A 
ATOM      3  C   UNL     1      -2.543  12.900  21.110  0.00  0.00    +0.000 A 
ATOM      4  N   UNL     1      -3.030  12.874  19.860  0.00  0.00    +0.000 NA
ATOM      5  N   UNL     1      -2.354  11.884  19.229  0.00  0.00    +0.000 N 
ATOM      6  C   UNL     1      -1.246  11.467  19.960  0.00  0.00    +0.000 A 
ENDROOT
BRANCH   3   7
ATOM      7  C   UNL     1      -3.183  13.730  22.142  0.00  0.00    +0.000 A 
ATOM      8  C   UNL     1      -4.115  13.169  23.028  0.00  0.00    +0.000 A 
ATOM      9  C   UNL     1      -4.763  13.960  23.985  0.00  0.00    +0.000 A 
ATOM     10  C   UNL     1      -4.478  15.318  24.056  0.00  0.00    +0.000 A 
ATOM     11  C   UNL     1      -3.534  15.889  23.214  0.00  0.00    +0.000 A 
ATOM     12  C   UNL     1      -2.872  15.092  22.277  0.00  0.00    +0.000 A 
BRANCH  10  13
ATOM     13  O   UNL     1      -5.100  16.134  24.952  0.00  0.00    +0.000 OA
ATOM     14  H   UNL     1      -4.561  16.175  25.758  0.00  0.00    +0.000 HD
ENDBRANCH  10  13
ENDBRANCH   3   7
BRANCH   5  15
ATOM     15  C   UNL     1      -2.833  11.405  17.973  0.00  0.00    +0.000 A 
ATOM     16  C   UNL     1      -2.015  10.580  17.187  0.00  0.00    +0.000 A 
ATOM     17  C   UNL     1      -2.498  10.061  15.981  0.00  0.00    +0.000 A 
ATOM     18  C   UNL     1      -3.781  10.393  15.554  0.00  0.00    +0.000 A 
ATOM     19  C   UNL     1      -4.591  11.228  16.312  0.00  0.00    +0.000 A 
ATOM     20  C   UNL     1      -4.117  11.740  17.521  0.00  0.00    +0.000 A 
BRANCH  18  21
ATOM     21  O   UNL     1      -4.288   9.921  14.380  0.00  0.00    +0.000 OA
ATOM     22  H   UNL     1      -4.950   9.238  14.581  0.00  0.00    +0.000 HD
ENDBRANCH  18  21
ENDBRANCH   5  15
BRANCH   6  23
ATOM     23  C   UNL     1      -0.174  10.587  19.457  0.00  0.00    +0.000 A 
ATOM     24  C   UNL     1      -0.005   9.286  19.957  0.00  0.00    +0.000 A 
ATOM     25  C   UNL     1       1.076   8.497  19.560  0.00  0.00    +0.000 A 
ATOM     26  C   UNL     1       1.973   8.967  18.598  0.00  0.00    +0.000 A 
ATOM     27  C   UNL     1       1.776  10.236  18.048  0.00  0.00    +0.000 A 
ATOM     28  C   UNL     1       0.724  11.042  18.484  0.00  0.00    +0.000 A 
BRANCH  26  29
ATOM     29  C   UNL     1       3.097   8.094  18.109  0.00  0.00    +0.000 C 
BRANCH  29  30
ATOM     30  C   UNL     1       2.706   6.614  18.079  0.00  0.00    +0.000 C 
BRANCH  30  31
ATOM     31  C   UNL     1       3.404   5.744  19.139  0.00  0.00    +0.000 C 
BRANCH  31  32
ATOM     32  N   UNL     1       2.841   4.391  19.304  0.00  0.00    +0.000 NA
ATOM     33  C   UNL     1       1.593   4.407  20.082  0.00  0.00    +0.000 C 
ATOM     34  C   UNL     1       1.021   3.000  20.254  0.00  0.00    +0.000 C 
ATOM     35  C   UNL     1       0.797   2.325  18.908  0.00  0.00    +0.000 C 
ATOM     36  C   UNL     1       2.079   2.358  18.089  0.00  0.00    +0.000 C 
ATOM     37  C   UNL     1       2.632   3.780  17.980  0.00  0.00    +0.000 C 
ENDBRANCH  31  32
ENDBRANCH  30  31
ENDBRANCH  29  30
ENDBRANCH  26  29
ENDBRANCH   6  23
TORSDOF 9
ENDMDL
MODEL 5
REMARK VINA RESULT:      -7.9      1.753      2.616
REMARK  Name = 
REMARK  10 active torsions:
REMARK  status: ('A' for Active; 'I' for Inactive)
REMARK    1  A    between atoms: C_1  and  C_2
REMARK    2  A    between atoms: C_3  and  C_4
REMARK    3  A    between atoms: C_7  and  O_8
REMARK    4  A    between atoms: N_12  and  C_13
REMARK    5  A    between atoms: C_16  and  O_17
REMARK    6  A    between atoms: C_20  and  C_21
REMARK    7  A    between atoms: C_24  and  C_25
REMARK    8  A    between atoms: C_25  and  C_26
REMARK    9  A    between atoms: C_26  and  C_27
REMARK   10  A    between atoms: C_27  and  N_28
REMARK                            x       y       z     vdW  Elec       q    Type
REMARK                         _______ _______ _______ _____ _____    ______ ____
ROOT
ATOM      1  C   UNL     1      -0.468  12.153  22.434  0.00  0.00    +0.000 C 
ATOM      2  C   UNL     1      -1.409  12.231  21.282  0.00  0.00    +0.000 A 
ATOM      3  C   UNL     1      -2.614  13.000  21.179  0.00  0.00    +0.000 A 
ATOM      4  N   UNL     1      -3.093  12.950  19.928  0.00  0.00    +0.000 NA
ATOM      5  N   UNL     1      -2.385  11.975  19.308  0.00  0.00    +0.000 N 
ATOM      6  C   UNL     1      -1.270  11.597  20.048  0.00  0.00    +0.000 A 
ENDROOT
BRANCH   3   7
ATOM      7  C   UNL     1      -3.283  13.819  22.202  0.00  0.00    +0.000 A 
ATOM      8  C   UNL     1      -4.373  13.307  22.922  0.00  0.00    +0.000 A 
ATOM      9  C   UNL     1      -5.045  14.094  23.865  0.00  0.00    +0.000 A 
ATOM     10  C   UNL     1      -4.624  15.399  24.090  0.00  0.00    +0.000 A 
ATOM     11  C   UNL     1      -3.527  15.917  23.416  0.00  0.00    +0.000 A 
ATOM     12  C   UNL     1      -2.844  15.120  22.493  0.00  0.00    +0.000 A 
BRANCH  10  13
ATOM     13  O   UNL     1      -5.261  16.213  24.978  0.00  0.00    +0.000 OA
ATOM     14  H   UNL     1      -4.611  16.528  25.628  0.00  0.00    +0.000 HD
ENDBRANCH  10  13
ENDBRANCH   3   7
BRANCH   5  15
ATOM     15  C   UNL     1      -2.844  11.472  18.054  0.00  0.00    +0.000 A 
ATOM     16  C   UNL     1      -1.993  10.678  17.271  0.00  0.00    +0.000 A 
ATOM     17  C   UNL     1      -2.455  10.135  16.067  0.00  0.00    +0.000 A 
ATOM     18  C   UNL     1      -3.749  10.414  15.638  0.00  0.00    +0.000 A 
ATOM     19  C   UNL     1      -4.592  11.220  16.392  0.00  0.00    +0.000 A 
ATOM     20  C   UNL     1      -4.140  11.755  17.598  0.00  0.00    +0.000 A 
BRANCH  18  21
ATOM     21  O   UNL     1      -4.235   9.918  14.465  0.00  0.00    +0.000 OA
ATOM     22  H   UNL     1      -5.151  10.226  14.354  0.00  0.00    +0.000 HD
ENDBRANCH  18  21
ENDBRANCH   5  15
BRANCH   6  23
ATOM     23  C   UNL     1      -0.170  10.744  19.557  0.00  0.00    +0.000 A 
ATOM     24  C   UNL     1       0.773  11.230  18.637  0.00  0.00    +0.000 A 
ATOM     25  C   UNL     1       1.746  10.390  18.092  0.00  0.00    +0.000 A 
ATOM     26  C   UNL     1       1.841   9.061  18.510  0.00  0.00    +0.000 A 
ATOM     27  C   UNL     1       0.948   8.586  19.473  0.00  0.00    +0.000 A 
ATOM     28  C   UNL     1      -0.056   9.414  19.979  0.00  0.00    +0.000 A 
BRANCH  26  29
ATOM     29  C   UNL     1       2.934   8.169  17.985  0.00  0.00    +0.000 C 
BRANCH  29  30
ATOM     30  C   UNL     1       2.512   6.698  17.957  0.00  0.00    +0.000 C 
BRANCH  30  31
ATOM     31  C   UNL     1       3.518   5.730  18.605  0.00  0.00    +0.000 C 
BRANCH  31  32
ATOM     32  N   UNL     1       2.921   4.524  19.210  0.00  0.00    +0.000 NA
ATOM     33  C   UNL     1       3.938   3.653  19.817  0.00  0.00    +0.000 C 
ATOM     34  C   UNL     1       3.312   2.403  20.435  0.00  0.00    +0.000 C 
ATOM     35  C   UNL     1       2.247   2.767  21.460  0.00  0.00    +0.000 C 
ATOM     36  C   UNL     1       1.225   3.708  20.837  0.00  0.00    +0.000 C 
ATOM     37  C   UNL     1       1.904   4.920  20.200  0.00  0.00    +0.000 C 
ENDBRANCH  31  32
ENDBRANCH  30  31
ENDBRANCH  29  30
ENDBRANCH  26  29
ENDBRANCH   6  23
TORSDOF 9
ENDMDL
MODEL 6
REMARK VINA RESULT:      -7.8      1.382      2.075
REMARK  Name = 
REMARK  10 active torsions:
REMARK  status: ('A' for Active; 'I' for Inactive)
REMARK    1  A    between atoms: C_1  and  C_2
REMARK    2  A    between atoms: C_3  and  C_4
REMARK    3  A    between atoms: C_7  and  O_8
REMARK    4  A    between atoms: N_12  and  C_13
REMARK    5  A    between atoms: C_16  and  O_17
REMARK    6  A    between atoms: C_20  and  C_21
REMARK    7  A    between atoms: C_24  and  C_25
REMARK    8  A    between atoms: C_25  and  C_26
REMARK    9  A    between atoms: C_26  and  C_27
REMARK   10  A    between atoms: C_27  and  N_28
REMARK                            x       y       z     vdW  Elec       q    Type
REMARK                         _______ _______ _______ _____ _____    ______ ____
ROOT
ATOM      1  C   UNL     1      -0.843  11.614  23.017  0.00  0.00    +0.000 C 
ATOM      2  C   UNL     1      -1.533  11.764  21.705  0.00  0.00    +0.000 A 
ATOM      3  C   UNL     1      -2.577  12.681  21.359  0.00  0.00    +0.000 A 
ATOM      4  N   UNL     1      -2.817  12.639  20.040  0.00  0.00    +0.000 NA
ATOM      5  N   UNL     1      -2.150  11.550  19.586  0.00  0.00    +0.000 N 
ATOM      6  C   UNL     1      -1.257  11.060  20.532  0.00  0.00    +0.000 A 
ENDROOT
BRANCH   3   7
ATOM      7  C   UNL     1      -3.304  13.629  22.219  0.00  0.00    +0.000 A 
ATOM      8  C   UNL     1      -2.909  14.974  22.286  0.00  0.00    +0.000 A 
ATOM      9  C   UNL     1      -3.565  15.874  23.135  0.00  0.00    +0.000 A 
ATOM     10  C   UNL     1      -4.621  15.427  23.921  0.00  0.00    +0.000 A 
ATOM     11  C   UNL     1      -5.051  14.110  23.846  0.00  0.00    +0.000 A 
ATOM     12  C   UNL     1      -4.410  13.221  22.979  0.00  0.00    +0.000 A 
BRANCH  10  13
ATOM     13  O   UNL     1      -5.273  16.257  24.781  0.00  0.00    +0.000 OA
ATOM     14  H   UNL     1      -5.349  15.812  25.641  0.00  0.00    +0.000 HD
ENDBRANCH  10  13
ENDBRANCH   3   7
BRANCH   5  15
ATOM     15  C   UNL     1      -2.433  11.056  18.278  0.00  0.00    +0.000 A 
ATOM     16  C   UNL     1      -3.058   9.809  18.127  0.00  0.00    +0.000 A 
ATOM     17  C   UNL     1      -3.389   9.342  16.850  0.00  0.00    +0.000 A 
ATOM     18  C   UNL     1      -3.068  10.109  15.733  0.00  0.00    +0.000 A 
ATOM     19  C   UNL     1      -2.427  11.333  15.869  0.00  0.00    +0.000 A 
ATOM     20  C   UNL     1      -2.104  11.807  17.140  0.00  0.00    +0.000 A 
BRANCH  18  21
ATOM     21  O   UNL     1      -3.360   9.687  14.470  0.00  0.00    +0.000 OA
ATOM     22  H   UNL     1      -3.862  10.387  14.019  0.00  0.00    +0.000 HD
ENDBRANCH  18  21
ENDBRANCH   5  15
BRANCH   6  23
ATOM     23  C   UNL     1      -0.215  10.047  20.278  0.00  0.00    +0.000 A 
ATOM     24  C   UNL     1       0.570  10.085  19.114  0.00  0.00    +0.000 A 
ATOM     25  C   UNL     1       1.478   9.064  18.824  0.00  0.00    +0.000 A 
ATOM     26  C   UNL     1       1.671   8.019  19.729  0.00  0.00    +0.000 A 
ATOM     27  C   UNL     1       0.941   8.006  20.919  0.00  0.00    +0.000 A 
ATOM     28  C   UNL     1      -0.001   9.000  21.183  0.00  0.00    +0.000 A 
BRANCH  26  29
ATOM     29  C   UNL     1       2.701   6.955  19.460  0.00  0.00    +0.000 C 
BRANCH  29  30
ATOM     30  C   UNL     1       3.212   6.999  18.017  0.00  0.00    +0.000 C 
BRANCH  30  31
ATOM     31  C   UNL     1       3.974   5.739  17.567  0.00  0.00    +0.000 C 
BRANCH  31  32
ATOM     32  N   UNL     1       3.511   4.479  18.179  0.00  0.00    +0.000 NA
ATOM     33  C   UNL     1       2.874   3.592  17.194  0.00  0.00    +0.000 C 
ATOM     34  C   UNL     1       2.391   2.293  17.837  0.00  0.00    +0.000 C 
ATOM     35  C   UNL     1       3.529   1.569  18.543  0.00  0.00    +0.000 C 
ATOM     36  C   UNL     1       4.215   2.508  19.524  0.00  0.00    +0.000 C 
ATOM     37  C   UNL     1       4.643   3.808  18.841  0.00  0.00    +0.000 C 
ENDBRANCH  31  32
ENDBRANCH  30  31
ENDBRANCH  29  30
ENDBRANCH  26  29
ENDBRANCH   6  23
TORSDOF 9
ENDMDL
MODEL 7
REMARK VINA RESULT:      -7.8      5.204      6.289
REMARK  Name = 
REMARK  10 active torsions:
REMARK  status: ('A' for Active; 'I' for Inactive)
REMARK    1  A    between atoms: C_1  and  C_2
REMARK    2  A    between atoms: C_3  and  C_4
REMARK    3  A    between atoms: C_7  and  O_8
REMARK    4  A    between atoms: N_12  and  C_13
REMARK    5  A    between atoms: C_16  and  O_17
REMARK    6  A    between atoms: C_20  and  C_21
REMARK    7  A    between atoms: C_24  and  C_25
REMARK    8  A    between atoms: C_25  and  C_26
REMARK    9  A    between atoms: C_26  and  C_27
REMARK   10  A    between atoms: C_27  and  N_28
REMARK                            x       y       z     vdW  Elec       q    Type
REMARK                         _______ _______ _______ _____ _____    ______ ____
ROOT
ATOM      1  C   UNL     1      -1.379  14.832  20.243  0.00  0.00    +0.000 C 
ATOM      2  C   UNL     1      -1.192  13.380  19.970  0.00  0.00    +0.000 A 
ATOM      3  C   UNL     1      -2.194  12.357  19.922  0.00  0.00    +0.000 A 
ATOM      4  N   UNL     1      -1.667  11.208  19.473  0.00  0.00    +0.000 NA
ATOM      5  N   UNL     1      -0.325  11.398  19.484  0.00  0.00    +0.000 N 
ATOM      6  C   UNL     1       0.006  12.737  19.658  0.00  0.00    +0.000 A 
ENDROOT
BRANCH   3   7
ATOM      7  C   UNL     1      -3.631  12.449  20.226  0.00  0.00    +0.000 A 
ATOM      8  C   UNL     1      -4.586  12.248  19.218  0.00  0.00    +0.000 A 
ATOM      9  C   UNL     1      -5.954  12.378  19.487  0.00  0.00    +0.000 A 
ATOM     10  C   UNL     1      -6.369  12.710  20.771  0.00  0.00    +0.000 A 
ATOM     11  C   UNL     1      -5.446  12.880  21.793  0.00  0.00    +0.000 A 
ATOM     12  C   UNL     1      -4.083  12.725  21.526  0.00  0.00    +0.000 A 
BRANCH  10  13
ATOM     13  O   UNL     1      -7.687  12.873  21.077  0.00  0.00    +0.000 OA
ATOM     14  H   UNL     1      -7.752  13.415  21.879  0.00  0.00    +0.000 HD
ENDBRANCH  10  13
ENDBRANCH   3   7
BRANCH   5  15
ATOM     15  C   UNL     1       0.538  10.270  19.340  0.00  0.00    +0.000 A 
ATOM     16  C   UNL     1       0.772   9.431  20.439  0.00  0.00    +0.000 A 
ATOM     17  C   UNL     1       1.572   8.292  20.291  0.00  0.00    +0.000 A 
ATOM     18  C   UNL     1       2.157   8.018  19.058  0.00  0.00    +0.000 A 
ATOM     19  C   UNL     1       1.953   8.856  17.970  0.00  0.00    +0.000 A 
ATOM     20  C   UNL     1       1.147   9.986  18.109  0.00  0.00    +0.000 A 
BRANCH  18  21
ATOM     21  O   UNL     1       2.954   6.928  18.873  0.00  0.00    +0.000 OA
ATOM     22  H   UNL     1       2.413   6.127  18.977  0.00  0.00    +0.000 HD
ENDBRANCH  18  21
ENDBRANCH   5  15
BRANCH   6  23
ATOM     23  C   UNL     1       1.353  13.313  19.479  0.00  0.00    +0.000 A 
ATOM     24  C   UNL     1       2.218  13.493  20.570  0.00  0.00    +0.000 A 
ATOM     25  C   UNL     1       3.447  14.139  20.415  0.00  0.00    +0.000 A 
ATOM     26  C   UNL     1       3.867  14.555  19.150  0.00  0.00    +0.000 A 
ATOM     27  C   UNL     1       3.040  14.324  18.049  0.00  0.00    +0.000 A 
ATOM     28  C   UNL     1       1.791  13.723  18.214  0.00  0.00    +0.000 A 
BRANCH  26  29
ATOM     29  C   UNL     1       5.222  15.184  18.962  0.00  0.00    +0.000 C 
BRANCH  29  30
ATOM     30  C   UNL     1       6.049  14.460  17.896  0.00  0.00    +0.000 C 
BRANCH  30  31
ATOM     31  C   UNL     1       7.517  14.915  17.805  0.00  0.00    +0.000 C 
BRANCH  31  32
ATOM     32  N   UNL     1       8.510  13.901  18.209  0.00  0.00    +0.000 NA
ATOM     33  C   UNL     1       8.279  12.611  17.543  0.00  0.00    +0.000 C 
ATOM     34  C   UNL     1       9.307  11.565  17.972  0.00  0.00    +0.000 C 
ATOM     35  C   UNL     1      10.727  12.047  17.713  0.00  0.00    +0.000 C 
ATOM     36  C   UNL     1      10.943  13.406  18.363  0.00  0.00    +0.000 C 
ATOM     37  C   UNL     1       9.867  14.404  17.933  0.00  0.00    +0.000 C 
ENDBRANCH  31  32
ENDBRANCH  30  31
ENDBRANCH  29  30
ENDBRANCH  26  29
ENDBRANCH   6  23
TORSDOF 9
ENDMDL
MODEL 8
REMARK VINA RESULT:      -7.8      1.593      2.707
REMARK  Name = 
REMARK  10 active torsions:
REMARK  status: ('A' for Active; 'I' for Inactive)
REMARK    1  A    between atoms: C_1  and  C_2
REMARK    2  A    between atoms: C_3  and  C_4
REMARK    3  A    between atoms: C_7  and  O_8
REMARK    4  A    between atoms: N_12  and  C_13
REMARK    5  A    between atoms: C_16  and  O_17
REMARK    6  A    between atoms: C_20  and  C_21
REMARK    7  A    between atoms: C_24  and  C_25
REMARK    8  A    between atoms: C_25  and  C_26
REMARK    9  A    between atoms: C_26  and  C_27
REMARK   10  A    between atoms: C_27  and  N_28
REMARK                            x       y       z     vdW  Elec       q    Type
REMARK                         _______ _______ _______ _____ _____    ______ ____
ROOT
ATOM      1  C   UNL     1       0.082  11.547  22.247  0.00  0.00    +0.000 C 
ATOM      2  C   UNL     1      -0.866  11.677  21.105  0.00  0.00    +0.000 A 
ATOM      3  C   UNL     1      -2.051  12.479  21.031  0.00  0.00    +0.000 A 
ATOM      4  N   UNL     1      -2.541  12.474  19.783  0.00  0.00    +0.000 NA
ATOM      5  N   UNL     1      -1.863  11.497  19.133  0.00  0.00    +0.000 N 
ATOM      6  C   UNL     1      -0.752  11.071  19.854  0.00  0.00    +0.000 A 
ENDROOT
BRANCH   3   7
ATOM      7  C   UNL     1      -2.691  13.289  22.080  0.00  0.00    +0.000 A 
ATOM      8  C   UNL     1      -2.459  14.671  22.151  0.00  0.00    +0.000 A 
ATOM      9  C   UNL     1      -3.027  15.444  23.172  0.00  0.00    +0.000 A 
ATOM     10  C   UNL     1      -3.831  14.831  24.126  0.00  0.00    +0.000 A 
ATOM     11  C   UNL     1      -4.103  13.472  24.056  0.00  0.00    +0.000 A 
ATOM     12  C   UNL     1      -3.554  12.709  23.022  0.00  0.00    +0.000 A 
BRANCH  10  13
ATOM     13  O   UNL     1      -4.386  15.534  25.152  0.00  0.00    +0.000 OA
ATOM     14  H   UNL     1      -4.318  15.002  25.962  0.00  0.00    +0.000 HD
ENDBRANCH  10  13
ENDBRANCH   3   7
BRANCH   5  15
ATOM     15  C   UNL     1      -2.344  11.038  17.870  0.00  0.00    +0.000 A 
ATOM     16  C   UNL     1      -1.754   9.916  17.269  0.00  0.00    +0.000 A 
ATOM     17  C   UNL     1      -2.256   9.426  16.058  0.00  0.00    +0.000 A 
ATOM     18  C   UNL     1      -3.322  10.076  15.442  0.00  0.00    +0.000 A 
ATOM     19  C   UNL     1      -3.898  11.202  16.016  0.00  0.00    +0.000 A 
ATOM     20  C   UNL     1      -3.407  11.689  17.228  0.00  0.00    +0.000 A 
BRANCH  18  21
ATOM     21  O   UNL     1      -3.834   9.642  14.256  0.00  0.00    +0.000 OA
ATOM     22  H   UNL     1      -4.129  10.415  13.745  0.00  0.00    +0.000 HD
ENDBRANCH  18  21
ENDBRANCH   5  15
BRANCH   6  23
ATOM     23  C   UNL     1       0.322  10.204  19.333  0.00  0.00    +0.000 A 
ATOM     24  C   UNL     1       1.094  10.587  18.225  0.00  0.00    +0.000 A 
ATOM     25  C   UNL     1       2.034   9.717  17.667  0.00  0.00    +0.000 A 
ATOM     26  C   UNL     1       2.273   8.472  18.252  0.00  0.00    +0.000 A 
ATOM     27  C   UNL     1       1.555   8.109  19.394  0.00  0.00    +0.000 A 
ATOM     28  C   UNL     1       0.580   8.959  19.919  0.00  0.00    +0.000 A 
BRANCH  26  29
ATOM     29  C   UNL     1       3.337   7.560  17.704  0.00  0.00    +0.000 C 
BRANCH  29  30
ATOM     30  C   UNL     1       3.055   6.089  18.022  0.00  0.00    +0.000 C 
BRANCH  30  31
ATOM     31  C   UNL     1       3.915   5.501  19.155  0.00  0.00    +0.000 C 
BRANCH  31  32
ATOM     32  N   UNL     1       3.359   4.295  19.797  0.00  0.00    +0.000 NA
ATOM     33  C   UNL     1       2.520   4.629  20.958  0.00  0.00    +0.000 C 
ATOM     34  C   UNL     1       1.954   3.374  21.622  0.00  0.00    +0.000 C 
ATOM     35  C   UNL     1       1.171   2.527  20.628  0.00  0.00    +0.000 C 
ATOM     36  C   UNL     1       2.029   2.229  19.407  0.00  0.00    +0.000 C 
ATOM     37  C   UNL     1       2.603   3.512  18.805  0.00  0.00    +0.000 C 
ENDBRANCH  31  32
ENDBRANCH  30  31
ENDBRANCH  29  30
ENDBRANCH  26  29
ENDBRANCH   6  23
TORSDOF 9
ENDMDL
MODEL 9
REMARK VINA RESULT:      -7.8      3.342      4.461
REMARK  Name = 
REMARK  10 active torsions:
REMARK  status: ('A' for Active; 'I' for Inactive)
REMARK    1  A    between atoms: C_1  and  C_2
REMARK    2  A    between atoms: C_3  and  C_4
REMARK    3  A    between atoms: C_7  and  O_8
REMARK    4  A    between atoms: N_12  and  C_13
REMARK    5  A    between atoms: C_16  and  O_17
REMARK    6  A    between atoms: C_20  and  C_21
REMARK    7  A    between atoms: C_24  and  C_25
REMARK    8  A    between atoms: C_25  and  C_26
REMARK    9  A    between atoms: C_26  and  C_27
REMARK   10  A    between atoms: C_27  and  N_28
REMARK                            x       y       z     vdW  Elec       q    Type
REMARK                         _______ _______ _______ _____ _____    ______ ____
ROOT
ATOM      1  C   UNL     1      -2.005  11.455  23.119  0.00  0.00    +0.000 C 
ATOM      2  C   UNL     1      -1.088  12.464  22.520  0.00  0.00    +0.000 A 
ATOM      3  C   UNL     1      -1.104  13.886  22.699  0.00  0.00    +0.000 A 
ATOM      4  N   UNL     1      -0.015  14.438  22.143  0.00  0.00    +0.000 NA
ATOM      5  N   UNL     1       0.549  13.456  21.400  0.00  0.00    +0.000 N 
ATOM      6  C   UNL     1       0.008  12.209  21.695  0.00  0.00    +0.000 A 
ENDROOT
BRANCH   3   7
ATOM      7  C   UNL     1      -2.075  14.720  23.424  0.00  0.00    +0.000 A 
ATOM      8  C   UNL     1      -1.901  14.990  24.789  0.00  0.00    +0.000 A 
ATOM      9  C   UNL     1      -2.843  15.745  25.499  0.00  0.00    +0.000 A 
ATOM     10  C   UNL     1      -3.966  16.231  24.839  0.00  0.00    +0.000 A 
ATOM     11  C   UNL     1      -4.143  16.007  23.481  0.00  0.00    +0.000 A 
ATOM     12  C   UNL     1      -3.188  15.274  22.772  0.00  0.00    +0.000 A 
BRANCH  10  13
ATOM     13  O   UNL     1      -4.924  16.948  25.491  0.00  0.00    +0.000 OA
ATOM     14  H   UNL     1      -4.795  16.836  26.447  0.00  0.00    +0.000 HD
ENDBRANCH  10  13
ENDBRANCH   3   7
BRANCH   5  15
ATOM     15  C   UNL     1       1.561  13.794  20.452  0.00  0.00    +0.000 A 
ATOM     16  C   UNL     1       2.875  14.017  20.889  0.00  0.00    +0.000 A 
ATOM     17  C   UNL     1       3.883  14.295  19.959  0.00  0.00    +0.000 A 
ATOM     18  C   UNL     1       3.567  14.379  18.606  0.00  0.00    +0.000 A 
ATOM     19  C   UNL     1       2.264  14.185  18.164  0.00  0.00    +0.000 A 
ATOM     20  C   UNL     1       1.257  13.898  19.086  0.00  0.00    +0.000 A 
BRANCH  18  21
ATOM     21  O   UNL     1       4.514  14.660  17.667  0.00  0.00    +0.000 OA
ATOM     22  H   UNL     1       4.392  14.058  16.913  0.00  0.00    +0.000 HD
ENDBRANCH  18  21
ENDBRANCH   5  15
BRANCH   6  23
ATOM     23  C   UNL     1       0.556  10.914  21.248  0.00  0.00    +0.000 A 
ATOM     24  C   UNL     1       0.653  10.596  19.884  0.00  0.00    +0.000 A 
ATOM     25  C   UNL     1       1.068   9.329  19.468  0.00  0.00    +0.000 A 
ATOM     26  C   UNL     1       1.463   8.375  20.408  0.00  0.00    +0.000 A 
ATOM     27  C   UNL     1       1.430   8.704  21.765  0.00  0.00    +0.000 A 
ATOM     28  C   UNL     1       0.967   9.953  22.180  0.00  0.00    +0.000 A 
BRANCH  26  29
ATOM     29  C   UNL     1       1.982   7.034  19.965  0.00  0.00    +0.000 C 
BRANCH  29  30
ATOM     30  C   UNL     1       2.740   7.119  18.638  0.00  0.00    +0.000 C 
BRANCH  30  31
ATOM     31  C   UNL     1       3.033   5.760  17.977  0.00  0.00    +0.000 C 
BRANCH  31  32
ATOM     32  N   UNL     1       2.563   4.585  18.736  0.00  0.00    +0.000 NA
ATOM     33  C   UNL     1       1.488   3.870  18.030  0.00  0.00    +0.000 C 
ATOM     34  C   UNL     1       1.003   2.659  18.825  0.00  0.00    +0.000 C 
ATOM     35  C   UNL     1       2.150   1.710  19.143  0.00  0.00    +0.000 C 
ATOM     36  C   UNL     1       3.279   2.467  19.828  0.00  0.00    +0.000 C 
ATOM     37  C   UNL     1       3.700   3.690  19.013  0.00  0.00    +0.000 C 
ENDBRANCH  31  32
ENDBRANCH  30  31
ENDBRANCH  29  30
ENDBRANCH  26  29
ENDBRANCH   6  23
TORSDOF 9
ENDMDL
