MODEL 1
REMARK VINA RESULT:      -8.1      0.000      0.000
REMARK  Name = 
REMARK  8 active torsions:
REMARK  status: ('A' for Active; 'I' for Inactive)
REMARK    1  A    between atoms: C_1  and  C_2
REMARK    2  A    between atoms: C_2  and  C_3
REMARK    3  A    between atoms: C_2  and  C_4
REMARK    4  A    between atoms: C_7  and  S_8
REMARK    5  A    between atoms: S_8  and  N_11
REMARK    6  A    between atoms: C_13  and  C_14
REMARK    7  A    between atoms: C_14  and  N_15
REMARK    8  A    between atoms: N_18  and  C_19
REMARK                            x       y       z     vdW  Elec       q    Type
REMARK                         _______ _______ _______ _____ _____    ______ ____
ROOT
ATOM      1  N   UNL     1      -0.997  11.539  18.709  0.00  0.00    +0.000 N 
ATOM      2  C   UNL     1      -1.670  12.647  19.194  0.00  0.00    +0.000 A 
ATOM      3  C   UNL     1      -2.990  12.265  19.235  0.00  0.00    +0.000 A 
ATOM      4  C   UNL     1      -3.105  11.607  17.994  0.00  0.00    +0.000 A 
ATOM      5  C   UNL     1      -4.152  11.399  17.064  0.00  0.00    +0.000 A 
ATOM      6 CL   UNL     1      -5.495  12.452  17.163  0.00  0.00    +0.000 Cl
ATOM      7  C   UNL     1      -4.029  10.484  16.046  0.00  0.00    +0.000 A 
ATOM      8  C   UNL     1      -2.889   9.692  15.996  0.00  0.00    +0.000 A 
ATOM      9  C   UNL     1      -1.806   9.868  16.891  0.00  0.00    +0.000 A 
ATOM     10  C   UNL     1      -1.874  10.903  17.833  0.00  0.00    +0.000 A 
ENDROOT
BRANCH   1  11
ATOM     11  S   UNL     1       0.504  11.169  19.475  0.00  0.00    +0.000 S 
ATOM     12  O   UNL     1       0.153  11.078  20.889  0.00  0.00    +0.000 OA
ATOM     13  O   UNL     1       1.433  12.194  18.964  0.00  0.00    +0.000 OA
BRANCH  11  17
ATOM     14  C   UNL     1       2.545   7.110  18.646  0.00  0.00    +0.000 A 
ATOM     15  C   UNL     1       2.527   8.121  17.671  0.00  0.00    +0.000 A 
ATOM     16  C   UNL     1       1.915   9.353  17.864  0.00  0.00    +0.000 A 
ATOM     17  C   UNL     1       1.269   9.598  19.075  0.00  0.00    +0.000 A 
ATOM     18  C   UNL     1       1.365   8.652  20.098  0.00  0.00    +0.000 A 
ATOM     19  C   UNL     1       2.017   7.421  19.907  0.00  0.00    +0.000 A 
BRANCH  14  21
ATOM     20  C   UNL     1       2.198   4.659  17.977  0.00  0.00    +0.000 C 
ATOM     21  C   UNL     1       3.197   5.764  18.319  0.00  0.00    +0.000 C 
ATOM     22  C   UNL     1       4.278   5.822  17.237  0.00  0.00    +0.000 C 
ENDBRANCH  14  21
ENDBRANCH  11  17
ENDBRANCH   1  11
BRANCH   3  23
ATOM     23  C   UNL     1      -4.055  12.304  20.291  0.00  0.00    +0.000 C 
BRANCH  23  24
ATOM     24  N   UNL     1      -3.826  13.215  21.405  0.00  0.00    +0.000 NA
ATOM     25  C   UNL     1      -2.932  12.517  22.376  0.00  0.00    +0.000 C 
ATOM     26  C   UNL     1      -2.804  13.212  23.748  0.00  0.00    +0.000 C 
ATOM     27  N   UNL     1      -4.096  13.531  24.386  0.00  0.00    +0.000 NA
ATOM     28  C   UNL     1      -4.793  12.325  24.833  0.00  0.00    +0.000 C 
ATOM     29  C   UNL     1      -4.907  14.294  23.417  0.00  0.00    +0.000 C 
ATOM     30  C   UNL     1      -5.085  13.611  22.041  0.00  0.00    +0.000 C 
ENDBRANCH  23  24
ENDBRANCH   3  23
TORSDOF 5
ENDMDL
MODEL 2
REMARK VINA RESULT:      -7.9      1.066      1.488
REMARK  Name = 
REMARK  8 active torsions:
REMARK  status: ('A' for Active; 'I' for Inactive)
REMARK    1  A    between atoms: C_1  and  C_2
REMARK    2  A    between atoms: C_2  and  C_3
REMARK    3  A    between atoms: C_2  and  C_4
REMARK    4  A    between atoms: C_7  and  S_8
REMARK    5  A    between atoms: S_8  and  N_11
REMARK    6  A    between atoms: C_13  and  C_14
REMARK    7  A    between atoms: C_14  and  N_15
REMARK    8  A    between atoms: N_18  and  C_19
REMARK                            x       y       z     vdW  Elec       q    Type
REMARK                         _______ _______ _______ _____ _____    ______ ____
ROOT
ATOM      1  N   UNL     1      -1.172  11.720  19.110  0.00  0.00    +0.000 N 
ATOM      2  C   UNL     1      -1.973  12.774  19.514  0.00  0.00    +0.000 A 
ATOM      3  C   UNL     1      -3.259  12.301  19.401  0.00  0.00    +0.000 A 
ATOM      4  C   UNL     1      -3.182  11.647  18.154  0.00  0.00    +0.000 A 
ATOM      5  C   UNL     1      -4.097  11.375  17.109  0.00  0.00    +0.000 A 
ATOM      6 CL   UNL     1      -5.513  12.330  17.051  0.00  0.00    +0.000 Cl
ATOM      7  C   UNL     1      -3.793  10.479  16.111  0.00  0.00    +0.000 A 
ATOM      8  C   UNL     1      -2.601   9.770  16.193  0.00  0.00    +0.000 A 
ATOM      9  C   UNL     1      -1.645  10.013  17.209  0.00  0.00    +0.000 A 
ATOM     10  C   UNL     1      -1.894  11.032  18.137  0.00  0.00    +0.000 A 
ENDROOT
BRANCH   1  11
ATOM     11  S   UNL     1       0.253  11.449  20.045  0.00  0.00    +0.000 S 
ATOM     12  O   UNL     1      -0.210  11.596  21.422  0.00  0.00    +0.000 OA
ATOM     13  O   UNL     1       1.252  12.359  19.454  0.00  0.00    +0.000 OA
BRANCH  11  17
ATOM     14  C   UNL     1       2.108   7.240  19.632  0.00  0.00    +0.000 A 
ATOM     15  C   UNL     1       1.451   7.627  20.812  0.00  0.00    +0.000 A 
ATOM     16  C   UNL     1       0.889   8.884  20.993  0.00  0.00    +0.000 A 
ATOM     17  C   UNL     1       0.995   9.819  19.965  0.00  0.00    +0.000 A 
ATOM     18  C   UNL     1       1.548   9.426  18.744  0.00  0.00    +0.000 A 
ATOM     19  C   UNL     1       2.083   8.139  18.557  0.00  0.00    +0.000 A 
BRANCH  14  21
ATOM     20  C   UNL     1       2.239   4.873  20.609  0.00  0.00    +0.000 C 
ATOM     21  C   UNL     1       2.744   5.850  19.548  0.00  0.00    +0.000 C 
ATOM     22  C   UNL     1       2.661   5.190  18.170  0.00  0.00    +0.000 C 
ENDBRANCH  14  21
ENDBRANCH  11  17
ENDBRANCH   1  11
BRANCH   3  23
ATOM     23  C   UNL     1      -4.439  12.256  20.325  0.00  0.00    +0.000 C 
BRANCH  23  24
ATOM     24  N   UNL     1      -4.557  13.356  21.274  0.00  0.00    +0.000 NA
ATOM     25  C   UNL     1      -4.286  12.803  22.634  0.00  0.00    +0.000 C 
ATOM     26  C   UNL     1      -4.640  13.754  23.797  0.00  0.00    +0.000 C 
ATOM     27  N   UNL     1      -6.010  14.301  23.735  0.00  0.00    +0.000 NA
ATOM     28  C   UNL     1      -7.016  13.274  23.999  0.00  0.00    +0.000 C 
ATOM     29  C   UNL     1      -6.197  14.910  22.404  0.00  0.00    +0.000 C 
ATOM     30  C   UNL     1      -5.885  13.975  21.213  0.00  0.00    +0.000 C 
ENDBRANCH  23  24
ENDBRANCH   3  23
TORSDOF 5
ENDMDL
MODEL 3
REMARK VINA RESULT:      -7.9      0.740      1.345
REMARK  Name = 
REMARK  8 active torsions:
REMARK  status: ('A' for Active; 'I' for Inactive)
REMARK    1  A    between atoms: C_1  and  C_2
REMARK    2  A    between atoms: C_2  and  C_3
REMARK    3  A    between atoms: C_2  and  C_4
REMARK    4  A    between atoms: C_7  and  S_8
REMARK    5  A    between atoms: S_8  and  N_11
REMARK    6  A    between atoms: C_13  and  C_14
REMARK    7  A    between atoms: C_14  and  N_15
REMARK    8  A    between atoms: N_18  and  C_19
REMARK                            x       y       z     vdW  Elec       q    Type
REMARK                         _______ _______ _______ _____ _____    ______ ____
ROOT
ATOM      1  N   UNL     1      -0.872  11.658  18.781  0.00  0.00    +0.000 N 
ATOM      2  C   UNL     1      -1.583  12.770  19.198  0.00  0.00    +0.000 A 
ATOM      3  C   UNL     1      -2.891  12.348  19.254  0.00  0.00    +0.000 A 
ATOM      4  C   UNL     1      -2.975  11.616  18.052  0.00  0.00    +0.000 A 
ATOM      5  C   UNL     1      -4.008  11.321  17.130  0.00  0.00    +0.000 A 
ATOM      6 CL   UNL     1      -5.385  12.334  17.161  0.00  0.00    +0.000 Cl
ATOM      7  C   UNL     1      -3.848  10.354  16.167  0.00  0.00    +0.000 A 
ATOM      8  C   UNL     1      -2.682   9.598  16.168  0.00  0.00    +0.000 A 
ATOM      9  C   UNL     1      -1.612   9.861  17.057  0.00  0.00    +0.000 A 
ATOM     10  C   UNL     1      -1.721  10.945  17.939  0.00  0.00    +0.000 A 
ENDROOT
BRANCH   1  11
ATOM     11  S   UNL     1       0.636  11.382  19.576  0.00  0.00    +0.000 S 
ATOM     12  O   UNL     1       0.362  11.747  20.962  0.00  0.00    +0.000 OA
ATOM     13  O   UNL     1       1.617  12.113  18.753  0.00  0.00    +0.000 OA
BRANCH  11  17
ATOM     14  C   UNL     1       2.129   7.012  19.533  0.00  0.00    +0.000 A 
ATOM     15  C   UNL     1       1.513   7.553  20.673  0.00  0.00    +0.000 A 
ATOM     16  C   UNL     1       1.060   8.864  20.744  0.00  0.00    +0.000 A 
ATOM     17  C   UNL     1       1.238   9.695  19.638  0.00  0.00    +0.000 A 
ATOM     18  C   UNL     1       1.750   9.152  18.457  0.00  0.00    +0.000 A 
ATOM     19  C   UNL     1       2.174   7.813  18.384  0.00  0.00    +0.000 A 
BRANCH  14  21
ATOM     20  C   UNL     1       4.162   5.453  19.410  0.00  0.00    +0.000 C 
ATOM     21  C   UNL     1       2.646   5.572  19.571  0.00  0.00    +0.000 C 
ATOM     22  C   UNL     1       2.203   4.764  20.793  0.00  0.00    +0.000 C 
ENDBRANCH  14  21
ENDBRANCH  11  17
ENDBRANCH   1  11
BRANCH   3  23
ATOM     23  C   UNL     1      -3.964  12.412  20.300  0.00  0.00    +0.000 C 
BRANCH  23  24
ATOM     24  N   UNL     1      -3.716  13.306  21.424  0.00  0.00    +0.000 NA
ATOM     25  C   UNL     1      -2.809  12.592  22.370  0.00  0.00    +0.000 C 
ATOM     26  C   UNL     1      -2.659  13.265  23.751  0.00  0.00    +0.000 C 
ATOM     27  N   UNL     1      -3.940  13.576  24.414  0.00  0.00    +0.000 NA
ATOM     28  C   UNL     1      -4.631  12.365  24.853  0.00  0.00    +0.000 C 
ATOM     29  C   UNL     1      -4.765  14.355  23.469  0.00  0.00    +0.000 C 
ATOM     30  C   UNL     1      -4.965  13.693  22.086  0.00  0.00    +0.000 C 
ENDBRANCH  23  24
ENDBRANCH   3  23
TORSDOF 5
ENDMDL
MODEL 4
REMARK VINA RESULT:      -7.8      0.840      1.139
REMARK  Name = 
REMARK  8 active torsions:
REMARK  status: ('A' for Active; 'I' for Inactive)
REMARK    1  A    between atoms: C_1  and  C_2
REMARK    2  A    between atoms: C_2  and  C_3
REMARK    3  A    between atoms: C_2  and  C_4
REMARK    4  A    between atoms: C_7  and  S_8
REMARK    5  A    between atoms: S_8  and  N_11
REMARK    6  A    between atoms: C_13  and  C_14
REMARK    7  A    between atoms: C_14  and  N_15
REMARK    8  A    between atoms: N_18  and  C_19
REMARK                            x       y       z     vdW  Elec       q    Type
REMARK                         _______ _______ _______ _____ _____    ______ ____
ROOT
ATOM      1  N   UNL     1      -0.830  11.633  18.860  0.00  0.00    +0.000 N 
ATOM      2  C   UNL     1      -1.430  12.761  19.391  0.00  0.00    +0.000 A 
ATOM      3  C   UNL     1      -2.748  12.409  19.563  0.00  0.00    +0.000 A 
ATOM      4  C   UNL     1      -2.994  11.738  18.347  0.00  0.00    +0.000 A 
ATOM      5  C   UNL     1      -4.129  11.542  17.525  0.00  0.00    +0.000 A 
ATOM      6 CL   UNL     1      -5.435  12.625  17.736  0.00  0.00    +0.000 Cl
ATOM      7  C   UNL     1      -4.123  10.612  16.513  0.00  0.00    +0.000 A 
ATOM      8  C   UNL     1      -3.009   9.796  16.365  0.00  0.00    +0.000 A 
ATOM      9  C   UNL     1      -1.842   9.958  17.150  0.00  0.00    +0.000 A 
ATOM     10  C   UNL     1      -1.799  11.006  18.081  0.00  0.00    +0.000 A 
ENDROOT
BRANCH   1  11
ATOM     11  S   UNL     1       0.730  11.239  19.485  0.00  0.00    +0.000 S 
ATOM     12  O   UNL     1       0.536  11.272  20.932  0.00  0.00    +0.000 OA
ATOM     13  O   UNL     1       1.641  12.171  18.796  0.00  0.00    +0.000 OA
BRANCH  11  17
ATOM     14  C   UNL     1       2.460   7.018  18.770  0.00  0.00    +0.000 A 
ATOM     15  C   UNL     1       2.474   7.985  17.752  0.00  0.00    +0.000 A 
ATOM     16  C   UNL     1       1.954   9.264  17.910  0.00  0.00    +0.000 A 
ATOM     17  C   UNL     1       1.372   9.604  19.130  0.00  0.00    +0.000 A 
ATOM     18  C   UNL     1       1.442   8.697  20.191  0.00  0.00    +0.000 A 
ATOM     19  C   UNL     1       2.001   7.417  20.033  0.00  0.00    +0.000 A 
BRANCH  14  21
ATOM     20  C   UNL     1       3.626   4.932  19.700  0.00  0.00    +0.000 C 
ATOM     21  C   UNL     1       3.008   5.617  18.482  0.00  0.00    +0.000 C 
ATOM     22  C   UNL     1       2.012   4.665  17.816  0.00  0.00    +0.000 C 
ENDBRANCH  14  21
ENDBRANCH  11  17
ENDBRANCH   1  11
BRANCH   3  23
ATOM     23  C   UNL     1      -3.706  12.483  20.715  0.00  0.00    +0.000 C 
BRANCH  23  24
ATOM     24  N   UNL     1      -3.345  13.391  21.797  0.00  0.00    +0.000 NA
ATOM     25  C   UNL     1      -3.968  12.864  23.047  0.00  0.00    +0.000 C 
ATOM     26  C   UNL     1      -3.933  13.838  24.244  0.00  0.00    +0.000 C 
ATOM     27  N   UNL     1      -4.459  15.184  23.942  0.00  0.00    +0.000 NA
ATOM     28  C   UNL     1      -5.907  15.166  23.737  0.00  0.00    +0.000 C 
ATOM     29  C   UNL     1      -3.752  15.694  22.751  0.00  0.00    +0.000 C 
ATOM     30  C   UNL     1      -3.796  14.758  21.521  0.00  0.00    +0.000 C 
ENDBRANCH  23  24
ENDBRANCH   3  23
TORSDOF 5
ENDMDL
MODEL 5
REMARK VINA RESULT:      -7.8      7.677     10.121
REMARK  Name = 
REMARK  8 active torsions:
REMARK  status: ('A' for Active; 'I' for Inactive)
REMARK    1  A    between atoms: C_1  and  C_2
REMARK    2  A    between atoms: C_2  and  C_3
REMARK    3  A    between atoms: C_2  and  C_4
REMARK    4  A    between atoms: C_7  and  S_8
REMARK    5  A    between atoms: S_8  and  N_11
REMARK    6  A    between atoms: C_13  and  C_14
REMARK    7  A    between atoms: C_14  and  N_15
REMARK    8  A    between atoms: N_18  and  C_19
REMARK                            x       y       z     vdW  Elec       q    Type
REMARK                         _______ _______ _______ _____ _____    ______ ____
ROOT
ATOM      1  N   UNL     1       6.024   5.721  18.055  0.00  0.00    +0.000 N 
ATOM      2  C   UNL     1       6.286   5.177  19.300  0.00  0.00    +0.000 A 
ATOM      3  C   UNL     1       5.096   4.612  19.694  0.00  0.00    +0.000 A 
ATOM      4  C   UNL     1       4.195   5.631  19.322  0.00  0.00    +0.000 A 
ATOM      5  C   UNL     1       2.943   6.084  19.802  0.00  0.00    +0.000 A 
ATOM      6 CL   UNL     1       2.523   5.647  21.401  0.00  0.00    +0.000 Cl
ATOM      7  C   UNL     1       2.167   6.948  19.066  0.00  0.00    +0.000 A 
ATOM      8  C   UNL     1       2.591   7.302  17.791  0.00  0.00    +0.000 A 
ATOM      9  C   UNL     1       3.839   6.889  17.268  0.00  0.00    +0.000 A 
ATOM     10  C   UNL     1       4.692   6.130  18.081  0.00  0.00    +0.000 A 
ENDROOT
BRANCH   1  11
ATOM     11  S   UNL     1       7.250   5.507  16.860  0.00  0.00    +0.000 S 
ATOM     12  O   UNL     1       8.116   4.484  17.440  0.00  0.00    +0.000 OA
ATOM     13  O   UNL     1       7.730   6.874  16.585  0.00  0.00    +0.000 OA
BRANCH  11  17
ATOM     14  C   UNL     1       5.873   3.657  12.859  0.00  0.00    +0.000 A 
ATOM     15  C   UNL     1       7.071   4.384  12.943  0.00  0.00    +0.000 A 
ATOM     16  C   UNL     1       7.523   4.973  14.117  0.00  0.00    +0.000 A 
ATOM     17  C   UNL     1       6.746   4.855  15.268  0.00  0.00    +0.000 A 
ATOM     18  C   UNL     1       5.606   4.048  15.237  0.00  0.00    +0.000 A 
ATOM     19  C   UNL     1       5.174   3.426  14.052  0.00  0.00    +0.000 A 
BRANCH  14  21
ATOM     20  C   UNL     1       5.833   1.634  11.283  0.00  0.00    +0.000 C 
ATOM     21  C   UNL     1       5.431   3.092  11.506  0.00  0.00    +0.000 C 
ATOM     22  C   UNL     1       3.941   3.259  11.198  0.00  0.00    +0.000 C 
ENDBRANCH  14  21
ENDBRANCH  11  17
ENDBRANCH   1  11
BRANCH   3  23
ATOM     23  C   UNL     1       4.702   3.259  20.205  0.00  0.00    +0.000 C 
BRANCH  23  24
ATOM     24  N   UNL     1       3.777   2.499  19.373  0.00  0.00    +0.000 NA
ATOM     25  C   UNL     1       3.910   3.011  17.977  0.00  0.00    +0.000 C 
ATOM     26  C   UNL     1       2.813   2.526  17.006  0.00  0.00    +0.000 C 
ATOM     27  N   UNL     1       1.436   2.737  17.496  0.00  0.00    +0.000 NA
ATOM     28  C   UNL     1       1.079   4.155  17.513  0.00  0.00    +0.000 C 
ATOM     29  C   UNL     1       1.334   2.139  18.841  0.00  0.00    +0.000 C 
ATOM     30  C   UNL     1       2.397   2.629  19.851  0.00  0.00    +0.000 C 
ENDBRANCH  23  24
ENDBRANCH   3  23
TORSDOF 5
ENDMDL
MODEL 6
REMARK VINA RESULT:      -7.8      0.755      1.420
REMARK  Name = 
REMARK  8 active torsions:
REMARK  status: ('A' for Active; 'I' for Inactive)
REMARK    1  A    between atoms: C_1  and  C_2
REMARK    2  A    between atoms: C_2  and  C_3
REMARK    3  A    between atoms: C_2  and  C_4
REMARK    4  A    between atoms: C_7  and  S_8
REMARK    5  A    between atoms: S_8  and  N_11
REMARK    6  A    between atoms: C_13  and  C_14
REMARK    7  A    between atoms: C_14  and  N_15
REMARK    8  A    between atoms: N_18  and  C_19
REMARK                            x       y       z     vdW  Elec       q    Type
REMARK                         _______ _______ _______ _____ _____    ______ ____
ROOT
ATOM      1  N   UNL     1      -0.866  11.700  19.064  0.00  0.00    +0.000 N 
ATOM      2  C   UNL     1      -1.480  12.860  19.504  0.00  0.00    +0.000 A 
ATOM      3  C   UNL     1      -2.803  12.518  19.661  0.00  0.00    +0.000 A 
ATOM      4  C   UNL     1      -3.015  11.771  18.484  0.00  0.00    +0.000 A 
ATOM      5  C   UNL     1      -4.126  11.521  17.644  0.00  0.00    +0.000 A 
ATOM      6 CL   UNL     1      -5.436  12.615  17.747  0.00  0.00    +0.000 Cl
ATOM      7  C   UNL     1      -4.092  10.528  16.694  0.00  0.00    +0.000 A 
ATOM      8  C   UNL     1      -2.975   9.704  16.631  0.00  0.00    +0.000 A 
ATOM      9  C   UNL     1      -1.831   9.919  17.437  0.00  0.00    +0.000 A 
ATOM     10  C   UNL     1      -1.813  11.024  18.299  0.00  0.00    +0.000 A 
ENDROOT
BRANCH   1  11
ATOM     11  S   UNL     1       0.675  11.349  19.757  0.00  0.00    +0.000 S 
ATOM     12  O   UNL     1       0.410  11.343  21.193  0.00  0.00    +0.000 OA
ATOM     13  O   UNL     1       1.584  12.328  19.133  0.00  0.00    +0.000 OA
BRANCH  11  17
ATOM     14  C   UNL     1       2.446   7.232  18.642  0.00  0.00    +0.000 A 
ATOM     15  C   UNL     1       1.938   7.475  19.929  0.00  0.00    +0.000 A 
ATOM     16  C   UNL     1       1.408   8.698  20.320  0.00  0.00    +0.000 A 
ATOM     17  C   UNL     1       1.393   9.746  19.401  0.00  0.00    +0.000 A 
ATOM     18  C   UNL     1       1.793   9.500  18.085  0.00  0.00    +0.000 A 
ATOM     19  C   UNL     1       2.295   8.248  17.688  0.00  0.00    +0.000 A 
BRANCH  14  21
ATOM     20  C   UNL     1       2.038   4.811  17.901  0.00  0.00    +0.000 C 
ATOM     21  C   UNL     1       3.060   5.867  18.323  0.00  0.00    +0.000 C 
ATOM     22  C   UNL     1       4.202   5.901  17.304  0.00  0.00    +0.000 C 
ENDBRANCH  14  21
ENDBRANCH  11  17
ENDBRANCH   1  11
BRANCH   3  23
ATOM     23  C   UNL     1      -3.793  12.666  20.777  0.00  0.00    +0.000 C 
BRANCH  23  24
ATOM     24  N   UNL     1      -3.243  12.705  22.126  0.00  0.00    +0.000 NA
ATOM     25  C   UNL     1      -4.393  12.685  23.077  0.00  0.00    +0.000 C 
ATOM     26  C   UNL     1      -4.024  13.004  24.542  0.00  0.00    +0.000 C 
ATOM     27  N   UNL     1      -3.247  14.247  24.711  0.00  0.00    +0.000 NA
ATOM     28  C   UNL     1      -4.058  15.434  24.444  0.00  0.00    +0.000 C 
ATOM     29  C   UNL     1      -2.077  14.180  23.814  0.00  0.00    +0.000 C 
ATOM     30  C   UNL     1      -2.413  13.896  22.331  0.00  0.00    +0.000 C 
ENDBRANCH  23  24
ENDBRANCH   3  23
TORSDOF 5
ENDMDL
MODEL 7
REMARK VINA RESULT:      -7.7      0.952      1.394
REMARK  Name = 
REMARK  8 active torsions:
REMARK  status: ('A' for Active; 'I' for Inactive)
REMARK    1  A    between atoms: C_1  and  C_2
REMARK    2  A    between atoms: C_2  and  C_3
REMARK    3  A    between atoms: C_2  and  C_4
REMARK    4  A    between atoms: C_7  and  S_8
REMARK    5  A    between atoms: S_8  and  N_11
REMARK    6  A    between atoms: C_13  and  C_14
REMARK    7  A    between atoms: C_14  and  N_15
REMARK    8  A    between atoms: N_18  and  C_19
REMARK                            x       y       z     vdW  Elec       q    Type
REMARK                         _______ _______ _______ _____ _____    ______ ____
ROOT
ATOM      1  N   UNL     1      -1.425  11.469  19.077  0.00  0.00    +0.000 N 
ATOM      2  C   UNL     1      -2.166  12.532  19.561  0.00  0.00    +0.000 A 
ATOM      3  C   UNL     1      -3.477  12.158  19.378  0.00  0.00    +0.000 A 
ATOM      4  C   UNL     1      -3.409  11.618  18.077  0.00  0.00    +0.000 A 
ATOM      5  C   UNL     1      -4.311  11.505  16.993  0.00  0.00    +0.000 A 
ATOM      6 CL   UNL     1      -5.661  12.555  16.996  0.00  0.00    +0.000 Cl
ATOM      7  C   UNL     1      -4.039  10.687  15.922  0.00  0.00    +0.000 A 
ATOM      8  C   UNL     1      -2.899   9.895  15.962  0.00  0.00    +0.000 A 
ATOM      9  C   UNL     1      -1.956   9.979  17.015  0.00  0.00    +0.000 A 
ATOM     10  C   UNL     1      -2.164  10.923  18.030  0.00  0.00    +0.000 A 
ENDROOT
BRANCH   1  11
ATOM     11  S   UNL     1      -0.046  11.018  20.012  0.00  0.00    +0.000 S 
ATOM     12  O   UNL     1      -0.618  10.635  21.300  0.00  0.00    +0.000 OA
ATOM     13  O   UNL     1       0.875  12.161  19.873  0.00  0.00    +0.000 OA
BRANCH  11  17
ATOM     14  C   UNL     1       2.455   7.330  18.798  0.00  0.00    +0.000 A 
ATOM     15  C   UNL     1       2.205   8.365  17.883  0.00  0.00    +0.000 A 
ATOM     16  C   UNL     1       1.447   9.488  18.192  0.00  0.00    +0.000 A 
ATOM     17  C   UNL     1       0.890   9.590  19.465  0.00  0.00    +0.000 A 
ATOM     18  C   UNL     1       1.212   8.628  20.426  0.00  0.00    +0.000 A 
ATOM     19  C   UNL     1       2.008   7.512  20.115  0.00  0.00    +0.000 A 
BRANCH  14  21
ATOM     20  C   UNL     1       2.388   4.935  17.884  0.00  0.00    +0.000 C 
ATOM     21  C   UNL     1       3.255   6.105  18.347  0.00  0.00    +0.000 C 
ATOM     22  C   UNL     1       4.324   6.393  17.290  0.00  0.00    +0.000 C 
ENDBRANCH  14  21
ENDBRANCH  11  17
ENDBRANCH   1  11
BRANCH   3  23
ATOM     23  C   UNL     1      -4.681  12.107  20.270  0.00  0.00    +0.000 C 
BRANCH  23  24
ATOM     24  N   UNL     1      -4.695  13.041  21.389  0.00  0.00    +0.000 NA
ATOM     25  C   UNL     1      -4.349  14.389  20.848  0.00  0.00    +0.000 C 
ATOM     26  C   UNL     1      -4.039  15.453  21.923  0.00  0.00    +0.000 C 
ATOM     27  N   UNL     1      -3.034  15.031  22.918  0.00  0.00    +0.000 NA
ATOM     28  C   UNL     1      -1.697  14.938  22.333  0.00  0.00    +0.000 C 
ATOM     29  C   UNL     1      -3.467  13.738  23.483  0.00  0.00    +0.000 C 
ATOM     30  C   UNL     1      -3.753  12.637  22.436  0.00  0.00    +0.000 C 
ENDBRANCH  23  24
ENDBRANCH   3  23
TORSDOF 5
ENDMDL
MODEL 8
REMARK VINA RESULT:      -7.6      1.140      1.749
REMARK  Name = 
REMARK  8 active torsions:
REMARK  status: ('A' for Active; 'I' for Inactive)
REMARK    1  A    between atoms: C_1  and  C_2
REMARK    2  A    between atoms: C_2  and  C_3
REMARK    3  A    between atoms: C_2  and  C_4
REMARK    4  A    between atoms: C_7  and  S_8
REMARK    5  A    between atoms: S_8  and  N_11
REMARK    6  A    between atoms: C_13  and  C_14
REMARK    7  A    between atoms: C_14  and  N_15
REMARK    8  A    between atoms: N_18  and  C_19
REMARK                            x       y       z     vdW  Elec       q    Type
REMARK                         _______ _______ _______ _____ _____    ______ ____
ROOT
ATOM      1  N   UNL     1      -0.800  11.764  19.403  0.00  0.00    +0.000 N 
ATOM      2  C   UNL     1      -1.343  12.935  19.902  0.00  0.00    +0.000 A 
ATOM      3  C   UNL     1      -2.650  12.622  20.189  0.00  0.00    +0.000 A 
ATOM      4  C   UNL     1      -2.993  11.882  19.038  0.00  0.00    +0.000 A 
ATOM      5  C   UNL     1      -4.187  11.658  18.312  0.00  0.00    +0.000 A 
ATOM      6 CL   UNL     1      -5.457  12.779  18.545  0.00  0.00    +0.000 Cl
ATOM      7  C   UNL     1      -4.269  10.667  17.363  0.00  0.00    +0.000 A 
ATOM      8  C   UNL     1      -3.182   9.820  17.190  0.00  0.00    +0.000 A 
ATOM      9  C   UNL     1      -1.959  10.007  17.879  0.00  0.00    +0.000 A 
ATOM     10  C   UNL     1      -1.833  11.110  18.735  0.00  0.00    +0.000 A 
ENDROOT
BRANCH   1  11
ATOM     11  S   UNL     1       0.794  11.378  19.940  0.00  0.00    +0.000 S 
ATOM     12  O   UNL     1       0.660  11.321  21.393  0.00  0.00    +0.000 OA
ATOM     13  O   UNL     1       1.652  12.374  19.272  0.00  0.00    +0.000 OA
BRANCH  11  17
ATOM     14  C   UNL     1       2.432   7.302  18.516  0.00  0.00    +0.000 A 
ATOM     15  C   UNL     1       1.960   7.472  19.828  0.00  0.00    +0.000 A 
ATOM     16  C   UNL     1       1.472   8.679  20.311  0.00  0.00    +0.000 A 
ATOM     17  C   UNL     1       1.462   9.785  19.463  0.00  0.00    +0.000 A 
ATOM     18  C   UNL     1       1.825   9.616  18.124  0.00  0.00    +0.000 A 
ATOM     19  C   UNL     1       2.286   8.382  17.634  0.00  0.00    +0.000 A 
BRANCH  14  21
ATOM     20  C   UNL     1       4.388   5.652  18.667  0.00  0.00    +0.000 C 
ATOM     21  C   UNL     1       3.003   5.946  18.093  0.00  0.00    +0.000 C 
ATOM     22  C   UNL     1       2.082   4.753  18.355  0.00  0.00    +0.000 C 
ENDBRANCH  14  21
ENDBRANCH  11  17
ENDBRANCH   1  11
BRANCH   3  23
ATOM     23  C   UNL     1      -3.522  12.787  21.397  0.00  0.00    +0.000 C 
BRANCH  23  24
ATOM     24  N   UNL     1      -3.417  14.061  22.098  0.00  0.00    +0.000 NA
ATOM     25  C   UNL     1      -3.749  13.809  23.532  0.00  0.00    +0.000 C 
ATOM     26  C   UNL     1      -3.966  15.084  24.376  0.00  0.00    +0.000 C 
ATOM     27  N   UNL     1      -4.928  16.038  23.792  0.00  0.00    +0.000 NA
ATOM     28  C   UNL     1      -6.297  15.527  23.841  0.00  0.00    +0.000 C 
ATOM     29  C   UNL     1      -4.507  16.319  22.405  0.00  0.00    +0.000 C 
ATOM     30  C   UNL     1      -4.314  15.066  21.520  0.00  0.00    +0.000 C 
ENDBRANCH  23  24
ENDBRANCH   3  23
TORSDOF 5
ENDMDL
MODEL 9
REMARK VINA RESULT:      -7.6      2.274      3.022
REMARK  Name = 
REMARK  8 active torsions:
REMARK  status: ('A' for Active; 'I' for Inactive)
REMARK    1  A    between atoms: C_1  and  C_2
REMARK    2  A    between atoms: C_2  and  C_3
REMARK    3  A    between atoms: C_2  and  C_4
REMARK    4  A    between atoms: C_7  and  S_8
REMARK    5  A    between atoms: S_8  and  N_11
REMARK    6  A    between atoms: C_13  and  C_14
REMARK    7  A    between atoms: C_14  and  N_15
REMARK    8  A    between atoms: N_18  and  C_19
REMARK                            x       y       z     vdW  Elec       q    Type
REMARK                         _______ _______ _______ _____ _____    ______ ____
ROOT
ATOM      1  N   UNL     1       0.504  10.021  20.477  0.00  0.00    +0.000 N 
ATOM      2  C   UNL     1       1.167  11.137  20.958  0.00  0.00    +0.000 A 
ATOM      3  C   UNL     1       0.231  12.144  20.921  0.00  0.00    +0.000 A 
ATOM      4  C   UNL     1      -0.346  11.908  19.656  0.00  0.00    +0.000 A 
ATOM      5  C   UNL     1      -0.957  12.718  18.669  0.00  0.00    +0.000 A 
ATOM      6 CL   UNL     1      -0.625  14.394  18.729  0.00  0.00    +0.000 Cl
ATOM      7  C   UNL     1      -1.668  12.162  17.632  0.00  0.00    +0.000 A 
ATOM      8  C   UNL     1      -1.860  10.787  17.617  0.00  0.00    +0.000 A 
ATOM      9  C   UNL     1      -1.260   9.930  18.571  0.00  0.00    +0.000 A 
ATOM     10  C   UNL     1      -0.414  10.488  19.539  0.00  0.00    +0.000 A 
ENDROOT
BRANCH   1  11
ATOM     11  S   UNL     1       0.810   8.540  21.308  0.00  0.00    +0.000 S 
ATOM     12  O   UNL     1      -0.526   8.031  21.601  0.00  0.00    +0.000 OA
ATOM     13  O   UNL     1       1.757   8.914  22.376  0.00  0.00    +0.000 OA
BRANCH  11  17
ATOM     14  C   UNL     1       2.858   5.273  18.766  0.00  0.00    +0.000 A 
ATOM     15  C   UNL     1       2.174   4.945  19.948  0.00  0.00    +0.000 A 
ATOM     16  C   UNL     1       1.554   5.890  20.756  0.00  0.00    +0.000 A 
ATOM     17  C   UNL     1       1.626   7.233  20.392  0.00  0.00    +0.000 A 
ATOM     18  C   UNL     1       2.208   7.574  19.168  0.00  0.00    +0.000 A 
ATOM     19  C   UNL     1       2.803   6.607  18.339  0.00  0.00    +0.000 A 
BRANCH  14  21
ATOM     20  C   UNL     1       2.602   3.135  17.375  0.00  0.00    +0.000 C 
ATOM     21  C   UNL     1       3.558   4.167  17.972  0.00  0.00    +0.000 C 
ATOM     22  C   UNL     1       4.510   4.665  16.882  0.00  0.00    +0.000 C 
ENDBRANCH  14  21
ENDBRANCH  11  17
ENDBRANCH   1  11
BRANCH   3  23
ATOM     23  C   UNL     1      -0.265  13.145  21.921  0.00  0.00    +0.000 C 
BRANCH  23  24
ATOM     24  N   UNL     1      -1.709  13.214  22.103  0.00  0.00    +0.000 NA
ATOM     25  C   UNL     1      -2.072  14.654  22.256  0.00  0.00    +0.000 C 
ATOM     26  C   UNL     1      -3.516  14.906  22.738  0.00  0.00    +0.000 C 
ATOM     27  N   UNL     1      -3.886  14.158  23.955  0.00  0.00    +0.000 NA
ATOM     28  C   UNL     1      -3.187  14.662  25.135  0.00  0.00    +0.000 C 
ATOM     29  C   UNL     1      -3.589  12.731  23.720  0.00  0.00    +0.000 C 
ATOM     30  C   UNL     1      -2.139  12.437  23.269  0.00  0.00    +0.000 C 
ENDBRANCH  23  24
ENDBRANCH   3  23
TORSDOF 5
ENDMDL
