MODEL 1
REMARK VINA RESULT:      -7.8      0.000      0.000
REMARK  Name = 
REMARK  1 active torsions:
REMARK  status: ('A' for Active; 'I' for Inactive)
REMARK    1  A    between atoms: N_1  and  C_2
REMARK                            x       y       z     vdW  Elec       q    Type
REMARK                         _______ _______ _______ _____ _____    ______ ____
ROOT
ATOM      1  C   UNL     1       3.528   5.671  18.257  0.00  0.00    +0.000 A 
ATOM      2  C   UNL     1       3.045   4.449  18.834  0.00  0.00    +0.000 A 
ATOM      3  C   UNL     1       3.976   3.556  19.409  0.00  0.00    +0.000 A 
ATOM      4  N   UNL     1       5.304   3.820  19.333  0.00  0.00    +0.000 NA
ATOM      5  C   UNL     1       5.807   4.923  18.737  0.00  0.00    +0.000 A 
ATOM      6  C   UNL     1       7.196   5.088  18.678  0.00  0.00    +0.000 A 
ATOM      7  C   UNL     1       7.743   6.220  18.078  0.00  0.00    +0.000 A 
ATOM      8  C   UNL     1       6.906   7.199  17.545  0.00  0.00    +0.000 A 
ATOM      9  F   UNL     1       7.441   8.301  16.964  0.00  0.00    +0.000 F 
ATOM     10  C   UNL     1       5.519   7.047  17.603  0.00  0.00    +0.000 A 
ATOM     11  C   UNL     1       4.936   5.896  18.194  0.00  0.00    +0.000 A 
ATOM     12  C   UNL     1       3.570   2.305  20.145  0.00  0.00    +0.000 C 
ATOM     13  C   UNL     1       2.738   2.629  21.397  0.00  0.00    +0.000 C 
ATOM     14  C   UNL     1       1.263   2.929  21.105  0.00  0.00    +0.000 C 
ATOM     15  C   UNL     1       0.962   4.154  20.240  0.00  0.00    +0.000 C 
ATOM     16  C   UNL     1       1.569   4.081  18.844  0.00  0.00    +0.000 C 
ENDROOT
BRANCH   1  17
ATOM     17  N   UNL     1       2.615   6.669  17.783  0.00  0.00    +0.000 N 
ATOM     18  H   UNL     1       1.768   6.459  17.248  0.00  0.00    +0.000 HD
ATOM     19  H   UNL     1       2.662   7.648  18.076  0.00  0.00    +0.000 HD
ENDBRANCH   1  17
TORSDOF 1
ENDMDL
MODEL 2
REMARK VINA RESULT:      -7.4      2.983      5.798
REMARK  Name = 
REMARK  1 active torsions:
REMARK  status: ('A' for Active; 'I' for Inactive)
REMARK    1  A    between atoms: N_1  and  C_2
REMARK                            x       y       z     vdW  Elec       q    Type
REMARK                         _______ _______ _______ _____ _____    ______ ____
ROOT
ATOM      1  C   UNL     1       3.879   3.247  17.923  0.00  0.00    +0.000 A 
ATOM      2  C   UNL     1       4.477   4.209  17.041  0.00  0.00    +0.000 A 
ATOM      3  C   UNL     1       4.298   5.583  17.314  0.00  0.00    +0.000 A 
ATOM      4  N   UNL     1       3.503   5.971  18.342  0.00  0.00    +0.000 NA
ATOM      5  C   UNL     1       2.864   5.101  19.153  0.00  0.00    +0.000 A 
ATOM      6  C   UNL     1       2.034   5.601  20.165  0.00  0.00    +0.000 A 
ATOM      7  C   UNL     1       1.370   4.727  21.024  0.00  0.00    +0.000 A 
ATOM      8  C   UNL     1       1.540   3.351  20.884  0.00  0.00    +0.000 A 
ATOM      9  F   UNL     1       0.894   2.503  21.722  0.00  0.00    +0.000 F 
ATOM     10  C   UNL     1       2.368   2.841  19.881  0.00  0.00    +0.000 A 
ATOM     11  C   UNL     1       3.043   3.709  18.984  0.00  0.00    +0.000 A 
ATOM     12  C   UNL     1       4.977   6.674  16.527  0.00  0.00    +0.000 C 
ATOM     13  C   UNL     1       6.507   6.597  16.656  0.00  0.00    +0.000 C 
ATOM     14  C   UNL     1       7.158   5.546  15.749  0.00  0.00    +0.000 C 
ATOM     15  C   UNL     1       6.779   4.085  15.998  0.00  0.00    +0.000 C 
ATOM     16  C   UNL     1       5.292   3.800  15.823  0.00  0.00    +0.000 C 
ENDROOT
BRANCH   1  17
ATOM     17  N   UNL     1       4.142   1.846  17.767  0.00  0.00    +0.000 N 
ATOM     18  H   UNL     1       4.249   1.195  18.549  0.00  0.00    +0.000 HD
ATOM     19  H   UNL     1       4.089   1.369  16.863  0.00  0.00    +0.000 HD
ENDBRANCH   1  17
TORSDOF 1
ENDMDL
MODEL 3
REMARK VINA RESULT:      -7.2      2.209      3.077
REMARK  Name = 
REMARK  1 active torsions:
REMARK  status: ('A' for Active; 'I' for Inactive)
REMARK    1  A    between atoms: N_1  and  C_2
REMARK                            x       y       z     vdW  Elec       q    Type
REMARK                         _______ _______ _______ _____ _____    ______ ____
ROOT
ATOM      1  C   UNL     1       4.184   3.134  17.804  0.00  0.00    +0.000 A 
ATOM      2  C   UNL     1       3.572   3.515  19.045  0.00  0.00    +0.000 A 
ATOM      3  C   UNL     1       3.354   4.887  19.301  0.00  0.00    +0.000 A 
ATOM      4  N   UNL     1       3.798   5.819  18.421  0.00  0.00    +0.000 NA
ATOM      5  C   UNL     1       4.441   5.508  17.275  0.00  0.00    +0.000 A 
ATOM      6  C   UNL     1       4.893   6.544  16.448  0.00  0.00    +0.000 A 
ATOM      7  C   UNL     1       5.552   6.254  15.255  0.00  0.00    +0.000 A 
ATOM      8  C   UNL     1       5.751   4.928  14.875  0.00  0.00    +0.000 A 
ATOM      9  F   UNL     1       6.390   4.648  13.713  0.00  0.00    +0.000 F 
ATOM     10  C   UNL     1       5.300   3.886  15.689  0.00  0.00    +0.000 A 
ATOM     11  C   UNL     1       4.641   4.154  16.917  0.00  0.00    +0.000 A 
ATOM     12  C   UNL     1       2.616   5.391  20.514  0.00  0.00    +0.000 C 
ATOM     13  C   UNL     1       1.156   4.905  20.531  0.00  0.00    +0.000 C 
ATOM     14  C   UNL     1       0.984   3.466  21.030  0.00  0.00    +0.000 C 
ATOM     15  C   UNL     1       1.641   2.361  20.202  0.00  0.00    +0.000 C 
ATOM     16  C   UNL     1       3.155   2.495  20.094  0.00  0.00    +0.000 C 
ENDROOT
BRANCH   1  17
ATOM     17  N   UNL     1       4.304   1.753  17.439  0.00  0.00    +0.000 N 
ATOM     18  H   UNL     1       3.511   1.107  17.381  0.00  0.00    +0.000 HD
ATOM     19  H   UNL     1       5.167   1.351  17.063  0.00  0.00    +0.000 HD
ENDBRANCH   1  17
TORSDOF 1
ENDMDL
MODEL 4
REMARK VINA RESULT:      -7.2      2.709      5.335
REMARK  Name = 
REMARK  1 active torsions:
REMARK  status: ('A' for Active; 'I' for Inactive)
REMARK    1  A    between atoms: N_1  and  C_2
REMARK                            x       y       z     vdW  Elec       q    Type
REMARK                         _______ _______ _______ _____ _____    ______ ____
ROOT
ATOM      1  C   UNL     1       3.445   5.368  18.439  0.00  0.00    +0.000 A 
ATOM      2  C   UNL     1       4.741   5.526  17.845  0.00  0.00    +0.000 A 
ATOM      3  C   UNL     1       5.748   4.585  18.153  0.00  0.00    +0.000 A 
ATOM      4  N   UNL     1       5.507   3.607  19.060  0.00  0.00    +0.000 NA
ATOM      5  C   UNL     1       4.324   3.463  19.697  0.00  0.00    +0.000 A 
ATOM      6  C   UNL     1       4.183   2.443  20.645  0.00  0.00    +0.000 A 
ATOM      7  C   UNL     1       2.972   2.264  21.310  0.00  0.00    +0.000 A 
ATOM      8  C   UNL     1       1.892   3.096  21.023  0.00  0.00    +0.000 A 
ATOM      9  F   UNL     1       0.713   2.919  21.670  0.00  0.00    +0.000 F 
ATOM     10  C   UNL     1       2.018   4.114  20.076  0.00  0.00    +0.000 A 
ATOM     11  C   UNL     1       3.246   4.327  19.396  0.00  0.00    +0.000 A 
ATOM     12  C   UNL     1       7.105   4.587  17.497  0.00  0.00    +0.000 C 
ATOM     13  C   UNL     1       7.002   4.345  15.981  0.00  0.00    +0.000 C 
ATOM     14  C   UNL     1       6.617   5.592  15.176  0.00  0.00    +0.000 C 
ATOM     15  C   UNL     1       5.245   6.205  15.460  0.00  0.00    +0.000 C 
ATOM     16  C   UNL     1       5.069   6.672  16.900  0.00  0.00    +0.000 C 
ENDROOT
BRANCH   1  17
ATOM     17  N   UNL     1       2.354   6.215  18.056  0.00  0.00    +0.000 N 
ATOM     18  H   UNL     1       2.010   6.303  17.096  0.00  0.00    +0.000 HD
ATOM     19  H   UNL     1       1.743   6.675  18.736  0.00  0.00    +0.000 HD
ENDBRANCH   1  17
TORSDOF 1
ENDMDL
MODEL 5
REMARK VINA RESULT:      -7.1      0.983      1.091
REMARK  Name = 
REMARK  1 active torsions:
REMARK  status: ('A' for Active; 'I' for Inactive)
REMARK    1  A    between atoms: N_1  and  C_2
REMARK                            x       y       z     vdW  Elec       q    Type
REMARK                         _______ _______ _______ _____ _____    ______ ____
ROOT
ATOM      1  C   UNL     1       4.410   5.712  17.552  0.00  0.00    +0.000 A 
ATOM      2  C   UNL     1       3.870   4.485  18.063  0.00  0.00    +0.000 A 
ATOM      3  C   UNL     1       4.614   3.761  19.020  0.00  0.00    +0.000 A 
ATOM      4  N   UNL     1       5.852   4.185  19.376  0.00  0.00    +0.000 NA
ATOM      5  C   UNL     1       6.429   5.296  18.869  0.00  0.00    +0.000 A 
ATOM      6  C   UNL     1       7.727   5.631  19.272  0.00  0.00    +0.000 A 
ATOM      7  C   UNL     1       8.344   6.777  18.773  0.00  0.00    +0.000 A 
ATOM      8  C   UNL     1       7.663   7.599  17.878  0.00  0.00    +0.000 A 
ATOM      9  F   UNL     1       8.264   8.714  17.395  0.00  0.00    +0.000 F 
ATOM     10  C   UNL     1       6.366   7.277  17.472  0.00  0.00    +0.000 A 
ATOM     11  C   UNL     1       5.721   6.108  17.953  0.00  0.00    +0.000 A 
ATOM     12  C   UNL     1       4.092   2.526  19.708  0.00  0.00    +0.000 C 
ATOM     13  C   UNL     1       2.844   2.833  20.552  0.00  0.00    +0.000 C 
ATOM     14  C   UNL     1       1.547   2.922  19.739  0.00  0.00    +0.000 C 
ATOM     15  C   UNL     1       1.460   4.032  18.691  0.00  0.00    +0.000 C 
ATOM     16  C   UNL     1       2.527   3.934  17.606  0.00  0.00    +0.000 C 
ENDROOT
BRANCH   1  17
ATOM     17  N   UNL     1       3.635   6.549  16.684  0.00  0.00    +0.000 N 
ATOM     18  H   UNL     1       2.825   7.094  16.990  0.00  0.00    +0.000 HD
ATOM     19  H   UNL     1       3.929   6.781  15.731  0.00  0.00    +0.000 HD
ENDBRANCH   1  17
TORSDOF 1
ENDMDL
MODEL 6
REMARK VINA RESULT:      -7.1      1.289      1.382
REMARK  Name = 
REMARK  1 active torsions:
REMARK  status: ('A' for Active; 'I' for Inactive)
REMARK    1  A    between atoms: N_1  and  C_2
REMARK                            x       y       z     vdW  Elec       q    Type
REMARK                         _______ _______ _______ _____ _____    ______ ____
ROOT
ATOM      1  C   UNL     1       3.472   5.882  17.803  0.00  0.00    +0.000 A 
ATOM      2  C   UNL     1       2.895   4.568  17.771  0.00  0.00    +0.000 A 
ATOM      3  C   UNL     1       3.753   3.454  17.641  0.00  0.00    +0.000 A 
ATOM      4  N   UNL     1       5.084   3.640  17.462  0.00  0.00    +0.000 NA
ATOM      5  C   UNL     1       5.661   4.861  17.415  0.00  0.00    +0.000 A 
ATOM      6  C   UNL     1       7.040   4.952  17.190  0.00  0.00    +0.000 A 
ATOM      7  C   UNL     1       7.664   6.197  17.146  0.00  0.00    +0.000 A 
ATOM      8  C   UNL     1       6.915   7.357  17.338  0.00  0.00    +0.000 A 
ATOM      9  F   UNL     1       7.525   8.567  17.296  0.00  0.00    +0.000 F 
ATOM     10  C   UNL     1       5.540   7.279  17.567  0.00  0.00    +0.000 A 
ATOM     11  C   UNL     1       4.878   6.024  17.601  0.00  0.00    +0.000 A 
ATOM     12  C   UNL     1       3.268   2.029  17.714  0.00  0.00    +0.000 C 
ATOM     13  C   UNL     1       2.660   1.708  19.090  0.00  0.00    +0.000 C 
ATOM     14  C   UNL     1       1.219   2.202  19.266  0.00  0.00    +0.000 C 
ATOM     15  C   UNL     1       0.990   3.712  19.200  0.00  0.00    +0.000 C 
ATOM     16  C   UNL     1       1.395   4.335  17.869  0.00  0.00    +0.000 C 
ENDROOT
BRANCH   1  17
ATOM     17  N   UNL     1       2.659   7.033  18.068  0.00  0.00    +0.000 N 
ATOM     18  H   UNL     1       2.861   7.716  18.803  0.00  0.00    +0.000 HD
ATOM     19  H   UNL     1       1.907   7.337  17.444  0.00  0.00    +0.000 HD
ENDBRANCH   1  17
TORSDOF 1
ENDMDL
MODEL 7
REMARK VINA RESULT:      -7.0      2.671      5.892
REMARK  Name = 
REMARK  1 active torsions:
REMARK  status: ('A' for Active; 'I' for Inactive)
REMARK    1  A    between atoms: N_1  and  C_2
REMARK                            x       y       z     vdW  Elec       q    Type
REMARK                         _______ _______ _______ _____ _____    ______ ____
ROOT
ATOM      1  C   UNL     1       4.527   3.490  19.000  0.00  0.00    +0.000 A 
ATOM      2  C   UNL     1       5.040   4.382  17.999  0.00  0.00    +0.000 A 
ATOM      3  C   UNL     1       4.324   5.565  17.713  0.00  0.00    +0.000 A 
ATOM      4  N   UNL     1       3.132   5.799  18.317  0.00  0.00    +0.000 NA
ATOM      5  C   UNL     1       2.578   4.953  19.213  0.00  0.00    +0.000 A 
ATOM      6  C   UNL     1       1.326   5.264  19.755  0.00  0.00    +0.000 A 
ATOM      7  C   UNL     1       0.734   4.416  20.688  0.00  0.00    +0.000 A 
ATOM      8  C   UNL     1       1.395   3.258  21.093  0.00  0.00    +0.000 A 
ATOM      9  F   UNL     1       0.818   2.434  22.003  0.00  0.00    +0.000 F 
ATOM     10  C   UNL     1       2.647   2.939  20.562  0.00  0.00    +0.000 A 
ATOM     11  C   UNL     1       3.264   3.778  19.599  0.00  0.00    +0.000 A 
ATOM     12  C   UNL     1       4.829   6.626  16.769  0.00  0.00    +0.000 C 
ATOM     13  C   UNL     1       6.142   7.251  17.271  0.00  0.00    +0.000 C 
ATOM     14  C   UNL     1       7.387   6.406  16.979  0.00  0.00    +0.000 C 
ATOM     15  C   UNL     1       7.460   5.027  17.638  0.00  0.00    +0.000 C 
ATOM     16  C   UNL     1       6.323   4.095  17.234  0.00  0.00    +0.000 C 
ENDROOT
BRANCH   1  17
ATOM     17  N   UNL     1       5.284   2.348  19.420  0.00  0.00    +0.000 N 
ATOM     18  H   UNL     1       5.300   1.457  18.917  0.00  0.00    +0.000 HD
ATOM     19  H   UNL     1       5.982   2.390  20.168  0.00  0.00    +0.000 HD
ENDBRANCH   1  17
TORSDOF 1
ENDMDL
MODEL 8
REMARK VINA RESULT:      -6.8      1.952      2.038
REMARK  Name = 
REMARK  1 active torsions:
REMARK  status: ('A' for Active; 'I' for Inactive)
REMARK    1  A    between atoms: N_1  and  C_2
REMARK                            x       y       z     vdW  Elec       q    Type
REMARK                         _______ _______ _______ _____ _____    ______ ____
ROOT
ATOM      1  C   UNL     1       3.437   3.385  17.316  0.00  0.00    +0.000 A 
ATOM      2  C   UNL     1       3.066   2.863  18.601  0.00  0.00    +0.000 A 
ATOM      3  C   UNL     1       3.953   3.035  19.686  0.00  0.00    +0.000 A 
ATOM      4  N   UNL     1       5.166   3.607  19.485  0.00  0.00    +0.000 NA
ATOM      5  C   UNL     1       5.586   4.049  18.279  0.00  0.00    +0.000 A 
ATOM      6  C   UNL     1       6.871   4.593  18.165  0.00  0.00    +0.000 A 
ATOM      7  C   UNL     1       7.327   5.066  16.937  0.00  0.00    +0.000 A 
ATOM      8  C   UNL     1       6.498   5.009  15.818  0.00  0.00    +0.000 A 
ATOM      9  F   UNL     1       6.943   5.472  14.624  0.00  0.00    +0.000 F 
ATOM     10  C   UNL     1       5.212   4.473  15.920  0.00  0.00    +0.000 A 
ATOM     11  C   UNL     1       4.729   3.970  17.156  0.00  0.00    +0.000 A 
ATOM     12  C   UNL     1       3.615   2.632  21.098  0.00  0.00    +0.000 C 
ATOM     13  C   UNL     1       2.413   3.423  21.640  0.00  0.00    +0.000 C 
ATOM     14  C   UNL     1       1.053   2.893  21.168  0.00  0.00    +0.000 C 
ATOM     15  C   UNL     1       0.772   2.943  19.666  0.00  0.00    +0.000 C 
ATOM     16  C   UNL     1       1.754   2.128  18.832  0.00  0.00    +0.000 C 
ENDROOT
BRANCH   1  17
ATOM     17  N   UNL     1       2.516   3.355  16.219  0.00  0.00    +0.000 N 
ATOM     18  H   UNL     1       2.522   4.031  15.450  0.00  0.00    +0.000 HD
ATOM     19  H   UNL     1       1.885   2.568  16.045  0.00  0.00    +0.000 HD
ENDBRANCH   1  17
TORSDOF 1
ENDMDL
MODEL 9
REMARK VINA RESULT:      -6.7      3.458      5.460
REMARK  Name = 
REMARK  1 active torsions:
REMARK  status: ('A' for Active; 'I' for Inactive)
REMARK    1  A    between atoms: N_1  and  C_2
REMARK                            x       y       z     vdW  Elec       q    Type
REMARK                         _______ _______ _______ _____ _____    ______ ____
ROOT
ATOM      1  C   UNL     1       2.808   6.292  19.651  0.00  0.00    +0.000 A 
ATOM      2  C   UNL     1       3.664   5.796  18.611  0.00  0.00    +0.000 A 
ATOM      3  C   UNL     1       3.929   6.623  17.497  0.00  0.00    +0.000 A 
ATOM      4  N   UNL     1       3.312   7.825  17.384  0.00  0.00    +0.000 NA
ATOM      5  C   UNL     1       2.445   8.301  18.304  0.00  0.00    +0.000 A 
ATOM      6  C   UNL     1       1.830   9.539  18.079  0.00  0.00    +0.000 A 
ATOM      7  C   UNL     1       0.939  10.061  19.015  0.00  0.00    +0.000 A 
ATOM      8  C   UNL     1       0.666   9.354  20.185  0.00  0.00    +0.000 A 
ATOM      9  F   UNL     1      -0.200   9.865  21.095  0.00  0.00    +0.000 F 
ATOM     10  C   UNL     1       1.277   8.121  20.422  0.00  0.00    +0.000 A 
ATOM     11  C   UNL     1       2.176   7.560  19.478  0.00  0.00    +0.000 A 
ATOM     12  C   UNL     1       4.902   6.251  16.409  0.00  0.00    +0.000 C 
ATOM     13  C   UNL     1       6.334   6.110  16.953  0.00  0.00    +0.000 C 
ATOM     14  C   UNL     1       6.608   4.770  17.648  0.00  0.00    +0.000 C 
ATOM     15  C   UNL     1       5.794   4.463  18.906  0.00  0.00    +0.000 C 
ATOM     16  C   UNL     1       4.290   4.410  18.664  0.00  0.00    +0.000 C 
ENDROOT
BRANCH   1  17
ATOM     17  N   UNL     1       2.617   5.548  20.860  0.00  0.00    +0.000 N 
ATOM     18  H   UNL     1       2.918   5.872  21.783  0.00  0.00    +0.000 HD
ATOM     19  H   UNL     1       2.030   4.710  20.910  0.00  0.00    +0.000 HD
ENDBRANCH   1  17
TORSDOF 1
ENDMDL
