MODEL 1
REMARK VINA RESULT:      -7.9      0.000      0.000
REMARK  Name = 
REMARK  2 active torsions:
REMARK  status: ('A' for Active; 'I' for Inactive)
REMARK    1  A    between atoms: C_6  and  C_7
REMARK    2  A    between atoms: C_11  and  C_12
REMARK                            x       y       z     vdW  Elec       q    Type
REMARK                         _______ _______ _______ _____ _____    ______ ____
ROOT
ATOM      1  O   UNL     1       5.702   3.875  19.494  0.00  0.00    +0.000 OA
ATOM      2  C   UNL     1       4.549   4.004  19.118  0.00  0.00    +0.000 C 
ATOM      3  C   UNL     1       4.043   5.112  18.278  0.00  0.00    +0.000 A 
ATOM      4  C   UNL     1       2.656   5.003  18.258  0.00  0.00    +0.000 A 
ATOM      5  C   UNL     1       1.853   6.054  17.863  0.00  0.00    +0.000 A 
ATOM      6  C   UNL     1       2.438   7.306  17.684  0.00  0.00    +0.000 A 
ATOM      7  C   UNL     1       3.847   7.369  17.561  0.00  0.00    +0.000 A 
ATOM      8  C   UNL     1       4.679   6.246  17.794  0.00  0.00    +0.000 A 
ATOM      9  C   UNL     1       2.202   3.758  18.952  0.00  0.00    +0.000 C 
ATOM     10  C   UNL     1       1.145   4.075  20.044  0.00  0.00    +0.000 C 
ATOM     11  N   UNL     1       1.052   3.097  21.135  0.00  0.00    +0.000 NA
ATOM     12  C   UNL     1       2.370   2.685  21.653  0.00  0.00    +0.000 C 
ATOM     13  C   UNL     1       3.367   2.261  20.546  0.00  0.00    +0.000 C 
ATOM     14  N   UNL     1       3.443   3.262  19.499  0.00  0.00    +0.000 N 
ATOM     15  H   UNL     1       0.477   3.474  21.888  0.00  0.00    +0.000 HD
ENDROOT
BRANCH   8  16
ATOM     16  C   UNL     1       6.154   6.342  17.537  0.00  0.00    +0.000 C 
ATOM     17  F   UNL     1       6.682   5.358  16.766  0.00  0.00    +0.000 F 
ATOM     18  F   UNL     1       6.449   7.498  16.864  0.00  0.00    +0.000 F 
ATOM     19  F   UNL     1       6.893   6.397  18.677  0.00  0.00    +0.000 F 
ENDBRANCH   8  16
BRANCH   6  20
ATOM     20  C   UNL     1       1.561   8.534  17.771  0.00  0.00    +0.000 C 
ATOM     21  C   UNL     1       2.190   9.888  18.021  0.00  0.00    +0.000 C 
ATOM     22  C   UNL     1       1.440   9.219  19.128  0.00  0.00    +0.000 C 
ENDBRANCH   6  20
TORSDOF 2
ENDMDL
MODEL 2
REMARK VINA RESULT:      -7.7      3.178      4.618
REMARK  Name = 
REMARK  2 active torsions:
REMARK  status: ('A' for Active; 'I' for Inactive)
REMARK    1  A    between atoms: C_6  and  C_7
REMARK    2  A    between atoms: C_11  and  C_12
REMARK                            x       y       z     vdW  Elec       q    Type
REMARK                         _______ _______ _______ _____ _____    ______ ____
ROOT
ATOM      1  O   UNL     1       3.782   2.678  17.697  0.00  0.00    +0.000 OA
ATOM      2  C   UNL     1       4.199   3.822  17.618  0.00  0.00    +0.000 C 
ATOM      3  C   UNL     1       3.544   5.013  18.202  0.00  0.00    +0.000 A 
ATOM      4  C   UNL     1       4.214   6.127  17.706  0.00  0.00    +0.000 A 
ATOM      5  C   UNL     1       3.662   7.390  17.767  0.00  0.00    +0.000 A 
ATOM      6  C   UNL     1       2.325   7.514  18.141  0.00  0.00    +0.000 A 
ATOM      7  C   UNL     1       1.708   6.410  18.777  0.00  0.00    +0.000 A 
ATOM      8  C   UNL     1       2.339   5.144  18.878  0.00  0.00    +0.000 A 
ATOM      9  C   UNL     1       5.410   5.724  16.903  0.00  0.00    +0.000 C 
ATOM     10  C   UNL     1       5.389   6.377  15.494  0.00  0.00    +0.000 C 
ATOM     11  N   UNL     1       6.134   5.657  14.454  0.00  0.00    +0.000 NA
ATOM     12  C   UNL     1       5.881   4.204  14.466  0.00  0.00    +0.000 C 
ATOM     13  C   UNL     1       6.026   3.560  15.867  0.00  0.00    +0.000 C 
ATOM     14  N   UNL     1       5.260   4.289  16.859  0.00  0.00    +0.000 N 
ATOM     15  H   UNL     1       5.914   6.048  13.539  0.00  0.00    +0.000 HD
ENDROOT
BRANCH   8  16
ATOM     16  C   UNL     1       1.688   4.045  19.664  0.00  0.00    +0.000 C 
ATOM     17  F   UNL     1       2.514   3.318  20.456  0.00  0.00    +0.000 F 
ATOM     18  F   UNL     1       0.754   4.559  20.525  0.00  0.00    +0.000 F 
ATOM     19  F   UNL     1       1.004   3.164  18.885  0.00  0.00    +0.000 F 
ENDBRANCH   8  16
BRANCH   6  20
ATOM     20  C   UNL     1       1.569   8.754  17.726  0.00  0.00    +0.000 C 
ATOM     21  C   UNL     1       2.175  10.120  17.972  0.00  0.00    +0.000 C 
ATOM     22  C   UNL     1       1.041   9.662  18.831  0.00  0.00    +0.000 C 
ENDBRANCH   6  20
TORSDOF 2
ENDMDL
MODEL 3
REMARK VINA RESULT:      -7.5      0.520      1.057
REMARK  Name = 
REMARK  2 active torsions:
REMARK  status: ('A' for Active; 'I' for Inactive)
REMARK    1  A    between atoms: C_6  and  C_7
REMARK    2  A    between atoms: C_11  and  C_12
REMARK                            x       y       z     vdW  Elec       q    Type
REMARK                         _______ _______ _______ _____ _____    ______ ____
ROOT
ATOM      1  O   UNL     1       5.631   3.483  19.342  0.00  0.00    +0.000 OA
ATOM      2  C   UNL     1       4.519   3.841  18.992  0.00  0.00    +0.000 C 
ATOM      3  C   UNL     1       4.220   5.074  18.230  0.00  0.00    +0.000 A 
ATOM      4  C   UNL     1       2.836   5.219  18.224  0.00  0.00    +0.000 A 
ATOM      5  C   UNL     1       2.235   6.420  17.907  0.00  0.00    +0.000 A 
ATOM      6  C   UNL     1       3.037   7.555  17.798  0.00  0.00    +0.000 A 
ATOM      7  C   UNL     1       4.433   7.371  17.659  0.00  0.00    +0.000 A 
ATOM      8  C   UNL     1       5.049   6.103  17.809  0.00  0.00    +0.000 A 
ATOM      9  C   UNL     1       2.167   4.034  18.846  0.00  0.00    +0.000 C 
ATOM     10  C   UNL     1       1.187   4.466  19.971  0.00  0.00    +0.000 C 
ATOM     11  N   UNL     1       0.923   3.453  21.000  0.00  0.00    +0.000 NA
ATOM     12  C   UNL     1       2.146   2.778  21.471  0.00  0.00    +0.000 C 
ATOM     13  C   UNL     1       3.046   2.253  20.326  0.00  0.00    +0.000 C 
ATOM     14  N   UNL     1       3.298   3.288  19.342  0.00  0.00    +0.000 N 
ATOM     15  H   UNL     1       0.428   3.878  21.783  0.00  0.00    +0.000 HD
ENDROOT
BRANCH   8  16
ATOM     16  C   UNL     1       6.516   5.948  17.536  0.00  0.00    +0.000 C 
ATOM     17  F   UNL     1       7.101   6.970  16.864  0.00  0.00    +0.000 F 
ATOM     18  F   UNL     1       7.216   5.865  18.710  0.00  0.00    +0.000 F 
ATOM     19  F   UNL     1       6.816   4.805  16.863  0.00  0.00    +0.000 F 
ENDBRANCH   8  16
BRANCH   6  20
ATOM     20  C   UNL     1       2.397   8.913  17.974  0.00  0.00    +0.000 C 
ATOM     21  C   UNL     1       1.396   9.131  19.089  0.00  0.00    +0.000 C 
ATOM     22  C   UNL     1       0.905   9.033  17.680  0.00  0.00    +0.000 C 
ENDBRANCH   6  20
TORSDOF 2
ENDMDL
MODEL 4
REMARK VINA RESULT:      -7.3      3.502      4.904
REMARK  Name = 
REMARK  2 active torsions:
REMARK  status: ('A' for Active; 'I' for Inactive)
REMARK    1  A    between atoms: C_6  and  C_7
REMARK    2  A    between atoms: C_11  and  C_12
REMARK                            x       y       z     vdW  Elec       q    Type
REMARK                         _______ _______ _______ _____ _____    ______ ____
ROOT
ATOM      1  O   UNL     1       3.223   2.444  17.528  0.00  0.00    +0.000 OA
ATOM      2  C   UNL     1       3.711   3.487  17.934  0.00  0.00    +0.000 C 
ATOM      3  C   UNL     1       3.156   4.323  19.021  0.00  0.00    +0.000 A 
ATOM      4  C   UNL     1       3.879   5.512  19.025  0.00  0.00    +0.000 A 
ATOM      5  C   UNL     1       3.413   6.640  19.669  0.00  0.00    +0.000 A 
ATOM      6  C   UNL     1       2.102   6.641  20.142  0.00  0.00    +0.000 A 
ATOM      7  C   UNL     1       1.439   5.397  20.264  0.00  0.00    +0.000 A 
ATOM      8  C   UNL     1       1.989   4.192  19.760  0.00  0.00    +0.000 A 
ATOM      9  C   UNL     1       5.015   5.456  18.054  0.00  0.00    +0.000 C 
ATOM     10  C   UNL     1       4.984   6.664  17.080  0.00  0.00    +0.000 C 
ATOM     11  N   UNL     1       5.642   6.448  15.785  0.00  0.00    +0.000 NA
ATOM     12  C   UNL     1       5.296   5.152  15.172  0.00  0.00    +0.000 C 
ATOM     13  C   UNL     1       5.450   3.949  16.136  0.00  0.00    +0.000 C 
ATOM     14  N   UNL     1       4.771   4.196  17.393  0.00  0.00    +0.000 N 
ATOM     15  H   UNL     1       5.414   7.213  15.150  0.00  0.00    +0.000 HD
ENDROOT
BRANCH   8  16
ATOM     16  C   UNL     1       1.297   2.887  20.021  0.00  0.00    +0.000 C 
ATOM     17  F   UNL     1       2.108   1.810  20.168  0.00  0.00    +0.000 F 
ATOM     18  F   UNL     1       0.590   2.945  21.193  0.00  0.00    +0.000 F 
ATOM     19  F   UNL     1       0.379   2.569  19.069  0.00  0.00    +0.000 F 
ENDBRANCH   8  16
BRANCH   6  20
ATOM     20  C   UNL     1       1.413   7.968  20.361  0.00  0.00    +0.000 C 
ATOM     21  C   UNL     1       1.524   8.657  21.705  0.00  0.00    +0.000 C 
ATOM     22  C   UNL     1       0.235   8.000  21.329  0.00  0.00    +0.000 C 
ENDBRANCH   6  20
TORSDOF 2
ENDMDL
MODEL 5
REMARK VINA RESULT:      -7.2      2.689      4.247
REMARK  Name = 
REMARK  2 active torsions:
REMARK  status: ('A' for Active; 'I' for Inactive)
REMARK    1  A    between atoms: C_6  and  C_7
REMARK    2  A    between atoms: C_11  and  C_12
REMARK                            x       y       z     vdW  Elec       q    Type
REMARK                         _______ _______ _______ _____ _____    ______ ____
ROOT
ATOM      1  O   UNL     1       4.764   6.033  19.566  0.00  0.00    +0.000 OA
ATOM      2  C   UNL     1       4.710   5.042  18.856  0.00  0.00    +0.000 C 
ATOM      3  C   UNL     1       5.461   4.853  17.596  0.00  0.00    +0.000 A 
ATOM      4  C   UNL     1       4.959   3.703  16.995  0.00  0.00    +0.000 A 
ATOM      5  C   UNL     1       5.184   3.424  15.663  0.00  0.00    +0.000 A 
ATOM      6  C   UNL     1       5.745   4.418  14.862  0.00  0.00    +0.000 A 
ATOM      7  C   UNL     1       6.379   5.508  15.504  0.00  0.00    +0.000 A 
ATOM      8  C   UNL     1       6.303   5.712  16.905  0.00  0.00    +0.000 A 
ATOM      9  C   UNL     1       3.973   3.015  17.886  0.00  0.00    +0.000 C 
ATOM     10  C   UNL     1       2.630   2.759  17.150  0.00  0.00    +0.000 C 
ATOM     11  N   UNL     1       1.450   2.638  18.014  0.00  0.00    +0.000 NA
ATOM     12  C   UNL     1       1.393   3.676  19.060  0.00  0.00    +0.000 C 
ATOM     13  C   UNL     1       2.712   3.828  19.858  0.00  0.00    +0.000 C 
ATOM     14  N   UNL     1       3.848   3.963  18.968  0.00  0.00    +0.000 N 
ATOM     15  H   UNL     1       0.603   2.659  17.447  0.00  0.00    +0.000 HD
ENDROOT
BRANCH   8  16
ATOM     16  C   UNL     1       7.090   6.818  17.543  0.00  0.00    +0.000 C 
ATOM     17  F   UNL     1       7.730   6.496  18.694  0.00  0.00    +0.000 F 
ATOM     18  F   UNL     1       8.088   7.242  16.705  0.00  0.00    +0.000 F 
ATOM     19  F   UNL     1       6.345   7.927  17.797  0.00  0.00    +0.000 F 
ENDBRANCH   8  16
BRANCH   6  20
ATOM     20  C   UNL     1       5.525   4.353  13.368  0.00  0.00    +0.000 C 
ATOM     21  C   UNL     1       5.548   3.013  12.664  0.00  0.00    +0.000 C 
ATOM     22  C   UNL     1       6.708   3.940  12.499  0.00  0.00    +0.000 C 
ENDBRANCH   6  20
TORSDOF 2
ENDMDL
MODEL 6
REMARK VINA RESULT:      -7.2      3.325      4.739
REMARK  Name = 
REMARK  2 active torsions:
REMARK  status: ('A' for Active; 'I' for Inactive)
REMARK    1  A    between atoms: C_6  and  C_7
REMARK    2  A    between atoms: C_11  and  C_12
REMARK                            x       y       z     vdW  Elec       q    Type
REMARK                         _______ _______ _______ _____ _____    ______ ____
ROOT
ATOM      1  O   UNL     1       3.888   2.325  18.066  0.00  0.00    +0.000 OA
ATOM      2  C   UNL     1       4.137   3.494  18.312  0.00  0.00    +0.000 C 
ATOM      3  C   UNL     1       3.451   4.317  19.332  0.00  0.00    +0.000 A 
ATOM      4  C   UNL     1       3.877   5.628  19.147  0.00  0.00    +0.000 A 
ATOM      5  C   UNL     1       3.191   6.696  19.687  0.00  0.00    +0.000 A 
ATOM      6  C   UNL     1       1.937   6.463  20.250  0.00  0.00    +0.000 A 
ATOM      7  C   UNL     1       1.587   5.128  20.564  0.00  0.00    +0.000 A 
ATOM      8  C   UNL     1       2.380   4.023  20.163  0.00  0.00    +0.000 A 
ATOM      9  C   UNL     1       4.952   5.704  18.109  0.00  0.00    +0.000 C 
ATOM     10  C   UNL     1       4.599   6.739  17.006  0.00  0.00    +0.000 C 
ATOM     11  N   UNL     1       5.232   6.511  15.701  0.00  0.00    +0.000 NA
ATOM     12  C   UNL     1       5.170   5.102  15.270  0.00  0.00    +0.000 C 
ATOM     13  C   UNL     1       5.641   4.099  16.352  0.00  0.00    +0.000 C 
ATOM     14  N   UNL     1       4.979   4.347  17.618  0.00  0.00    +0.000 N 
ATOM     15  H   UNL     1       4.805   7.116  15.000  0.00  0.00    +0.000 HD
ENDROOT
BRANCH   8  16
ATOM     16  C   UNL     1       2.022   2.641  20.624  0.00  0.00    +0.000 C 
ATOM     17  F   UNL     1       1.538   1.809  19.668  0.00  0.00    +0.000 F 
ATOM     18  F   UNL     1       3.129   1.995  21.109  0.00  0.00    +0.000 F 
ATOM     19  F   UNL     1       1.129   2.634  21.649  0.00  0.00    +0.000 F 
ENDBRANCH   8  16
BRANCH   6  20
ATOM     20  C   UNL     1       0.969   7.618  20.363  0.00  0.00    +0.000 C 
ATOM     21  C   UNL     1       1.462   9.034  20.152  0.00  0.00    +0.000 C 
ATOM     22  C   UNL     1       1.146   8.574  21.538  0.00  0.00    +0.000 C 
ENDBRANCH   6  20
TORSDOF 2
ENDMDL
MODEL 7
REMARK VINA RESULT:      -7.2      1.236      1.410
REMARK  Name = 
REMARK  2 active torsions:
REMARK  status: ('A' for Active; 'I' for Inactive)
REMARK    1  A    between atoms: C_6  and  C_7
REMARK    2  A    between atoms: C_11  and  C_12
REMARK                            x       y       z     vdW  Elec       q    Type
REMARK                         _______ _______ _______ _____ _____    ______ ____
ROOT
ATOM      1  O   UNL     1       4.648   2.585  17.960  0.00  0.00    +0.000 OA
ATOM      2  C   UNL     1       3.612   3.222  18.060  0.00  0.00    +0.000 C 
ATOM      3  C   UNL     1       3.408   4.603  17.573  0.00  0.00    +0.000 A 
ATOM      4  C   UNL     1       2.180   5.031  18.070  0.00  0.00    +0.000 A 
ATOM      5  C   UNL     1       1.836   6.366  18.100  0.00  0.00    +0.000 A 
ATOM      6  C   UNL     1       2.821   7.312  17.821  0.00  0.00    +0.000 A 
ATOM      7  C   UNL     1       4.004   6.871  17.181  0.00  0.00    +0.000 A 
ATOM      8  C   UNL     1       4.292   5.497  16.984  0.00  0.00    +0.000 A 
ATOM      9  C   UNL     1       1.468   3.919  18.774  0.00  0.00    +0.000 C 
ATOM     10  C   UNL     1       1.045   4.340  20.207  0.00  0.00    +0.000 C 
ATOM     11  N   UNL     1       0.876   3.239  21.164  0.00  0.00    +0.000 NA
ATOM     12  C   UNL     1       1.972   2.254  21.107  0.00  0.00    +0.000 C 
ATOM     13  C   UNL     1       2.292   1.763  19.673  0.00  0.00    +0.000 C 
ATOM     14  N   UNL     1       2.470   2.880  18.766  0.00  0.00    +0.000 N 
ATOM     15  H   UNL     1       0.784   3.613  22.108  0.00  0.00    +0.000 HD
ENDROOT
BRANCH   8  16
ATOM     16  C   UNL     1       5.503   5.092  16.197  0.00  0.00    +0.000 C 
ATOM     17  F   UNL     1       5.329   4.054  15.341  0.00  0.00    +0.000 F 
ATOM     18  F   UNL     1       5.924   6.124  15.400  0.00  0.00    +0.000 F 
ATOM     19  F   UNL     1       6.572   4.789  16.980  0.00  0.00    +0.000 F 
ENDBRANCH   8  16
BRANCH   6  20
ATOM     20  C   UNL     1       2.639   8.720  18.339  0.00  0.00    +0.000 C 
ATOM     21  C   UNL     1       1.438   9.054  19.197  0.00  0.00    +0.000 C 
ATOM     22  C   UNL     1       1.475   9.532  17.781  0.00  0.00    +0.000 C 
ENDBRANCH   6  20
TORSDOF 2
ENDMDL
MODEL 8
REMARK VINA RESULT:      -7.0      1.001      1.389
REMARK  Name = 
REMARK  2 active torsions:
REMARK  status: ('A' for Active; 'I' for Inactive)
REMARK    1  A    between atoms: C_6  and  C_7
REMARK    2  A    between atoms: C_11  and  C_12
REMARK                            x       y       z     vdW  Elec       q    Type
REMARK                         _______ _______ _______ _____ _____    ______ ____
ROOT
ATOM      1  O   UNL     1       4.967   3.240  18.102  0.00  0.00    +0.000 OA
ATOM      2  C   UNL     1       3.858   3.739  18.204  0.00  0.00    +0.000 C 
ATOM      3  C   UNL     1       3.479   5.082  17.715  0.00  0.00    +0.000 A 
ATOM      4  C   UNL     1       2.208   5.351  18.214  0.00  0.00    +0.000 A 
ATOM      5  C   UNL     1       1.696   6.631  18.243  0.00  0.00    +0.000 A 
ATOM      6  C   UNL     1       2.552   7.695  17.960  0.00  0.00    +0.000 A 
ATOM      7  C   UNL     1       3.780   7.407  17.318  0.00  0.00    +0.000 A 
ATOM      8  C   UNL     1       4.240   6.080  17.123  0.00  0.00    +0.000 A 
ATOM      9  C   UNL     1       1.645   4.159  18.922  0.00  0.00    +0.000 C 
ATOM     10  C   UNL     1       1.175   4.525  20.356  0.00  0.00    +0.000 C 
ATOM     11  N   UNL     1       1.149   3.413  21.314  0.00  0.00    +0.000 NA
ATOM     12  C   UNL     1       2.362   2.576  21.256  0.00  0.00    +0.000 C 
ATOM     13  C   UNL     1       2.739   2.127  19.823  0.00  0.00    +0.000 C 
ATOM     14  N   UNL     1       2.771   3.256  18.913  0.00  0.00    +0.000 N 
ATOM     15  H   UNL     1       1.013   3.775  22.258  0.00  0.00    +0.000 HD
ENDROOT
BRANCH   8  16
ATOM     16  C   UNL     1       5.491   5.831  16.333  0.00  0.00    +0.000 C 
ATOM     17  F   UNL     1       6.597   5.536  17.061  0.00  0.00    +0.000 F 
ATOM     18  F   UNL     1       5.329   4.752  15.505  0.00  0.00    +0.000 F 
ATOM     19  F   UNL     1       5.818   6.864  15.511  0.00  0.00    +0.000 F 
ENDBRANCH   8  16
BRANCH   6  20
ATOM     20  C   UNL     1       2.193   9.069  18.476  0.00  0.00    +0.000 C 
ATOM     21  C   UNL     1       1.068   9.224  19.477  0.00  0.00    +0.000 C 
ATOM     22  C   UNL     1       0.845   9.649  18.061  0.00  0.00    +0.000 C 
ENDBRANCH   6  20
TORSDOF 2
ENDMDL
MODEL 9
REMARK VINA RESULT:      -6.8      0.905      1.266
REMARK  Name = 
REMARK  2 active torsions:
REMARK  status: ('A' for Active; 'I' for Inactive)
REMARK    1  A    between atoms: C_6  and  C_7
REMARK    2  A    between atoms: C_11  and  C_12
REMARK                            x       y       z     vdW  Elec       q    Type
REMARK                         _______ _______ _______ _____ _____    ______ ____
ROOT
ATOM      1  O   UNL     1       5.873   3.706  18.369  0.00  0.00    +0.000 OA
ATOM      2  C   UNL     1       4.718   4.005  18.112  0.00  0.00    +0.000 C 
ATOM      3  C   UNL     1       4.247   5.359  17.750  0.00  0.00    +0.000 A 
ATOM      4  C   UNL     1       2.856   5.317  17.749  0.00  0.00    +0.000 A 
ATOM      5  C   UNL     1       2.096   6.467  17.793  0.00  0.00    +0.000 A 
ATOM      6  C   UNL     1       2.737   7.677  18.054  0.00  0.00    +0.000 A 
ATOM      7  C   UNL     1       4.144   7.729  17.906  0.00  0.00    +0.000 A 
ATOM      8  C   UNL     1       4.926   6.568  17.683  0.00  0.00    +0.000 A 
ATOM      9  C   UNL     1       2.360   3.922  17.965  0.00  0.00    +0.000 C 
ATOM     10  C   UNL     1       1.346   3.860  19.140  0.00  0.00    +0.000 C 
ATOM     11  N   UNL     1       1.233   2.557  19.807  0.00  0.00    +0.000 NA
ATOM     12  C   UNL     1       2.542   1.938  20.087  0.00  0.00    +0.000 C 
ATOM     13  C   UNL     1       3.489   1.908  18.862  0.00  0.00    +0.000 C 
ATOM     14  N   UNL     1       3.587   3.216  18.245  0.00  0.00    +0.000 N 
ATOM     15  H   UNL     1       0.696   2.656  20.668  0.00  0.00    +0.000 HD
ENDROOT
BRANCH   8  16
ATOM     16  C   UNL     1       6.397   6.697  17.417  0.00  0.00    +0.000 C 
ATOM     17  F   UNL     1       7.214   6.260  18.407  0.00  0.00    +0.000 F 
ATOM     18  F   UNL     1       6.754   5.951  16.325  0.00  0.00    +0.000 F 
ATOM     19  F   UNL     1       6.776   7.968  17.118  0.00  0.00    +0.000 F 
ENDBRANCH   8  16
BRANCH   6  20
ATOM     20  C   UNL     1       1.923   8.821  18.614  0.00  0.00    +0.000 C 
ATOM     21  C   UNL     1       0.731   9.342  17.841  0.00  0.00    +0.000 C 
ATOM     22  C   UNL     1       1.984  10.156  17.880  0.00  0.00    +0.000 C 
ENDBRANCH   6  20
TORSDOF 2
ENDMDL
