MODEL 1
REMARK VINA RESULT:      -7.0      0.000      0.000
REMARK  Name = 
REMARK  6 active torsions:
REMARK  status: ('A' for Active; 'I' for Inactive)
REMARK    1  A    between atoms: C_1  and  O_2
REMARK    2  A    between atoms: O_2  and  C_3
REMARK    3  A    between atoms: C_6  and  C_7
REMARK    4  A    between atoms: C_7  and  C_8
REMARK    5  A    between atoms: C_8  and  N_9
REMARK    6  A    between atoms: C_10  and  C_12
REMARK                            x       y       z     vdW  Elec       q    Type
REMARK                         _______ _______ _______ _____ _____    ______ ____
ROOT
ATOM      1  C   UNL     1       5.679   6.721  17.106  0.00  0.00    +0.000 C 
ENDROOT
BRANCH   1   2
ATOM      2  N   UNL     1       5.883   6.168  15.786  0.00  0.00    +0.000 N 
ATOM      3  C   UNL     1       6.818   5.182  15.542  0.00  0.00    +0.000 C 
ATOM      4  O   UNL     1       7.583   4.772  16.410  0.00  0.00    +0.000 OA
ATOM      5  H   UNL     1       5.279   6.439  15.018  0.00  0.00    +0.000 HD
BRANCH   3   6
ATOM      6  C   UNL     1       6.800   4.672  14.188  0.00  0.00    +0.000 A 
ATOM      7  C   UNL     1       6.110   3.612  13.630  0.00  0.00    +0.000 A 
ATOM      8  C   UNL     1       6.466   3.570  12.261  0.00  0.00    +0.000 A 
ATOM      9  C   UNL     1       7.345   4.606  12.063  0.00  0.00    +0.000 A 
ATOM     10  O   UNL     1       7.557   5.284  13.221  0.00  0.00    +0.000 OA
ENDBRANCH   3   6
ENDBRANCH   1   2
BRANCH   1  11
ATOM     11  C   UNL     1       4.196   6.842  17.482  0.00  0.00    +0.000 C 
BRANCH  11  15
ATOM     12  C   UNL     1       2.628   3.366  19.550  0.00  0.00    +0.000 A 
ATOM     13  C   UNL     1       1.763   4.351  19.082  0.00  0.00    +0.000 A 
ATOM     14  C   UNL     1       2.256   5.465  18.404  0.00  0.00    +0.000 A 
ATOM     15  C   UNL     1       3.633   5.641  18.217  0.00  0.00    +0.000 A 
ATOM     16  C   UNL     1       4.497   4.638  18.680  0.00  0.00    +0.000 A 
ATOM     17  C   UNL     1       4.000   3.507  19.346  0.00  0.00    +0.000 A 
BRANCH  12  19
ATOM     18  C   UNL     1       1.482   2.657  21.491  0.00  0.00    +0.000 C 
ATOM     19  O   UNL     1       2.022   2.337  20.215  0.00  0.00    +0.000 OA
ENDBRANCH  12  19
ENDBRANCH  11  15
ENDBRANCH   1  11
TORSDOF 5
ENDMDL
MODEL 2
REMARK VINA RESULT:      -6.6      0.886      1.081
REMARK  Name = 
REMARK  6 active torsions:
REMARK  status: ('A' for Active; 'I' for Inactive)
REMARK    1  A    between atoms: C_1  and  O_2
REMARK    2  A    between atoms: O_2  and  C_3
REMARK    3  A    between atoms: C_6  and  C_7
REMARK    4  A    between atoms: C_7  and  C_8
REMARK    5  A    between atoms: C_8  and  N_9
REMARK    6  A    between atoms: C_10  and  C_12
REMARK                            x       y       z     vdW  Elec       q    Type
REMARK                         _______ _______ _______ _____ _____    ______ ____
ROOT
ATOM      1  C   UNL     1       5.657   6.149  17.126  0.00  0.00    +0.000 C 
ENDROOT
BRANCH   1   2
ATOM      2  N   UNL     1       5.874   5.761  15.751  0.00  0.00    +0.000 N 
ATOM      3  C   UNL     1       6.923   4.943  15.380  0.00  0.00    +0.000 C 
ATOM      4  O   UNL     1       7.774   4.562  16.177  0.00  0.00    +0.000 OA
ATOM      5  H   UNL     1       5.206   6.018  15.033  0.00  0.00    +0.000 HD
BRANCH   3   6
ATOM      6  C   UNL     1       6.914   4.569  13.982  0.00  0.00    +0.000 A 
ATOM      7  C   UNL     1       7.691   5.003  12.924  0.00  0.00    +0.000 A 
ATOM      8  C   UNL     1       7.251   4.298  11.779  0.00  0.00    +0.000 A 
ATOM      9  C   UNL     1       6.237   3.474  12.204  0.00  0.00    +0.000 A 
ATOM     10  O   UNL     1       6.022   3.626  13.536  0.00  0.00    +0.000 OA
ENDBRANCH   3   6
ENDBRANCH   1   2
BRANCH   1  11
ATOM     11  C   UNL     1       4.207   6.570  17.407  0.00  0.00    +0.000 C 
BRANCH  11  15
ATOM     12  C   UNL     1       1.959   3.649  19.694  0.00  0.00    +0.000 A 
ATOM     13  C   UNL     1       1.506   4.057  18.443  0.00  0.00    +0.000 A 
ATOM     14  C   UNL     1       2.229   4.985  17.693  0.00  0.00    +0.000 A 
ATOM     15  C   UNL     1       3.401   5.560  18.201  0.00  0.00    +0.000 A 
ATOM     16  C   UNL     1       3.857   5.134  19.456  0.00  0.00    +0.000 A 
ATOM     17  C   UNL     1       3.141   4.186  20.202  0.00  0.00    +0.000 A 
BRANCH  12  19
ATOM     18  C   UNL     1       1.334   2.643  21.739  0.00  0.00    +0.000 C 
ATOM     19  O   UNL     1       1.150   2.752  20.333  0.00  0.00    +0.000 OA
ENDBRANCH  12  19
ENDBRANCH  11  15
ENDBRANCH   1  11
TORSDOF 5
ENDMDL
MODEL 3
REMARK VINA RESULT:      -6.6      0.947      1.465
REMARK  Name = 
REMARK  6 active torsions:
REMARK  status: ('A' for Active; 'I' for Inactive)
REMARK    1  A    between atoms: C_1  and  O_2
REMARK    2  A    between atoms: O_2  and  C_3
REMARK    3  A    between atoms: C_6  and  C_7
REMARK    4  A    between atoms: C_7  and  C_8
REMARK    5  A    between atoms: C_8  and  N_9
REMARK    6  A    between atoms: C_10  and  C_12
REMARK                            x       y       z     vdW  Elec       q    Type
REMARK                         _______ _______ _______ _____ _____    ______ ____
ROOT
ATOM      1  C   UNL     1       6.655   6.871  17.250  0.00  0.00    +0.000 C 
ENDROOT
BRANCH   1   2
ATOM      2  N   UNL     1       6.578   6.277  15.934  0.00  0.00    +0.000 N 
ATOM      3  C   UNL     1       7.131   5.043  15.656  0.00  0.00    +0.000 C 
ATOM      4  O   UNL     1       7.785   4.414  16.482  0.00  0.00    +0.000 OA
ATOM      5  H   UNL     1       6.040   6.724  15.200  0.00  0.00    +0.000 HD
BRANCH   3   6
ATOM      6  C   UNL     1       6.856   4.561  14.319  0.00  0.00    +0.000 A 
ATOM      7  C   UNL     1       5.899   3.677  13.856  0.00  0.00    +0.000 A 
ATOM      8  C   UNL     1       6.086   3.572  12.458  0.00  0.00    +0.000 A 
ATOM      9  C   UNL     1       7.139   4.398  12.149  0.00  0.00    +0.000 A 
ATOM     10  O   UNL     1       7.616   5.004  13.267  0.00  0.00    +0.000 OA
ENDBRANCH   3   6
ENDBRANCH   1   2
BRANCH   1  11
ATOM     11  C   UNL     1       5.275   7.128  17.872  0.00  0.00    +0.000 C 
BRANCH  11  15
ATOM     12  C   UNL     1       3.009   3.578  18.911  0.00  0.00    +0.000 A 
ATOM     13  C   UNL     1       4.346   3.688  19.281  0.00  0.00    +0.000 A 
ATOM     14  C   UNL     1       5.080   4.831  18.964  0.00  0.00    +0.000 A 
ATOM     15  C   UNL     1       4.502   5.873  18.229  0.00  0.00    +0.000 A 
ATOM     16  C   UNL     1       3.151   5.761  17.871  0.00  0.00    +0.000 A 
ATOM     17  C   UNL     1       2.407   4.619  18.206  0.00  0.00    +0.000 A 
BRANCH  12  19
ATOM     18  C   UNL     1       1.097   2.198  18.758  0.00  0.00    +0.000 C 
ATOM     19  O   UNL     1       2.410   2.401  19.263  0.00  0.00    +0.000 OA
ENDBRANCH  12  19
ENDBRANCH  11  15
ENDBRANCH   1  11
TORSDOF 5
ENDMDL
MODEL 4
REMARK VINA RESULT:      -6.5      1.547      2.109
REMARK  Name = 
REMARK  6 active torsions:
REMARK  status: ('A' for Active; 'I' for Inactive)
REMARK    1  A    between atoms: C_1  and  O_2
REMARK    2  A    between atoms: O_2  and  C_3
REMARK    3  A    between atoms: C_6  and  C_7
REMARK    4  A    between atoms: C_7  and  C_8
REMARK    5  A    between atoms: C_8  and  N_9
REMARK    6  A    between atoms: C_10  and  C_12
REMARK                            x       y       z     vdW  Elec       q    Type
REMARK                         _______ _______ _______ _____ _____    ______ ____
ROOT
ATOM      1  C   UNL     1       7.428   4.655  18.228  0.00  0.00    +0.000 C 
ENDROOT
BRANCH   1   2
ATOM      2  N   UNL     1       7.074   4.342  16.862  0.00  0.00    +0.000 N 
ATOM      3  C   UNL     1       7.226   5.258  15.840  0.00  0.00    +0.000 C 
ATOM      4  O   UNL     1       7.595   6.411  16.040  0.00  0.00    +0.000 OA
ATOM      5  H   UNL     1       6.779   3.406  16.610  0.00  0.00    +0.000 HD
BRANCH   3   6
ATOM      6  C   UNL     1       6.928   4.731  14.526  0.00  0.00    +0.000 A 
ATOM      7  C   UNL     1       7.522   4.967  13.300  0.00  0.00    +0.000 A 
ATOM      8  C   UNL     1       6.827   4.180  12.352  0.00  0.00    +0.000 A 
ATOM      9  C   UNL     1       5.855   3.508  13.052  0.00  0.00    +0.000 A 
ATOM     10  O   UNL     1       5.904   3.830  14.371  0.00  0.00    +0.000 OA
ENDBRANCH   3   6
ENDBRANCH   1   2
BRANCH   1  11
ATOM     11  C   UNL     1       6.377   5.522  18.936  0.00  0.00    +0.000 C 
BRANCH  11  15
ATOM     12  C   UNL     1       2.270   4.200  18.486  0.00  0.00    +0.000 A 
ATOM     13  C   UNL     1       3.181   3.424  19.196  0.00  0.00    +0.000 A 
ATOM     14  C   UNL     1       4.500   3.846  19.359  0.00  0.00    +0.000 A 
ATOM     15  C   UNL     1       4.949   5.037  18.774  0.00  0.00    +0.000 A 
ATOM     16  C   UNL     1       4.023   5.820  18.071  0.00  0.00    +0.000 A 
ATOM     17  C   UNL     1       2.690   5.405  17.924  0.00  0.00    +0.000 A 
BRANCH  12  19
ATOM     18  C   UNL     1       0.870   2.333  18.859  0.00  0.00    +0.000 C 
ATOM     19  O   UNL     1       1.017   3.664  18.382  0.00  0.00    +0.000 OA
ENDBRANCH  12  19
ENDBRANCH  11  15
ENDBRANCH   1  11
TORSDOF 5
ENDMDL
MODEL 5
REMARK VINA RESULT:      -6.4      1.281      1.591
REMARK  Name = 
REMARK  6 active torsions:
REMARK  status: ('A' for Active; 'I' for Inactive)
REMARK    1  A    between atoms: C_1  and  O_2
REMARK    2  A    between atoms: O_2  and  C_3
REMARK    3  A    between atoms: C_6  and  C_7
REMARK    4  A    between atoms: C_7  and  C_8
REMARK    5  A    between atoms: C_8  and  N_9
REMARK    6  A    between atoms: C_10  and  C_12
REMARK                            x       y       z     vdW  Elec       q    Type
REMARK                         _______ _______ _______ _____ _____    ______ ____
ROOT
ATOM      1  C   UNL     1       5.338   6.834  17.140  0.00  0.00    +0.000 C 
ENDROOT
BRANCH   1   2
ATOM      2  N   UNL     1       5.715   6.273  15.862  0.00  0.00    +0.000 N 
ATOM      3  C   UNL     1       6.024   4.935  15.715  0.00  0.00    +0.000 C 
ATOM      4  O   UNL     1       6.072   4.162  16.667  0.00  0.00    +0.000 OA
ATOM      5  H   UNL     1       5.682   6.840  15.023  0.00  0.00    +0.000 HD
BRANCH   3   6
ATOM      6  C   UNL     1       6.265   4.532  14.346  0.00  0.00    +0.000 A 
ATOM      7  C   UNL     1       7.344   4.762  13.512  0.00  0.00    +0.000 A 
ATOM      8  C   UNL     1       7.047   4.134  12.280  0.00  0.00    +0.000 A 
ATOM      9  C   UNL     1       5.811   3.555  12.434  0.00  0.00    +0.000 A 
ATOM     10  O   UNL     1       5.324   3.787  13.681  0.00  0.00    +0.000 OA
ENDBRANCH   3   6
ENDBRANCH   1   2
BRANCH   1  11
ATOM     11  C   UNL     1       3.840   7.156  17.233  0.00  0.00    +0.000 C 
BRANCH  11  15
ATOM     12  C   UNL     1       1.647   4.600  19.968  0.00  0.00    +0.000 A 
ATOM     13  C   UNL     1       2.008   4.130  18.709  0.00  0.00    +0.000 A 
ATOM     14  C   UNL     1       2.725   4.939  17.827  0.00  0.00    +0.000 A 
ATOM     15  C   UNL     1       3.059   6.255  18.171  0.00  0.00    +0.000 A 
ATOM     16  C   UNL     1       2.703   6.717  19.446  0.00  0.00    +0.000 A 
ATOM     17  C   UNL     1       1.999   5.897  20.340  0.00  0.00    +0.000 A 
BRANCH  12  19
ATOM     18  C   UNL     1       1.639   2.574  21.184  0.00  0.00    +0.000 C 
ATOM     19  O   UNL     1       0.930   3.718  20.726  0.00  0.00    +0.000 OA
ENDBRANCH  12  19
ENDBRANCH  11  15
ENDBRANCH   1  11
TORSDOF 5
ENDMDL
MODEL 6
REMARK VINA RESULT:      -6.3      1.270      1.287
REMARK  Name = 
REMARK  6 active torsions:
REMARK  status: ('A' for Active; 'I' for Inactive)
REMARK    1  A    between atoms: C_1  and  O_2
REMARK    2  A    between atoms: O_2  and  C_3
REMARK    3  A    between atoms: C_6  and  C_7
REMARK    4  A    between atoms: C_7  and  C_8
REMARK    5  A    between atoms: C_8  and  N_9
REMARK    6  A    between atoms: C_10  and  C_12
REMARK                            x       y       z     vdW  Elec       q    Type
REMARK                         _______ _______ _______ _____ _____    ______ ____
ROOT
ATOM      1  C   UNL     1       5.330   7.096  16.514  0.00  0.00    +0.000 C 
ENDROOT
BRANCH   1   2
ATOM      2  N   UNL     1       5.456   6.268  15.336  0.00  0.00    +0.000 N 
ATOM      3  C   UNL     1       6.606   5.551  15.067  0.00  0.00    +0.000 C 
ATOM      4  O   UNL     1       7.611   5.635  15.765  0.00  0.00    +0.000 OA
ATOM      5  H   UNL     1       4.664   6.130  14.719  0.00  0.00    +0.000 HD
BRANCH   3   6
ATOM      6  C   UNL     1       6.507   4.691  13.907  0.00  0.00    +0.000 A 
ATOM      7  C   UNL     1       5.583   3.716  13.581  0.00  0.00    +0.000 A 
ATOM      8  C   UNL     1       5.969   3.193  12.324  0.00  0.00    +0.000 A 
ATOM      9  C   UNL     1       7.101   3.880  11.956  0.00  0.00    +0.000 A 
ATOM     10  O   UNL     1       7.439   4.791  12.905  0.00  0.00    +0.000 OA
ENDBRANCH   3   6
ENDBRANCH   1   2
BRANCH   1  11
ATOM     11  C   UNL     1       5.320   6.285  17.818  0.00  0.00    +0.000 C 
BRANCH  11  15
ATOM     12  C   UNL     1       2.449   3.033  17.862  0.00  0.00    +0.000 A 
ATOM     13  C   UNL     1       2.015   4.351  17.965  0.00  0.00    +0.000 A 
ATOM     14  C   UNL     1       2.929   5.405  17.938  0.00  0.00    +0.000 A 
ATOM     15  C   UNL     1       4.305   5.159  17.851  0.00  0.00    +0.000 A 
ATOM     16  C   UNL     1       4.733   3.830  17.735  0.00  0.00    +0.000 A 
ATOM     17  C   UNL     1       3.814   2.770  17.743  0.00  0.00    +0.000 A 
BRANCH  12  19
ATOM     18  C   UNL     1       0.491   2.280  18.949  0.00  0.00    +0.000 C 
ATOM     19  O   UNL     1       1.457   2.095  17.923  0.00  0.00    +0.000 OA
ENDBRANCH  12  19
ENDBRANCH  11  15
ENDBRANCH   1  11
TORSDOF 5
ENDMDL
MODEL 7
REMARK VINA RESULT:      -6.3      1.373      1.695
REMARK  Name = 
REMARK  6 active torsions:
REMARK  status: ('A' for Active; 'I' for Inactive)
REMARK    1  A    between atoms: C_1  and  O_2
REMARK    2  A    between atoms: O_2  and  C_3
REMARK    3  A    between atoms: C_6  and  C_7
REMARK    4  A    between atoms: C_7  and  C_8
REMARK    5  A    between atoms: C_8  and  N_9
REMARK    6  A    between atoms: C_10  and  C_12
REMARK                            x       y       z     vdW  Elec       q    Type
REMARK                         _______ _______ _______ _____ _____    ______ ____
ROOT
ATOM      1  C   UNL     1       7.284   6.034  17.533  0.00  0.00    +0.000 C 
ENDROOT
BRANCH   1   2
ATOM      2  N   UNL     1       7.247   5.315  16.280  0.00  0.00    +0.000 N 
ATOM      3  C   UNL     1       6.321   5.606  15.298  0.00  0.00    +0.000 C 
ATOM      4  O   UNL     1       5.429   6.433  15.460  0.00  0.00    +0.000 OA
ATOM      5  H   UNL     1       7.961   4.630  16.060  0.00  0.00    +0.000 HD
BRANCH   3   6
ATOM      6  C   UNL     1       6.510   4.864  14.070  0.00  0.00    +0.000 A 
ATOM      7  C   UNL     1       5.835   3.770  13.561  0.00  0.00    +0.000 A 
ATOM      8  C   UNL     1       6.440   3.459  12.321  0.00  0.00    +0.000 A 
ATOM      9  C   UNL     1       7.443   4.381  12.143  0.00  0.00    +0.000 A 
ATOM     10  O   UNL     1       7.497   5.240  13.194  0.00  0.00    +0.000 OA
ENDBRANCH   3   6
ENDBRANCH   1   2
BRANCH   1  11
ATOM     11  C   UNL     1       6.893   5.161  18.735  0.00  0.00    +0.000 C 
BRANCH  11  15
ATOM     12  C   UNL     1       2.656   4.280  19.018  0.00  0.00    +0.000 A 
ATOM     13  C   UNL     1       3.084   5.579  18.766  0.00  0.00    +0.000 A 
ATOM     14  C   UNL     1       4.444   5.871  18.659  0.00  0.00    +0.000 A 
ATOM     15  C   UNL     1       5.409   4.873  18.847  0.00  0.00    +0.000 A 
ATOM     16  C   UNL     1       4.969   3.564  19.087  0.00  0.00    +0.000 A 
ATOM     17  C   UNL     1       3.600   3.266  19.176  0.00  0.00    +0.000 A 
BRANCH  12  19
ATOM     18  C   UNL     1       0.844   2.833  19.478  0.00  0.00    +0.000 C 
ATOM     19  O   UNL     1       1.300   4.131  19.119  0.00  0.00    +0.000 OA
ENDBRANCH  12  19
ENDBRANCH  11  15
ENDBRANCH   1  11
TORSDOF 5
ENDMDL
MODEL 8
REMARK VINA RESULT:      -6.3      2.838      6.854
REMARK  Name = 
REMARK  6 active torsions:
REMARK  status: ('A' for Active; 'I' for Inactive)
REMARK    1  A    between atoms: C_1  and  O_2
REMARK    2  A    between atoms: O_2  and  C_3
REMARK    3  A    between atoms: C_6  and  C_7
REMARK    4  A    between atoms: C_7  and  C_8
REMARK    5  A    between atoms: C_8  and  N_9
REMARK    6  A    between atoms: C_10  and  C_12
REMARK                            x       y       z     vdW  Elec       q    Type
REMARK                         _______ _______ _______ _____ _____    ______ ____
ROOT
ATOM      1  C   UNL     1       4.376   3.812  16.300  0.00  0.00    +0.000 C 
ENDROOT
BRANCH   1   2
ATOM      2  N   UNL     1       3.826   3.464  17.590  0.00  0.00    +0.000 N 
ATOM      3  C   UNL     1       3.093   4.364  18.339  0.00  0.00    +0.000 C 
ATOM      4  O   UNL     1       2.932   5.530  17.992  0.00  0.00    +0.000 OA
ATOM      5  H   UNL     1       3.898   2.515  17.940  0.00  0.00    +0.000 HD
BRANCH   3   6
ATOM      6  C   UNL     1       2.527   3.804  19.547  0.00  0.00    +0.000 A 
ATOM      7  C   UNL     1       1.241   3.855  20.051  0.00  0.00    +0.000 A 
ATOM      8  C   UNL     1       1.250   3.130  21.266  0.00  0.00    +0.000 A 
ATOM      9  C   UNL     1       2.536   2.676  21.430  0.00  0.00    +0.000 A 
ATOM     10  O   UNL     1       3.322   3.075  20.396  0.00  0.00    +0.000 OA
ENDBRANCH   3   6
ENDBRANCH   1   2
BRANCH   1  11
ATOM     11  C   UNL     1       5.910   3.764  16.272  0.00  0.00    +0.000 C 
BRANCH  11  15
ATOM     12  C   UNL     1       7.870   7.167  18.115  0.00  0.00    +0.000 A 
ATOM     13  C   UNL     1       8.057   5.888  18.631  0.00  0.00    +0.000 A 
ATOM     14  C   UNL     1       7.442   4.785  18.037  0.00  0.00    +0.000 A 
ATOM     15  C   UNL     1       6.590   4.945  16.938  0.00  0.00    +0.000 A 
ATOM     16  C   UNL     1       6.417   6.234  16.416  0.00  0.00    +0.000 A 
ATOM     17  C   UNL     1       7.050   7.342  17.001  0.00  0.00    +0.000 A 
BRANCH  12  19
ATOM     18  C   UNL     1       8.443   9.457  18.217  0.00  0.00    +0.000 C 
ATOM     19  O   UNL     1       8.509   8.162  18.800  0.00  0.00    +0.000 OA
ENDBRANCH  12  19
ENDBRANCH  11  15
ENDBRANCH   1  11
TORSDOF 5
ENDMDL
MODEL 9
REMARK VINA RESULT:      -6.3      3.115      4.447
REMARK  Name = 
REMARK  6 active torsions:
REMARK  status: ('A' for Active; 'I' for Inactive)
REMARK    1  A    between atoms: C_1  and  O_2
REMARK    2  A    between atoms: O_2  and  C_3
REMARK    3  A    between atoms: C_6  and  C_7
REMARK    4  A    between atoms: C_7  and  C_8
REMARK    5  A    between atoms: C_8  and  N_9
REMARK    6  A    between atoms: C_10  and  C_12
REMARK                            x       y       z     vdW  Elec       q    Type
REMARK                         _______ _______ _______ _____ _____    ______ ____
ROOT
ATOM      1  C   UNL     1       3.597   2.394  17.716  0.00  0.00    +0.000 C 
ENDROOT
BRANCH   1   2
ATOM      2  N   UNL     1       4.651   3.290  18.138  0.00  0.00    +0.000 N 
ATOM      3  C   UNL     1       5.426   3.985  17.231  0.00  0.00    +0.000 C 
ATOM      4  O   UNL     1       5.321   3.826  16.019  0.00  0.00    +0.000 OA
ATOM      5  H   UNL     1       4.789   3.491  19.122  0.00  0.00    +0.000 HD
BRANCH   3   6
ATOM      6  C   UNL     1       6.351   4.918  17.838  0.00  0.00    +0.000 A 
ATOM      7  C   UNL     1       6.939   6.064  17.336  0.00  0.00    +0.000 A 
ATOM      8  C   UNL     1       7.755   6.587  18.367  0.00  0.00    +0.000 A 
ATOM      9  C   UNL     1       7.614   5.736  19.436  0.00  0.00    +0.000 A 
ATOM     10  O   UNL     1       6.765   4.720  19.131  0.00  0.00    +0.000 OA
ENDBRANCH   3   6
ENDBRANCH   1   2
BRANCH   1  11
ATOM     11  C   UNL     1       2.206   2.845  18.183  0.00  0.00    +0.000 C 
BRANCH  11  15
ATOM     12  C   UNL     1       2.112   6.896  19.730  0.00  0.00    +0.000 A 
ATOM     13  C   UNL     1       1.943   5.816  20.590  0.00  0.00    +0.000 A 
ATOM     14  C   UNL     1       1.986   4.508  20.105  0.00  0.00    +0.000 A 
ATOM     15  C   UNL     1       2.154   4.255  18.738  0.00  0.00    +0.000 A 
ATOM     16  C   UNL     1       2.336   5.349  17.880  0.00  0.00    +0.000 A 
ATOM     17  C   UNL     1       2.313   6.664  18.370  0.00  0.00    +0.000 A 
BRANCH  12  19
ATOM     18  C   UNL     1       0.948   8.299  21.233  0.00  0.00    +0.000 C 
ATOM     19  O   UNL     1       2.028   8.124  20.326  0.00  0.00    +0.000 OA
ENDBRANCH  12  19
ENDBRANCH  11  15
ENDBRANCH   1  11
TORSDOF 5
ENDMDL
