MODEL 1
REMARK VINA RESULT:      -7.1      0.000      0.000
REMARK  Name = 
REMARK  4 active torsions:
REMARK  status: ('A' for Active; 'I' for Inactive)
REMARK    1  A    between atoms: C_2  and  C_3
REMARK    2  A    between atoms: C_14  and  C_15
REMARK    3  A    between atoms: C_20  and  N_21
REMARK    4  A    between atoms: C_24  and  O_25
REMARK                            x       y       z     vdW  Elec       q    Type
REMARK                         _______ _______ _______ _____ _____    ______ ____
ROOT
ATOM      1  O   UNL     1      -3.096   9.377  17.699  0.00  0.00    +0.000 OA
ATOM      2  C   UNL     1      -3.110  10.584  17.942  0.00  0.00    +0.000 C 
ATOM      3  N   UNL     1      -1.961  11.315  18.129  0.00  0.00    +0.000 N 
ATOM      4  C   UNL     1      -0.616  10.813  18.200  0.00  0.00    +0.000 C 
ATOM      5  C   UNL     1      -0.408  11.704  19.448  0.00  0.00    +0.000 C 
ATOM      6  C   UNL     1      -1.727  12.405  19.071  0.00  0.00    +0.000 C 
ENDROOT
BRANCH   2   7
ATOM      7  C   UNL     1      -4.334  11.353  17.966  0.00  0.00    +0.000 A 
ATOM      8  N   UNL     1      -5.070  11.568  19.043  0.00  0.00    +0.000 NA
ATOM      9  C   UNL     1      -6.039  12.446  18.655  0.00  0.00    +0.000 A 
ATOM     10  C   UNL     1      -7.052  13.031  19.419  0.00  0.00    +0.000 A 
ATOM     11  C   UNL     1      -7.916  13.933  18.794  0.00  0.00    +0.000 A 
ATOM     12  C   UNL     1      -7.775  14.236  17.436  0.00  0.00    +0.000 A 
ATOM     13  C   UNL     1      -6.767  13.652  16.656  0.00  0.00    +0.000 A 
ATOM     14  C   UNL     1      -5.916  12.761  17.306  0.00  0.00    +0.000 A 
ATOM     15  N   UNL     1      -4.835  12.035  16.887  0.00  0.00    +0.000 N 
ATOM     16  H   UNL     1      -4.420  12.030  15.964  0.00  0.00    +0.000 HD
ENDBRANCH   2   7
BRANCH   5  17
ATOM     17  C   UNL     1      -0.253  10.930  20.820  0.00  0.00    +0.000 A 
ATOM     18  N   UNL     1       0.497   9.791  20.701  0.00  0.00    +0.000 NA
ATOM     19  C   UNL     1       0.680   9.064  21.818  0.00  0.00    +0.000 A 
ATOM     20  C   UNL     1       0.138   9.443  23.025  0.00  0.00    +0.000 A 
ATOM     21  N   UNL     1      -0.616  10.556  23.166  0.00  0.00    +0.000 NA
ATOM     22  C   UNL     1      -0.816  11.327  22.066  0.00  0.00    +0.000 A 
BRANCH  22  23
ATOM     23  N   UNL     1      -1.603  12.461  22.217  0.00  0.00    +0.000 N 
ATOM     24  C   UNL     1      -3.034  12.297  22.478  0.00  0.00    +0.000 C 
ATOM     25  C   UNL     1      -3.413  12.815  23.864  0.00  0.00    +0.000 C 
ATOM     26  C   UNL     1      -2.881  14.221  24.121  0.00  0.00    +0.000 C 
ATOM     27  C   UNL     1      -1.386  14.284  23.874  0.00  0.00    +0.000 C 
ATOM     28  C   UNL     1      -1.021  13.767  22.494  0.00  0.00    +0.000 C 
BRANCH  26  29
ATOM     29  O   UNL     1      -3.561  15.189  23.323  0.00  0.00    +0.000 OA
ATOM     30  H   UNL     1      -4.310  15.552  23.826  0.00  0.00    +0.000 HD
ENDBRANCH  26  29
ENDBRANCH  22  23
ENDBRANCH   5  17
TORSDOF 4
ENDMDL
MODEL 2
REMARK VINA RESULT:      -6.9      3.840      7.019
REMARK  Name = 
REMARK  4 active torsions:
REMARK  status: ('A' for Active; 'I' for Inactive)
REMARK    1  A    between atoms: C_2  and  C_3
REMARK    2  A    between atoms: C_14  and  C_15
REMARK    3  A    between atoms: C_20  and  N_21
REMARK    4  A    between atoms: C_24  and  O_25
REMARK                            x       y       z     vdW  Elec       q    Type
REMARK                         _______ _______ _______ _____ _____    ______ ____
ROOT
ATOM      1  O   UNL     1       1.033  12.187  21.678  0.00  0.00    +0.000 OA
ATOM      2  C   UNL     1       0.120  11.367  21.782  0.00  0.00    +0.000 C 
ATOM      3  N   UNL     1       0.344  10.044  22.082  0.00  0.00    +0.000 N 
ATOM      4  C   UNL     1       1.616   9.384  22.198  0.00  0.00    +0.000 C 
ATOM      5  C   UNL     1       1.039   8.239  21.331  0.00  0.00    +0.000 C 
ATOM      6  C   UNL     1      -0.348   8.869  21.562  0.00  0.00    +0.000 C 
ENDROOT
BRANCH   2   7
ATOM      7  C   UNL     1      -1.272  11.743  21.681  0.00  0.00    +0.000 A 
ATOM      8  N   UNL     1      -2.062  11.996  22.711  0.00  0.00    +0.000 NA
ATOM      9  C   UNL     1      -3.232  12.444  22.174  0.00  0.00    +0.000 A 
ATOM     10  C   UNL     1      -4.386  12.889  22.825  0.00  0.00    +0.000 A 
ATOM     11  C   UNL     1      -5.458  13.331  22.046  0.00  0.00    +0.000 A 
ATOM     12  C   UNL     1      -5.380  13.321  20.650  0.00  0.00    +0.000 A 
ATOM     13  C   UNL     1      -4.232  12.873  19.983  0.00  0.00    +0.000 A 
ATOM     14  C   UNL     1      -3.176  12.444  20.784  0.00  0.00    +0.000 A 
ATOM     15  N   UNL     1      -1.923  11.972  20.497  0.00  0.00    +0.000 N 
ATOM     16  H   UNL     1      -1.505  11.860  19.582  0.00  0.00    +0.000 HD
ENDBRANCH   2   7
BRANCH   5  17
ATOM     17  C   UNL     1       1.650   8.111  19.877  0.00  0.00    +0.000 A 
ATOM     18  N   UNL     1       1.449   9.234  19.119  0.00  0.00    +0.000 NA
ATOM     19  C   UNL     1       1.932   9.215  17.864  0.00  0.00    +0.000 A 
ATOM     20  C   UNL     1       2.595   8.121  17.360  0.00  0.00    +0.000 A 
ATOM     21  N   UNL     1       2.796   6.996  18.083  0.00  0.00    +0.000 NA
ATOM     22  C   UNL     1       2.336   6.976  19.361  0.00  0.00    +0.000 A 
BRANCH  22  23
ATOM     23  N   UNL     1       2.535   5.812  20.091  0.00  0.00    +0.000 N 
ATOM     24  C   UNL     1       1.391   5.199  20.769  0.00  0.00    +0.000 C 
ATOM     25  C   UNL     1       1.057   3.831  20.178  0.00  0.00    +0.000 C 
ATOM     26  C   UNL     1       2.285   2.931  20.074  0.00  0.00    +0.000 C 
ATOM     27  C   UNL     1       3.400   3.628  19.316  0.00  0.00    +0.000 C 
ATOM     28  C   UNL     1       3.722   4.987  19.911  0.00  0.00    +0.000 C 
BRANCH  26  29
ATOM     29  O   UNL     1       2.740   2.519  21.362  0.00  0.00    +0.000 OA
ATOM     30  H   UNL     1       3.493   1.914  21.258  0.00  0.00    +0.000 HD
ENDBRANCH  26  29
ENDBRANCH  22  23
ENDBRANCH   5  17
TORSDOF 4
ENDMDL
MODEL 3
REMARK VINA RESULT:      -6.9      7.693     11.106
REMARK  Name = 
REMARK  4 active torsions:
REMARK  status: ('A' for Active; 'I' for Inactive)
REMARK    1  A    between atoms: C_2  and  C_3
REMARK    2  A    between atoms: C_14  and  C_15
REMARK    3  A    between atoms: C_20  and  N_21
REMARK    4  A    between atoms: C_24  and  O_25
REMARK                            x       y       z     vdW  Elec       q    Type
REMARK                         _______ _______ _______ _____ _____    ______ ____
ROOT
ATOM      1  O   UNL     1       7.132   4.136  18.215  0.00  0.00    +0.000 OA
ATOM      2  C   UNL     1       6.609   4.844  17.354  0.00  0.00    +0.000 C 
ATOM      3  N   UNL     1       5.953   6.014  17.656  0.00  0.00    +0.000 N 
ATOM      4  C   UNL     1       5.661   6.532  18.964  0.00  0.00    +0.000 C 
ATOM      5  C   UNL     1       4.221   6.813  18.472  0.00  0.00    +0.000 C 
ATOM      6  C   UNL     1       4.742   6.555  17.045  0.00  0.00    +0.000 C 
ENDROOT
BRANCH   2   7
ATOM      7  C   UNL     1       6.715   4.550  15.943  0.00  0.00    +0.000 A 
ATOM      8  N   UNL     1       5.966   3.673  15.296  0.00  0.00    +0.000 NA
ATOM      9  C   UNL     1       6.293   3.812  13.979  0.00  0.00    +0.000 A 
ATOM     10  C   UNL     1       5.764   3.151  12.867  0.00  0.00    +0.000 A 
ATOM     11  C   UNL     1       6.249   3.492  11.602  0.00  0.00    +0.000 A 
ATOM     12  C   UNL     1       7.244   4.464  11.455  0.00  0.00    +0.000 A 
ATOM     13  C   UNL     1       7.788   5.130  12.561  0.00  0.00    +0.000 A 
ATOM     14  C   UNL     1       7.282   4.775  13.810  0.00  0.00    +0.000 A 
ATOM     15  N   UNL     1       7.547   5.214  15.079  0.00  0.00    +0.000 N 
ATOM     16  H   UNL     1       8.194   5.942  15.354  0.00  0.00    +0.000 HD
ENDBRANCH   2   7
BRANCH   5  17
ATOM     17  C   UNL     1       3.093   5.904  19.110  0.00  0.00    +0.000 A 
ATOM     18  N   UNL     1       3.232   4.582  18.780  0.00  0.00    +0.000 NA
ATOM     19  C   UNL     1       2.313   3.733  19.275  0.00  0.00    +0.000 A 
ATOM     20  C   UNL     1       1.281   4.168  20.074  0.00  0.00    +0.000 A 
ATOM     21  N   UNL     1       1.116   5.468  20.404  0.00  0.00    +0.000 NA
ATOM     22  C   UNL     1       2.028   6.359  19.936  0.00  0.00    +0.000 A 
BRANCH  22  23
ATOM     23  N   UNL     1       1.842   7.695  20.269  0.00  0.00    +0.000 N 
ATOM     24  C   UNL     1       1.806   8.691  19.197  0.00  0.00    +0.000 C 
ATOM     25  C   UNL     1       0.431   9.348  19.088  0.00  0.00    +0.000 C 
ATOM     26  C   UNL     1      -0.077   9.851  20.435  0.00  0.00    +0.000 C 
ATOM     27  C   UNL     1      -0.051   8.741  21.469  0.00  0.00    +0.000 C 
ATOM     28  C   UNL     1       1.320   8.096  21.568  0.00  0.00    +0.000 C 
BRANCH  26  29
ATOM     29  O   UNL     1       0.676  10.975  20.889  0.00  0.00    +0.000 OA
ATOM     30  H   UNL     1       1.584  10.693  21.089  0.00  0.00    +0.000 HD
ENDBRANCH  26  29
ENDBRANCH  22  23
ENDBRANCH   5  17
TORSDOF 4
ENDMDL
MODEL 4
REMARK VINA RESULT:      -6.9      3.907      7.126
REMARK  Name = 
REMARK  4 active torsions:
REMARK  status: ('A' for Active; 'I' for Inactive)
REMARK    1  A    between atoms: C_2  and  C_3
REMARK    2  A    between atoms: C_14  and  C_15
REMARK    3  A    between atoms: C_20  and  N_21
REMARK    4  A    between atoms: C_24  and  O_25
REMARK                            x       y       z     vdW  Elec       q    Type
REMARK                         _______ _______ _______ _____ _____    ______ ____
ROOT
ATOM      1  O   UNL     1       1.326  12.166  21.507  0.00  0.00    +0.000 OA
ATOM      2  C   UNL     1       0.351  11.419  21.591  0.00  0.00    +0.000 C 
ATOM      3  N   UNL     1       0.463  10.090  21.921  0.00  0.00    +0.000 N 
ATOM      4  C   UNL     1       1.677   9.338  22.094  0.00  0.00    +0.000 C 
ATOM      5  C   UNL     1       1.045   8.223  21.227  0.00  0.00    +0.000 C 
ATOM      6  C   UNL     1      -0.297   8.959  21.396  0.00  0.00    +0.000 C 
ENDROOT
BRANCH   2   7
ATOM      7  C   UNL     1      -1.005  11.896  21.433  0.00  0.00    +0.000 A 
ATOM      8  N   UNL     1      -1.627  12.032  20.275  0.00  0.00    +0.000 NA
ATOM      9  C   UNL     1      -2.912  12.367  20.587  0.00  0.00    +0.000 A 
ATOM     10  C   UNL     1      -3.996  12.585  19.733  0.00  0.00    +0.000 A 
ATOM     11  C   UNL     1      -5.236  12.891  20.300  0.00  0.00    +0.000 A 
ATOM     12  C   UNL     1      -5.384  12.985  21.687  0.00  0.00    +0.000 A 
ATOM     13  C   UNL     1      -4.305  12.776  22.556  0.00  0.00    +0.000 A 
ATOM     14  C   UNL     1      -3.082  12.465  21.964  0.00  0.00    +0.000 A 
ATOM     15  N   UNL     1      -1.846  12.181  22.478  0.00  0.00    +0.000 N 
ATOM     16  H   UNL     1      -1.586  12.125  23.454  0.00  0.00    +0.000 HD
ENDBRANCH   2   7
BRANCH   5  17
ATOM     17  C   UNL     1       1.695   8.021  19.798  0.00  0.00    +0.000 A 
ATOM     18  N   UNL     1       1.542   9.116  18.989  0.00  0.00    +0.000 NA
ATOM     19  C   UNL     1       2.061   9.033  17.751  0.00  0.00    +0.000 A 
ATOM     20  C   UNL     1       2.713   7.905  17.312  0.00  0.00    +0.000 A 
ATOM     21  N   UNL     1       2.866   6.807  18.086  0.00  0.00    +0.000 NA
ATOM     22  C   UNL     1       2.369   6.850  19.350  0.00  0.00    +0.000 A 
BRANCH  22  23
ATOM     23  N   UNL     1       2.519   5.713  20.133  0.00  0.00    +0.000 N 
ATOM     24  C   UNL     1       1.331   5.115  20.744  0.00  0.00    +0.000 C 
ATOM     25  C   UNL     1       1.051   3.724  20.177  0.00  0.00    +0.000 C 
ATOM     26  C   UNL     1       2.289   2.832  20.196  0.00  0.00    +0.000 C 
ATOM     27  C   UNL     1       3.453   3.512  19.500  0.00  0.00    +0.000 C 
ATOM     28  C   UNL     1       3.722   4.893  20.071  0.00  0.00    +0.000 C 
BRANCH  26  29
ATOM     29  O   UNL     1       2.648   2.468  21.529  0.00  0.00    +0.000 OA
ATOM     30  H   UNL     1       3.430   1.892  21.505  0.00  0.00    +0.000 HD
ENDBRANCH  26  29
ENDBRANCH  22  23
ENDBRANCH   5  17
TORSDOF 4
ENDMDL
MODEL 5
REMARK VINA RESULT:      -6.7      5.688      8.724
REMARK  Name = 
REMARK  4 active torsions:
REMARK  status: ('A' for Active; 'I' for Inactive)
REMARK    1  A    between atoms: C_2  and  C_3
REMARK    2  A    between atoms: C_14  and  C_15
REMARK    3  A    between atoms: C_20  and  N_21
REMARK    4  A    between atoms: C_24  and  O_25
REMARK                            x       y       z     vdW  Elec       q    Type
REMARK                         _______ _______ _______ _____ _____    ______ ____
ROOT
ATOM      1  O   UNL     1       2.556   8.981  17.089  0.00  0.00    +0.000 OA
ATOM      2  C   UNL     1       1.853   8.819  18.086  0.00  0.00    +0.000 C 
ATOM      3  N   UNL     1       2.274   8.105  19.182  0.00  0.00    +0.000 N 
ATOM      4  C   UNL     1       3.491   7.350  19.310  0.00  0.00    +0.000 C 
ATOM      5  C   UNL     1       2.649   6.198  19.910  0.00  0.00    +0.000 C 
ATOM      6  C   UNL     1       1.495   7.211  20.034  0.00  0.00    +0.000 C 
ENDROOT
BRANCH   2   7
ATOM      7  C   UNL     1       0.555   9.441  18.225  0.00  0.00    +0.000 A 
ATOM      8  N   UNL     1       0.200  10.233  19.223  0.00  0.00    +0.000 NA
ATOM      9  C   UNL     1      -1.036  10.707  18.893  0.00  0.00    +0.000 A 
ATOM     10  C   UNL     1      -1.843  11.613  19.585  0.00  0.00    +0.000 A 
ATOM     11  C   UNL     1      -3.071  11.969  19.023  0.00  0.00    +0.000 A 
ATOM     12  C   UNL     1      -3.484  11.425  17.802  0.00  0.00    +0.000 A 
ATOM     13  C   UNL     1      -2.688  10.510  17.100  0.00  0.00    +0.000 A 
ATOM     14  C   UNL     1      -1.466  10.178  17.681  0.00  0.00    +0.000 A 
ATOM     15  N   UNL     1      -0.442   9.358  17.288  0.00  0.00    +0.000 N 
ATOM     16  H   UNL     1      -0.380   8.822  16.432  0.00  0.00    +0.000 HD
ENDBRANCH   2   7
BRANCH   5  17
ATOM     17  C   UNL     1       2.514   4.909  19.002  0.00  0.00    +0.000 A 
ATOM     18  N   UNL     1       1.413   4.158  19.313  0.00  0.00    +0.000 NA
ATOM     19  C   UNL     1       1.218   3.037  18.594  0.00  0.00    +0.000 A 
ATOM     20  C   UNL     1       2.083   2.660  17.593  0.00  0.00    +0.000 A 
ATOM     21  N   UNL     1       3.184   3.378  17.275  0.00  0.00    +0.000 NA
ATOM     22  C   UNL     1       3.413   4.524  17.967  0.00  0.00    +0.000 A 
BRANCH  22  23
ATOM     23  N   UNL     1       4.553   5.247  17.643  0.00  0.00    +0.000 N 
ATOM     24  C   UNL     1       5.827   4.871  18.258  0.00  0.00    +0.000 C 
ATOM     25  C   UNL     1       6.819   4.355  17.219  0.00  0.00    +0.000 C 
ATOM     26  C   UNL     1       6.948   5.295  16.025  0.00  0.00    +0.000 C 
ATOM     27  C   UNL     1       5.587   5.589  15.422  0.00  0.00    +0.000 C 
ATOM     28  C   UNL     1       4.609   6.102  16.464  0.00  0.00    +0.000 C 
BRANCH  26  29
ATOM     29  O   UNL     1       7.607   6.508  16.386  0.00  0.00    +0.000 OA
ATOM     30  H   UNL     1       7.236   7.242  15.868  0.00  0.00    +0.000 HD
ENDBRANCH  26  29
ENDBRANCH  22  23
ENDBRANCH   5  17
TORSDOF 4
ENDMDL
MODEL 6
REMARK VINA RESULT:      -6.7      2.884      7.077
REMARK  Name = 
REMARK  4 active torsions:
REMARK  status: ('A' for Active; 'I' for Inactive)
REMARK    1  A    between atoms: C_2  and  C_3
REMARK    2  A    between atoms: C_14  and  C_15
REMARK    3  A    between atoms: C_20  and  N_21
REMARK    4  A    between atoms: C_24  and  O_25
REMARK                            x       y       z     vdW  Elec       q    Type
REMARK                         _______ _______ _______ _____ _____    ______ ____
ROOT
ATOM      1  O   UNL     1      -0.649   8.015  22.020  0.00  0.00    +0.000 OA
ATOM      2  C   UNL     1       0.195   8.649  21.387  0.00  0.00    +0.000 C 
ATOM      3  N   UNL     1       0.386  10.000  21.553  0.00  0.00    +0.000 N 
ATOM      4  C   UNL     1      -0.403  10.895  22.356  0.00  0.00    +0.000 C 
ATOM      5  C   UNL     1      -0.408  11.876  21.159  0.00  0.00    +0.000 C 
ATOM      6  C   UNL     1       0.698  11.002  20.538  0.00  0.00    +0.000 C 
ENDROOT
BRANCH   2   7
ATOM      7  C   UNL     1       1.118   8.011  20.475  0.00  0.00    +0.000 A 
ATOM      8  N   UNL     1       1.478   8.500  19.300  0.00  0.00    +0.000 NA
ATOM      9  C   UNL     1       2.455   7.667  18.840  0.00  0.00    +0.000 A 
ATOM     10  C   UNL     1       3.204   7.754  17.664  0.00  0.00    +0.000 A 
ATOM     11  C   UNL     1       4.179   6.783  17.426  0.00  0.00    +0.000 A 
ATOM     12  C   UNL     1       4.394   5.745  18.339  0.00  0.00    +0.000 A 
ATOM     13  C   UNL     1       3.647   5.641  19.520  0.00  0.00    +0.000 A 
ATOM     14  C   UNL     1       2.685   6.627  19.735  0.00  0.00    +0.000 A 
ATOM     15  N   UNL     1       1.805   6.859  20.757  0.00  0.00    +0.000 N 
ATOM     16  H   UNL     1       1.701   6.325  21.610  0.00  0.00    +0.000 HD
ENDBRANCH   2   7
BRANCH   5  17
ATOM     17  C   UNL     1      -1.805  12.065  20.439  0.00  0.00    +0.000 A 
ATOM     18  N   UNL     1      -1.834  11.509  19.188  0.00  0.00    +0.000 NA
ATOM     19  C   UNL     1      -2.982  11.624  18.497  0.00  0.00    +0.000 A 
ATOM     20  C   UNL     1      -4.079  12.271  19.019  0.00  0.00    +0.000 A 
ATOM     21  N   UNL     1      -4.072  12.839  20.245  0.00  0.00    +0.000 NA
ATOM     22  C   UNL     1      -2.936  12.735  20.983  0.00  0.00    +0.000 A 
BRANCH  22  23
ATOM     23  N   UNL     1      -2.935  13.334  22.237  0.00  0.00    +0.000 N 
ATOM     24  C   UNL     1      -2.734  14.781  22.328  0.00  0.00    +0.000 C 
ATOM     25  C   UNL     1      -3.978  15.485  22.868  0.00  0.00    +0.000 C 
ATOM     26  C   UNL     1      -4.499  14.838  24.147  0.00  0.00    +0.000 C 
ATOM     27  C   UNL     1      -4.723  13.351  23.944  0.00  0.00    +0.000 C 
ATOM     28  C   UNL     1      -3.481  12.662  23.408  0.00  0.00    +0.000 C 
BRANCH  26  29
ATOM     29  O   UNL     1      -3.615  15.065  25.244  0.00  0.00    +0.000 OA
ATOM     30  H   UNL     1      -2.828  14.503  25.143  0.00  0.00    +0.000 HD
ENDBRANCH  26  29
ENDBRANCH  22  23
ENDBRANCH   5  17
TORSDOF 4
ENDMDL
MODEL 7
REMARK VINA RESULT:      -6.6      4.103      7.899
REMARK  Name = 
REMARK  4 active torsions:
REMARK  status: ('A' for Active; 'I' for Inactive)
REMARK    1  A    between atoms: C_2  and  C_3
REMARK    2  A    between atoms: C_14  and  C_15
REMARK    3  A    between atoms: C_20  and  N_21
REMARK    4  A    between atoms: C_24  and  O_25
REMARK                            x       y       z     vdW  Elec       q    Type
REMARK                         _______ _______ _______ _____ _____    ______ ____
ROOT
ATOM      1  O   UNL     1       1.111   7.475  20.613  0.00  0.00    +0.000 OA
ATOM      2  C   UNL     1       1.696   7.988  19.658  0.00  0.00    +0.000 C 
ATOM      3  N   UNL     1       1.732   9.347  19.456  0.00  0.00    +0.000 N 
ATOM      4  C   UNL     1       1.029  10.354  20.202  0.00  0.00    +0.000 C 
ATOM      5  C   UNL     1       0.620  10.991  18.853  0.00  0.00    +0.000 C 
ATOM      6  C   UNL     1       1.667  10.075  18.192  0.00  0.00    +0.000 C 
ENDROOT
BRANCH   2   7
ATOM      7  C   UNL     1       2.468   7.210  18.716  0.00  0.00    +0.000 A 
ATOM      8  N   UNL     1       3.410   7.698  17.926  0.00  0.00    +0.000 NA
ATOM      9  C   UNL     1       3.972   6.617  17.314  0.00  0.00    +0.000 A 
ATOM     10  C   UNL     1       5.039   6.572  16.414  0.00  0.00    +0.000 A 
ATOM     11  C   UNL     1       5.456   5.325  15.942  0.00  0.00    +0.000 A 
ATOM     12  C   UNL     1       4.816   4.152  16.356  0.00  0.00    +0.000 A 
ATOM     13  C   UNL     1       3.740   4.182  17.254  0.00  0.00    +0.000 A 
ATOM     14  C   UNL     1       3.349   5.438  17.713  0.00  0.00    +0.000 A 
ATOM     15  N   UNL     1       2.381   5.847  18.589  0.00  0.00    +0.000 N 
ATOM     16  H   UNL     1       1.741   5.264  19.112  0.00  0.00    +0.000 HD
ENDBRANCH   2   7
BRANCH   5  17
ATOM     17  C   UNL     1      -0.916  10.881  18.485  0.00  0.00    +0.000 A 
ATOM     18  N   UNL     1      -1.165   9.918  17.543  0.00  0.00    +0.000 NA
ATOM     19  C   UNL     1      -2.445   9.755  17.164  0.00  0.00    +0.000 A 
ATOM     20  C   UNL     1      -3.459  10.518  17.694  0.00  0.00    +0.000 A 
ATOM     21  N   UNL     1      -3.238  11.483  18.615  0.00  0.00    +0.000 NA
ATOM     22  C   UNL     1      -1.961  11.673  19.036  0.00  0.00    +0.000 A 
BRANCH  22  23
ATOM     23  N   UNL     1      -1.742  12.675  19.972  0.00  0.00    +0.000 N 
ATOM     24  C   UNL     1      -1.931  12.369  21.391  0.00  0.00    +0.000 C 
ATOM     25  C   UNL     1      -0.615  12.455  22.162  0.00  0.00    +0.000 C 
ATOM     26  C   UNL     1       0.130  13.758  21.890  0.00  0.00    +0.000 C 
ATOM     27  C   UNL     1       0.322  13.968  20.400  0.00  0.00    +0.000 C 
ATOM     28  C   UNL     1      -0.992  13.880  19.645  0.00  0.00    +0.000 C 
BRANCH  26  29
ATOM     29  O   UNL     1      -0.545  14.874  22.469  0.00  0.00    +0.000 OA
ATOM     30  H   UNL     1      -1.340  14.563  22.934  0.00  0.00    +0.000 HD
ENDBRANCH  26  29
ENDBRANCH  22  23
ENDBRANCH   5  17
TORSDOF 4
ENDMDL
MODEL 8
REMARK VINA RESULT:      -6.6      5.873      9.410
REMARK  Name = 
REMARK  4 active torsions:
REMARK  status: ('A' for Active; 'I' for Inactive)
REMARK    1  A    between atoms: C_2  and  C_3
REMARK    2  A    between atoms: C_14  and  C_15
REMARK    3  A    between atoms: C_20  and  N_21
REMARK    4  A    between atoms: C_24  and  O_25
REMARK                            x       y       z     vdW  Elec       q    Type
REMARK                         _______ _______ _______ _____ _____    ______ ____
ROOT
ATOM      1  O   UNL     1       0.867   8.707  17.206  0.00  0.00    +0.000 OA
ATOM      2  C   UNL     1       1.403   8.701  18.315  0.00  0.00    +0.000 C 
ATOM      3  N   UNL     1       2.636   8.136  18.538  0.00  0.00    +0.000 N 
ATOM      4  C   UNL     1       3.425   7.379  17.605  0.00  0.00    +0.000 C 
ATOM      5  C   UNL     1       3.658   6.341  18.729  0.00  0.00    +0.000 C 
ATOM      6  C   UNL     1       3.090   7.387  19.706  0.00  0.00    +0.000 C 
ENDROOT
BRANCH   2   7
ATOM      7  C   UNL     1       0.820   9.365  19.459  0.00  0.00    +0.000 A 
ATOM      8  N   UNL     1       0.217  10.542  19.423  0.00  0.00    +0.000 NA
ATOM      9  C   UNL     1      -0.303  10.725  20.670  0.00  0.00    +0.000 A 
ATOM     10  C   UNL     1      -1.071  11.787  21.154  0.00  0.00    +0.000 A 
ATOM     11  C   UNL     1      -1.517  11.732  22.477  0.00  0.00    +0.000 A 
ATOM     12  C   UNL     1      -1.195  10.645  23.297  0.00  0.00    +0.000 A 
ATOM     13  C   UNL     1      -0.421   9.576  22.826  0.00  0.00    +0.000 A 
ATOM     14  C   UNL     1       0.005   9.654  21.502  0.00  0.00    +0.000 A 
ATOM     15  N   UNL     1       0.739   8.812  20.711  0.00  0.00    +0.000 N 
ATOM     16  H   UNL     1       1.116   7.907  20.962  0.00  0.00    +0.000 HD
ENDBRANCH   2   7
BRANCH   5  17
ATOM     17  C   UNL     1       2.949   4.942  18.521  0.00  0.00    +0.000 A 
ATOM     18  N   UNL     1       1.729   4.872  19.139  0.00  0.00    +0.000 NA
ATOM     19  C   UNL     1       1.053   3.715  19.020  0.00  0.00    +0.000 A 
ATOM     20  C   UNL     1       1.559   2.649  18.314  0.00  0.00    +0.000 A 
ATOM     21  N   UNL     1       2.766   2.689  17.705  0.00  0.00    +0.000 NA
ATOM     22  C   UNL     1       3.478   3.842  17.789  0.00  0.00    +0.000 A 
BRANCH  22  23
ATOM     23  N   UNL     1       4.722   3.868  17.172  0.00  0.00    +0.000 N 
ATOM     24  C   UNL     1       4.793   4.150  15.737  0.00  0.00    +0.000 C 
ATOM     25  C   UNL     1       5.509   5.471  15.461  0.00  0.00    +0.000 C 
ATOM     26  C   UNL     1       6.845   5.568  16.190  0.00  0.00    +0.000 C 
ATOM     27  C   UNL     1       6.668   5.310  17.675  0.00  0.00    +0.000 C 
ATOM     28  C   UNL     1       5.955   3.995  17.937  0.00  0.00    +0.000 C 
BRANCH  26  29
ATOM     29  O   UNL     1       7.806   4.668  15.638  0.00  0.00    +0.000 OA
ATOM     30  H   UNL     1       8.683   4.872  16.003  0.00  0.00    +0.000 HD
ENDBRANCH  26  29
ENDBRANCH  22  23
ENDBRANCH   5  17
TORSDOF 4
ENDMDL
MODEL 9
REMARK VINA RESULT:      -6.6      2.762      6.842
REMARK  Name = 
REMARK  4 active torsions:
REMARK  status: ('A' for Active; 'I' for Inactive)
REMARK    1  A    between atoms: C_2  and  C_3
REMARK    2  A    between atoms: C_14  and  C_15
REMARK    3  A    between atoms: C_20  and  N_21
REMARK    4  A    between atoms: C_24  and  O_25
REMARK                            x       y       z     vdW  Elec       q    Type
REMARK                         _______ _______ _______ _____ _____    ______ ____
ROOT
ATOM      1  O   UNL     1      -0.809   8.552  22.319  0.00  0.00    +0.000 OA
ATOM      2  C   UNL     1      -0.035   9.202  21.616  0.00  0.00    +0.000 C 
ATOM      3  N   UNL     1       0.017  10.575  21.644  0.00  0.00    +0.000 N 
ATOM      4  C   UNL     1      -0.857  11.461  22.362  0.00  0.00    +0.000 C 
ATOM      5  C   UNL     1      -0.964  12.311  21.073  0.00  0.00    +0.000 C 
ATOM      6  C   UNL     1       0.224  11.496  20.530  0.00  0.00    +0.000 C 
ENDROOT
BRANCH   2   7
ATOM      7  C   UNL     1       0.946   8.571  20.761  0.00  0.00    +0.000 A 
ATOM      8  N   UNL     1       1.511   7.399  20.998  0.00  0.00    +0.000 NA
ATOM      9  C   UNL     1       2.254   7.120  19.889  0.00  0.00    +0.000 A 
ATOM     10  C   UNL     1       3.017   5.985  19.604  0.00  0.00    +0.000 A 
ATOM     11  C   UNL     1       3.673   5.919  18.372  0.00  0.00    +0.000 A 
ATOM     12  C   UNL     1       3.573   6.967  17.451  0.00  0.00    +0.000 A 
ATOM     13  C   UNL     1       2.816   8.114  17.725  0.00  0.00    +0.000 A 
ATOM     14  C   UNL     1       2.168   8.151  18.958  0.00  0.00    +0.000 A 
ATOM     15  N   UNL     1       1.345   9.072  19.549  0.00  0.00    +0.000 N 
ATOM     16  H   UNL     1       1.024   9.947  19.157  0.00  0.00    +0.000 HD
ENDBRANCH   2   7
BRANCH   5  17
ATOM     17  C   UNL     1      -2.374  12.285  20.355  0.00  0.00    +0.000 A 
ATOM     18  N   UNL     1      -2.341  11.629  19.153  0.00  0.00    +0.000 NA
ATOM     19  C   UNL     1      -3.496  11.559  18.467  0.00  0.00    +0.000 A 
ATOM     20  C   UNL     1      -4.657  12.121  18.945  0.00  0.00    +0.000 A 
ATOM     21  N   UNL     1      -4.713  12.784  20.122  0.00  0.00    +0.000 NA
ATOM     22  C   UNL     1      -3.573  12.867  20.854  0.00  0.00    +0.000 A 
BRANCH  22  23
ATOM     23  N   UNL     1      -3.636  13.562  22.055  0.00  0.00    +0.000 N 
ATOM     24  C   UNL     1      -3.487  15.018  22.038  0.00  0.00    +0.000 C 
ATOM     25  C   UNL     1      -4.771  15.718  22.477  0.00  0.00    +0.000 C 
ATOM     26  C   UNL     1      -5.318  15.156  23.785  0.00  0.00    +0.000 C 
ATOM     27  C   UNL     1      -5.487  13.651  23.694  0.00  0.00    +0.000 C 
ATOM     28  C   UNL     1      -4.204  12.966  23.257  0.00  0.00    +0.000 C 
BRANCH  26  29
ATOM     29  O   UNL     1      -4.483  15.499  24.889  0.00  0.00    +0.000 OA
ATOM     30  H   UNL     1      -4.782  15.020  25.680  0.00  0.00    +0.000 HD
ENDBRANCH  26  29
ENDBRANCH  22  23
ENDBRANCH   5  17
TORSDOF 4
ENDMDL
