MODEL 1
REMARK VINA RESULT:      -6.5      0.000      0.000
REMARK  Name = 
REMARK  4 active torsions:
REMARK  status: ('A' for Active; 'I' for Inactive)
REMARK    1  A    between atoms: C_1  and  O_2
REMARK    2  A    between atoms: O_2  and  C_3
REMARK    3  A    between atoms: C_6  and  N_7
REMARK    4  A    between atoms: C_14  and  C_16
REMARK                            x       y       z     vdW  Elec       q    Type
REMARK                         _______ _______ _______ _____ _____    ______ ____
ROOT
ATOM      1  N   UNL     1       0.239  12.987  19.435  0.00  0.00    +0.000 N 
ATOM      2  C   UNL     1       1.509  12.334  19.756  0.00  0.00    +0.000 C 
ATOM      3  C   UNL     1       1.241  11.018  20.488  0.00  0.00    +0.000 C 
ATOM      4  N   UNL     1       0.346  10.061  19.647  0.00  0.00    +0.000 N 
ATOM      5  C   UNL     1       1.006   9.628  18.307  0.00  0.00    +0.000 C 
ATOM      6  C   UNL     1       2.253   8.764  18.546  0.00  0.00    +0.000 C 
ATOM      7  N   UNL     1       1.933   7.608  19.386  0.00  0.00    +0.000 N 
ATOM      8  C   UNL     1       2.350   6.353  18.940  0.00  0.00    +0.000 C 
ATOM      9  O   UNL     1       2.991   6.225  17.897  0.00  0.00    +0.000 OA
ATOM     10  C   UNL     1       1.324   7.943  20.682  0.00  0.00    +0.000 C 
ATOM     11  C   UNL     1       0.043   8.786  20.476  0.00  0.00    +0.000 C 
ATOM     12  C   UNL     1      -0.989  10.819  19.346  0.00  0.00    +0.000 C 
ATOM     13  C   UNL     1      -0.758  12.203  18.687  0.00  0.00    +0.000 C 
ENDROOT
BRANCH   1  17
ATOM     14  C   UNL     1      -0.763  16.742  21.064  0.00  0.00    +0.000 A 
ATOM     15  C   UNL     1      -0.549  15.644  21.891  0.00  0.00    +0.000 A 
ATOM     16  C   UNL     1      -0.194  14.402  21.351  0.00  0.00    +0.000 A 
ATOM     17  C   UNL     1      -0.067  14.221  19.968  0.00  0.00    +0.000 A 
ATOM     18  C   UNL     1      -0.297  15.340  19.154  0.00  0.00    +0.000 A 
ATOM     19  C   UNL     1      -0.646  16.586  19.690  0.00  0.00    +0.000 A 
BRANCH  14  21
ATOM     20  C   UNL     1      -1.878  17.738  22.888  0.00  0.00    +0.000 C 
ATOM     21  O   UNL     1      -1.112  17.899  21.699  0.00  0.00    +0.000 OA
ENDBRANCH  14  21
ENDBRANCH   1  17
BRANCH   8  22
ATOM     22  C   UNL     1       2.040   5.125  19.713  0.00  0.00    +0.000 A 
ATOM     23  C   UNL     1       2.492   4.932  21.021  0.00  0.00    +0.000 A 
ATOM     24  C   UNL     1       2.253   3.724  21.673  0.00  0.00    +0.000 A 
ATOM     25  C   UNL     1       1.480   2.743  21.055  0.00  0.00    +0.000 A 
ATOM     26  C   UNL     1       0.935   2.974  19.791  0.00  0.00    +0.000 A 
ATOM     27  C   UNL     1       1.218   4.161  19.116  0.00  0.00    +0.000 A 
ENDBRANCH   8  22
TORSDOF 3
ENDMDL
MODEL 2
REMARK VINA RESULT:      -6.4      0.717      1.010
REMARK  Name = 
REMARK  4 active torsions:
REMARK  status: ('A' for Active; 'I' for Inactive)
REMARK    1  A    between atoms: C_1  and  O_2
REMARK    2  A    between atoms: O_2  and  C_3
REMARK    3  A    between atoms: C_6  and  N_7
REMARK    4  A    between atoms: C_14  and  C_16
REMARK                            x       y       z     vdW  Elec       q    Type
REMARK                         _______ _______ _______ _____ _____    ______ ____
ROOT
ATOM      1  N   UNL     1       0.416  13.006  18.970  0.00  0.00    +0.000 N 
ATOM      2  C   UNL     1       1.677  12.350  19.318  0.00  0.00    +0.000 C 
ATOM      3  C   UNL     1       1.391  11.077  20.118  0.00  0.00    +0.000 C 
ATOM      4  N   UNL     1       0.476  10.094  19.332  0.00  0.00    +0.000 N 
ATOM      5  C   UNL     1       1.122   9.581  18.013  0.00  0.00    +0.000 C 
ATOM      6  C   UNL     1       2.356   8.711  18.290  0.00  0.00    +0.000 C 
ATOM      7  N   UNL     1       2.022   7.604  19.190  0.00  0.00    +0.000 N 
ATOM      8  C   UNL     1       2.416   6.322  18.808  0.00  0.00    +0.000 C 
ATOM      9  O   UNL     1       3.050   6.130  17.770  0.00  0.00    +0.000 OA
ATOM     10  C   UNL     1       1.425   8.016  20.470  0.00  0.00    +0.000 C 
ATOM     11  C   UNL     1       0.157   8.868  20.226  0.00  0.00    +0.000 C 
ATOM     12  C   UNL     1      -0.848  10.856  18.997  0.00  0.00    +0.000 C 
ATOM     13  C   UNL     1      -0.598  12.201  18.267  0.00  0.00    +0.000 C 
ENDROOT
BRANCH   1  17
ATOM     14  C   UNL     1      -0.409  16.861  20.459  0.00  0.00    +0.000 A 
ATOM     15  C   UNL     1       0.696  16.636  19.644  0.00  0.00    +0.000 A 
ATOM     16  C   UNL     1       0.958  15.360  19.132  0.00  0.00    +0.000 A 
ATOM     17  C   UNL     1       0.133  14.271  19.440  0.00  0.00    +0.000 A 
ATOM     18  C   UNL     1      -0.970  14.519  20.271  0.00  0.00    +0.000 A 
ATOM     19  C   UNL     1      -1.238  15.796  20.781  0.00  0.00    +0.000 A 
BRANCH  14  21
ATOM     20  C   UNL     1       0.079  18.436  22.145  0.00  0.00    +0.000 C 
ATOM     21  O   UNL     1      -0.560  18.141  20.908  0.00  0.00    +0.000 OA
ENDBRANCH  14  21
ENDBRANCH   1  17
BRANCH   8  22
ATOM     22  C   UNL     1       2.090   5.140  19.644  0.00  0.00    +0.000 A 
ATOM     23  C   UNL     1       2.532   5.015  20.964  0.00  0.00    +0.000 A 
ATOM     24  C   UNL     1       2.278   3.846  21.679  0.00  0.00    +0.000 A 
ATOM     25  C   UNL     1       1.501   2.840  21.110  0.00  0.00    +0.000 A 
ATOM     26  C   UNL     1       0.966   3.006  19.832  0.00  0.00    +0.000 A 
ATOM     27  C   UNL     1       1.264   4.152  19.095  0.00  0.00    +0.000 A 
ENDBRANCH   8  22
TORSDOF 3
ENDMDL
MODEL 3
REMARK VINA RESULT:      -6.3      0.497      1.054
REMARK  Name = 
REMARK  4 active torsions:
REMARK  status: ('A' for Active; 'I' for Inactive)
REMARK    1  A    between atoms: C_1  and  O_2
REMARK    2  A    between atoms: O_2  and  C_3
REMARK    3  A    between atoms: C_6  and  N_7
REMARK    4  A    between atoms: C_14  and  C_16
REMARK                            x       y       z     vdW  Elec       q    Type
REMARK                         _______ _______ _______ _____ _____    ______ ____
ROOT
ATOM      1  N   UNL     1       0.238  13.002  19.219  0.00  0.00    +0.000 N 
ATOM      2  C   UNL     1       1.501  12.357  19.579  0.00  0.00    +0.000 C 
ATOM      3  C   UNL     1       1.219  11.047  20.317  0.00  0.00    +0.000 C 
ATOM      4  N   UNL     1       0.350  10.079  19.461  0.00  0.00    +0.000 N 
ATOM      5  C   UNL     1       1.047   9.635  18.144  0.00  0.00    +0.000 C 
ATOM      6  C   UNL     1       2.290   8.779  18.423  0.00  0.00    +0.000 C 
ATOM      7  N   UNL     1       1.953   7.629  19.266  0.00  0.00    +0.000 N 
ATOM      8  C   UNL     1       2.386   6.372  18.843  0.00  0.00    +0.000 C 
ATOM      9  O   UNL     1       3.056   6.237  17.819  0.00  0.00    +0.000 OA
ATOM     10  C   UNL     1       1.308   7.975  20.543  0.00  0.00    +0.000 C 
ATOM     11  C   UNL     1       0.031   8.810  20.294  0.00  0.00    +0.000 C 
ATOM     12  C   UNL     1      -0.979  10.827  19.117  0.00  0.00    +0.000 C 
ATOM     13  C   UNL     1      -0.737  12.207  18.452  0.00  0.00    +0.000 C 
ENDROOT
BRANCH   1  17
ATOM     14  C   UNL     1      -0.821  16.775  20.768  0.00  0.00    +0.000 A 
ATOM     15  C   UNL     1      -0.919  15.632  21.555  0.00  0.00    +0.000 A 
ATOM     16  C   UNL     1      -0.546  14.381  21.047  0.00  0.00    +0.000 A 
ATOM     17  C   UNL     1      -0.087  14.240  19.731  0.00  0.00    +0.000 A 
ATOM     18  C   UNL     1      -0.006  15.404  18.954  0.00  0.00    +0.000 A 
ATOM     19  C   UNL     1      -0.373  16.659  19.460  0.00  0.00    +0.000 A 
BRANCH  14  21
ATOM     20  C   UNL     1      -2.399  18.527  20.828  0.00  0.00    +0.000 C 
ATOM     21  O   UNL     1      -1.220  17.936  21.364  0.00  0.00    +0.000 OA
ENDBRANCH  14  21
ENDBRANCH   1  17
BRANCH   8  22
ATOM     22  C   UNL     1       2.061   5.150  19.619  0.00  0.00    +0.000 A 
ATOM     23  C   UNL     1       1.276   4.120  19.094  0.00  0.00    +0.000 A 
ATOM     24  C   UNL     1       0.921   3.034  19.893  0.00  0.00    +0.000 A 
ATOM     25  C   UNL     1       1.427   2.930  21.187  0.00  0.00    +0.000 A 
ATOM     26  C   UNL     1       2.298   3.902  21.678  0.00  0.00    +0.000 A 
ATOM     27  C   UNL     1       2.612   5.016  20.900  0.00  0.00    +0.000 A 
ENDBRANCH   8  22
TORSDOF 3
ENDMDL
MODEL 4
REMARK VINA RESULT:      -6.3      0.367      1.359
REMARK  Name = 
REMARK  4 active torsions:
REMARK  status: ('A' for Active; 'I' for Inactive)
REMARK    1  A    between atoms: C_1  and  O_2
REMARK    2  A    between atoms: O_2  and  C_3
REMARK    3  A    between atoms: C_6  and  N_7
REMARK    4  A    between atoms: C_14  and  C_16
REMARK                            x       y       z     vdW  Elec       q    Type
REMARK                         _______ _______ _______ _____ _____    ______ ____
ROOT
ATOM      1  N   UNL     1       0.214  12.997  19.330  0.00  0.00    +0.000 N 
ATOM      2  C   UNL     1       1.476  12.349  19.687  0.00  0.00    +0.000 C 
ATOM      3  C   UNL     1       1.191  11.027  20.404  0.00  0.00    +0.000 C 
ATOM      4  N   UNL     1       0.328  10.071  19.530  0.00  0.00    +0.000 N 
ATOM      5  C   UNL     1       1.031   9.647  18.210  0.00  0.00    +0.000 C 
ATOM      6  C   UNL     1       2.274   8.788  18.483  0.00  0.00    +0.000 C 
ATOM      7  N   UNL     1       1.933   7.626  19.306  0.00  0.00    +0.000 N 
ATOM      8  C   UNL     1       2.370   6.376  18.868  0.00  0.00    +0.000 C 
ATOM      9  O   UNL     1       3.045   6.256  17.844  0.00  0.00    +0.000 OA
ATOM     10  C   UNL     1       1.282   7.952  20.585  0.00  0.00    +0.000 C 
ATOM     11  C   UNL     1       0.005   8.790  20.342  0.00  0.00    +0.000 C 
ATOM     12  C   UNL     1      -1.001  10.824  19.191  0.00  0.00    +0.000 C 
ATOM     13  C   UNL     1      -0.756  12.213  18.547  0.00  0.00    +0.000 C 
ENDROOT
BRANCH   1  17
ATOM     14  C   UNL     1      -0.724  16.772  20.952  0.00  0.00    +0.000 A 
ATOM     15  C   UNL     1      -0.535  16.615  19.582  0.00  0.00    +0.000 A 
ATOM     16  C   UNL     1      -0.245  15.357  19.041  0.00  0.00    +0.000 A 
ATOM     17  C   UNL     1      -0.114  14.227  19.859  0.00  0.00    +0.000 A 
ATOM     18  C   UNL     1      -0.299  14.412  21.237  0.00  0.00    +0.000 A 
ATOM     19  C   UNL     1      -0.595  15.668  21.782  0.00  0.00    +0.000 A 
BRANCH  14  21
ATOM     20  C   UNL     1      -0.303  18.465  22.539  0.00  0.00    +0.000 C 
ATOM     21  O   UNL     1      -0.993  18.044  21.367  0.00  0.00    +0.000 OA
ENDBRANCH  14  21
ENDBRANCH   1  17
BRANCH   8  22
ATOM     22  C   UNL     1       2.042   5.142  19.624  0.00  0.00    +0.000 A 
ATOM     23  C   UNL     1       1.252   4.124  19.084  0.00  0.00    +0.000 A 
ATOM     24  C   UNL     1       0.895   3.026  19.865  0.00  0.00    +0.000 A 
ATOM     25  C   UNL     1       1.404   2.898  21.155  0.00  0.00    +0.000 A 
ATOM     26  C   UNL     1       2.280   3.859  21.661  0.00  0.00    +0.000 A 
ATOM     27  C   UNL     1       2.595   4.984  20.900  0.00  0.00    +0.000 A 
ENDBRANCH   8  22
TORSDOF 3
ENDMDL
MODEL 5
REMARK VINA RESULT:      -6.2      2.227      9.822
REMARK  Name = 
REMARK  4 active torsions:
REMARK  status: ('A' for Active; 'I' for Inactive)
REMARK    1  A    between atoms: C_1  and  O_2
REMARK    2  A    between atoms: O_2  and  C_3
REMARK    3  A    between atoms: C_6  and  N_7
REMARK    4  A    between atoms: C_14  and  C_16
REMARK                            x       y       z     vdW  Elec       q    Type
REMARK                         _______ _______ _______ _____ _____    ______ ____
ROOT
ATOM      1  N   UNL     1       0.772  10.057  19.174  0.00  0.00    +0.000 N 
ATOM      2  C   UNL     1      -0.539  10.055  19.825  0.00  0.00    +0.000 C 
ATOM      3  C   UNL     1      -0.513  10.989  21.037  0.00  0.00    +0.000 C 
ATOM      4  N   UNL     1      -0.117  12.440  20.639  0.00  0.00    +0.000 N 
ATOM      5  C   UNL     1      -1.130  13.105  19.664  0.00  0.00    +0.000 C 
ATOM      6  C   UNL     1      -2.495  13.323  20.331  0.00  0.00    +0.000 C 
ATOM      7  N   UNL     1      -2.354  14.096  21.567  0.00  0.00    +0.000 N 
ATOM      8  C   UNL     1      -3.192  15.198  21.736  0.00  0.00    +0.000 C 
ATOM      9  O   UNL     1      -4.041  15.493  20.894  0.00  0.00    +0.000 OA
ATOM     10  C   UNL     1      -1.425  13.515  22.549  0.00  0.00    +0.000 C 
ATOM     11  C   UNL     1      -0.028  13.314  21.918  0.00  0.00    +0.000 C 
ATOM     12  C   UNL     1       1.288  12.368  19.956  0.00  0.00    +0.000 C 
ATOM     13  C   UNL     1       1.332  11.360  18.779  0.00  0.00    +0.000 C 
ENDROOT
BRANCH   1  17
ATOM     14  C   UNL     1       2.997   6.488  18.918  0.00  0.00    +0.000 A 
ATOM     15  C   UNL     1       2.942   7.368  17.842  0.00  0.00    +0.000 A 
ATOM     16  C   UNL     1       2.220   8.564  17.936  0.00  0.00    +0.000 A 
ATOM     17  C   UNL     1       1.517   8.899  19.099  0.00  0.00    +0.000 A 
ATOM     18  C   UNL     1       1.580   7.992  20.167  0.00  0.00    +0.000 A 
ATOM     19  C   UNL     1       2.306   6.797  20.080  0.00  0.00    +0.000 A 
BRANCH  14  21
ATOM     20  C   UNL     1       5.039   5.355  19.251  0.00  0.00    +0.000 C 
ATOM     21  O   UNL     1       3.722   5.350  18.711  0.00  0.00    +0.000 OA
ENDBRANCH  14  21
ENDBRANCH   1  17
BRANCH   8  22
ATOM     22  C   UNL     1      -3.094  16.056  22.943  0.00  0.00    +0.000 A 
ATOM     23  C   UNL     1      -2.082  17.006  23.103  0.00  0.00    +0.000 A 
ATOM     24  C   UNL     1      -1.977  17.723  24.294  0.00  0.00    +0.000 A 
ATOM     25  C   UNL     1      -2.939  17.560  25.289  0.00  0.00    +0.000 A 
ATOM     26  C   UNL     1      -4.012  16.691  25.089  0.00  0.00    +0.000 A 
ATOM     27  C   UNL     1      -4.089  15.934  23.921  0.00  0.00    +0.000 A 
ENDBRANCH   8  22
TORSDOF 3
ENDMDL
MODEL 6
REMARK VINA RESULT:      -6.2      0.739      1.223
REMARK  Name = 
REMARK  4 active torsions:
REMARK  status: ('A' for Active; 'I' for Inactive)
REMARK    1  A    between atoms: C_1  and  O_2
REMARK    2  A    between atoms: O_2  and  C_3
REMARK    3  A    between atoms: C_6  and  N_7
REMARK    4  A    between atoms: C_14  and  C_16
REMARK                            x       y       z     vdW  Elec       q    Type
REMARK                         _______ _______ _______ _____ _____    ______ ____
ROOT
ATOM      1  N   UNL     1      -0.050  12.841  20.284  0.00  0.00    +0.000 N 
ATOM      2  C   UNL     1       1.235  12.197  20.561  0.00  0.00    +0.000 C 
ATOM      3  C   UNL     1       0.997  10.803  21.146  0.00  0.00    +0.000 C 
ATOM      4  N   UNL     1       0.149   9.914  20.190  0.00  0.00    +0.000 N 
ATOM      5  C   UNL     1       0.847   9.644  18.827  0.00  0.00    +0.000 C 
ATOM      6  C   UNL     1       2.117   8.799  19.000  0.00  0.00    +0.000 C 
ATOM      7  N   UNL     1       1.820   7.551  19.707  0.00  0.00    +0.000 N 
ATOM      8  C   UNL     1       2.287   6.364  19.142  0.00  0.00    +0.000 C 
ATOM      9  O   UNL     1       2.951   6.367  18.105  0.00  0.00    +0.000 OA
ATOM     10  C   UNL     1       1.177   7.729  21.018  0.00  0.00    +0.000 C 
ATOM     11  C   UNL     1      -0.126   8.549  20.873  0.00  0.00    +0.000 C 
ATOM     12  C   UNL     1      -1.204  10.657  19.941  0.00  0.00    +0.000 C 
ATOM     13  C   UNL     1      -1.007  12.110  19.436  0.00  0.00    +0.000 C 
ENDROOT
BRANCH   1  17
ATOM     14  C   UNL     1      -1.201  16.364  22.287  0.00  0.00    +0.000 A 
ATOM     15  C   UNL     1      -0.722  15.268  22.998  0.00  0.00    +0.000 A 
ATOM     16  C   UNL     1      -0.319  14.106  22.330  0.00  0.00    +0.000 A 
ATOM     17  C   UNL     1      -0.406  14.002  20.936  0.00  0.00    +0.000 A 
ATOM     18  C   UNL     1      -0.901  15.116  20.242  0.00  0.00    +0.000 A 
ATOM     19  C   UNL     1      -1.300  16.283  20.906  0.00  0.00    +0.000 A 
BRANCH  14  21
ATOM     20  C   UNL     1      -2.037  18.570  22.313  0.00  0.00    +0.000 C 
ATOM     21  O   UNL     1      -1.573  17.439  23.043  0.00  0.00    +0.000 OA
ENDBRANCH  14  21
ENDBRANCH   1  17
BRANCH   8  22
ATOM     22  C   UNL     1       2.003   5.052  19.774  0.00  0.00    +0.000 A 
ATOM     23  C   UNL     1       1.307   4.039  19.111  0.00  0.00    +0.000 A 
ATOM     24  C   UNL     1       0.985   2.858  19.778  0.00  0.00    +0.000 A 
ATOM     25  C   UNL     1       1.439   2.650  21.078  0.00  0.00    +0.000 A 
ATOM     26  C   UNL     1       2.226   3.615  21.708  0.00  0.00    +0.000 A 
ATOM     27  C   UNL     1       2.504   4.819  21.061  0.00  0.00    +0.000 A 
ENDBRANCH   8  22
TORSDOF 3
ENDMDL
MODEL 7
REMARK VINA RESULT:      -6.1      2.060      9.786
REMARK  Name = 
REMARK  4 active torsions:
REMARK  status: ('A' for Active; 'I' for Inactive)
REMARK    1  A    between atoms: C_1  and  O_2
REMARK    2  A    between atoms: O_2  and  C_3
REMARK    3  A    between atoms: C_6  and  N_7
REMARK    4  A    between atoms: C_14  and  C_16
REMARK                            x       y       z     vdW  Elec       q    Type
REMARK                         _______ _______ _______ _____ _____    ______ ____
ROOT
ATOM      1  N   UNL     1       0.916   9.849  19.100  0.00  0.00    +0.000 N 
ATOM      2  C   UNL     1      -0.365   9.804  19.805  0.00  0.00    +0.000 C 
ATOM      3  C   UNL     1      -0.331  10.764  20.996  0.00  0.00    +0.000 C 
ATOM      4  N   UNL     1      -0.016  12.223  20.552  0.00  0.00    +0.000 N 
ATOM      5  C   UNL     1      -1.097  12.820  19.607  0.00  0.00    +0.000 C 
ATOM      6  C   UNL     1      -2.442  12.993  20.327  0.00  0.00    +0.000 C 
ATOM      7  N   UNL     1      -2.285  13.799  21.540  0.00  0.00    +0.000 N 
ATOM      8  C   UNL     1      -3.164  14.867  21.722  0.00  0.00    +0.000 C 
ATOM      9  O   UNL     1      -4.059  15.105  20.910  0.00  0.00    +0.000 OA
ATOM     10  C   UNL     1      -1.291  13.281  22.493  0.00  0.00    +0.000 C 
ATOM     11  C   UNL     1       0.086  13.127  21.808  0.00  0.00    +0.000 C 
ATOM     12  C   UNL     1       1.361  12.197  19.812  0.00  0.00    +0.000 C 
ATOM     13  C   UNL     1       1.401  11.166  18.654  0.00  0.00    +0.000 C 
ENDROOT
BRANCH   1  17
ATOM     14  C   UNL     1       3.289   6.377  18.815  0.00  0.00    +0.000 A 
ATOM     15  C   UNL     1       3.255   7.301  17.775  0.00  0.00    +0.000 A 
ATOM     16  C   UNL     1       2.483   8.465  17.879  0.00  0.00    +0.000 A 
ATOM     17  C   UNL     1       1.709   8.723  19.017  0.00  0.00    +0.000 A 
ATOM     18  C   UNL     1       1.752   7.774  20.048  0.00  0.00    +0.000 A 
ATOM     19  C   UNL     1       2.527   6.611  19.951  0.00  0.00    +0.000 A 
BRANCH  14  21
ATOM     20  C   UNL     1       3.792   4.159  19.438  0.00  0.00    +0.000 C 
ATOM     21  O   UNL     1       4.067   5.277  18.600  0.00  0.00    +0.000 OA
ENDBRANCH  14  21
ENDBRANCH   1  17
BRANCH   8  22
ATOM     22  C   UNL     1      -3.054  15.754  22.906  0.00  0.00    +0.000 A 
ATOM     23  C   UNL     1      -3.785  15.531  24.076  0.00  0.00    +0.000 A 
ATOM     24  C   UNL     1      -3.718  16.443  25.128  0.00  0.00    +0.000 A 
ATOM     25  C   UNL     1      -2.848  17.529  25.050  0.00  0.00    +0.000 A 
ATOM     26  C   UNL     1      -2.036  17.696  23.929  0.00  0.00    +0.000 A 
ATOM     27  C   UNL     1      -2.141  16.815  22.853  0.00  0.00    +0.000 A 
ENDBRANCH   8  22
TORSDOF 3
ENDMDL
MODEL 8
REMARK VINA RESULT:      -6.1      2.221      9.816
REMARK  Name = 
REMARK  4 active torsions:
REMARK  status: ('A' for Active; 'I' for Inactive)
REMARK    1  A    between atoms: C_1  and  O_2
REMARK    2  A    between atoms: O_2  and  C_3
REMARK    3  A    between atoms: C_6  and  N_7
REMARK    4  A    between atoms: C_14  and  C_16
REMARK                            x       y       z     vdW  Elec       q    Type
REMARK                         _______ _______ _______ _____ _____    ______ ____
ROOT
ATOM      1  N   UNL     1       0.743  10.071  19.145  0.00  0.00    +0.000 N 
ATOM      2  C   UNL     1      -0.596  10.059  19.736  0.00  0.00    +0.000 C 
ATOM      3  C   UNL     1      -0.619  10.952  20.978  0.00  0.00    +0.000 C 
ATOM      4  N   UNL     1      -0.194  12.413  20.647  0.00  0.00    +0.000 N 
ATOM      5  C   UNL     1      -1.157  13.118  19.650  0.00  0.00    +0.000 C 
ATOM      6  C   UNL     1      -2.550  13.326  20.261  0.00  0.00    +0.000 C 
ATOM      7  N   UNL     1      -2.459  14.056  21.528  0.00  0.00    +0.000 N 
ATOM      8  C   UNL     1      -3.296  15.160  21.696  0.00  0.00    +0.000 C 
ATOM      9  O   UNL     1      -4.103  15.489  20.826  0.00  0.00    +0.000 OA
ATOM     10  C   UNL     1      -1.580  13.435  22.531  0.00  0.00    +0.000 C 
ATOM     11  C   UNL     1      -0.157  13.243  21.957  0.00  0.00    +0.000 C 
ATOM     12  C   UNL     1       1.240  12.351  20.026  0.00  0.00    +0.000 C 
ATOM     13  C   UNL     1       1.330  11.382  18.819  0.00  0.00    +0.000 C 
ENDROOT
BRANCH   1  17
ATOM     14  C   UNL     1       3.057   6.557  18.930  0.00  0.00    +0.000 A 
ATOM     15  C   UNL     1       2.323   6.854  20.074  0.00  0.00    +0.000 A 
ATOM     16  C   UNL     1       1.537   8.011  20.137  0.00  0.00    +0.000 A 
ATOM     17  C   UNL     1       1.483   8.911  19.065  0.00  0.00    +0.000 A 
ATOM     18  C   UNL     1       2.239   8.595  17.927  0.00  0.00    +0.000 A 
ATOM     19  C   UNL     1       3.023   7.435  17.858  0.00  0.00    +0.000 A 
BRANCH  14  21
ATOM     20  C   UNL     1       3.669   4.546  17.860  0.00  0.00    +0.000 C 
ATOM     21  O   UNL     1       3.793   5.408  18.985  0.00  0.00    +0.000 OA
ENDBRANCH  14  21
ENDBRANCH   1  17
BRANCH   8  22
ATOM     22  C   UNL     1      -3.247  15.976  22.934  0.00  0.00    +0.000 A 
ATOM     23  C   UNL     1      -4.136  15.779  23.994  0.00  0.00    +0.000 A 
ATOM     24  C   UNL     1      -4.110  16.630  25.097  0.00  0.00    +0.000 A 
ATOM     25  C   UNL     1      -3.133  17.619  25.187  0.00  0.00    +0.000 A 
ATOM     26  C   UNL     1      -2.175  17.750  24.182  0.00  0.00    +0.000 A 
ATOM     27  C   UNL     1      -2.233  16.934  23.052  0.00  0.00    +0.000 A 
ENDBRANCH   8  22
TORSDOF 3
ENDMDL
MODEL 9
REMARK VINA RESULT:      -6.1      2.308      9.867
REMARK  Name = 
REMARK  4 active torsions:
REMARK  status: ('A' for Active; 'I' for Inactive)
REMARK    1  A    between atoms: C_1  and  O_2
REMARK    2  A    between atoms: O_2  and  C_3
REMARK    3  A    between atoms: C_6  and  N_7
REMARK    4  A    between atoms: C_14  and  C_16
REMARK                            x       y       z     vdW  Elec       q    Type
REMARK                         _______ _______ _______ _____ _____    ______ ____
ROOT
ATOM      1  N   UNL     1       0.512   9.666  19.491  0.00  0.00    +0.000 N 
ATOM      2  C   UNL     1      -0.153   9.682  20.794  0.00  0.00    +0.000 C 
ATOM      3  C   UNL     1       0.186  10.981  21.530  0.00  0.00    +0.000 C 
ATOM      4  N   UNL     1      -0.225  12.235  20.705  0.00  0.00    +0.000 N 
ATOM      5  C   UNL     1      -1.757  12.326  20.453  0.00  0.00    +0.000 C 
ATOM      6  C   UNL     1      -2.532  12.540  21.760  0.00  0.00    +0.000 C 
ATOM      7  N   UNL     1      -2.035  13.719  22.474  0.00  0.00    +0.000 N 
ATOM      8  C   UNL     1      -2.976  14.654  22.907  0.00  0.00    +0.000 C 
ATOM      9  O   UNL     1      -4.181  14.479  22.727  0.00  0.00    +0.000 OA
ATOM     10  C   UNL     1      -0.594  13.694  22.767  0.00  0.00    +0.000 C 
ATOM     11  C   UNL     1       0.219  13.513  21.464  0.00  0.00    +0.000 C 
ATOM     12  C   UNL     1       0.522  12.155  19.333  0.00  0.00    +0.000 C 
ATOM     13  C   UNL     1       0.281  10.813  18.596  0.00  0.00    +0.000 C 
ENDROOT
BRANCH   1  17
ATOM     14  C   UNL     1       3.333   6.678  18.558  0.00  0.00    +0.000 A 
ATOM     15  C   UNL     1       3.079   7.717  17.668  0.00  0.00    +0.000 A 
ATOM     16  C   UNL     1       2.158   8.722  17.988  0.00  0.00    +0.000 A 
ATOM     17  C   UNL     1       1.451   8.700  19.197  0.00  0.00    +0.000 A 
ATOM     18  C   UNL     1       1.716   7.638  20.073  0.00  0.00    +0.000 A 
ATOM     19  C   UNL     1       2.642   6.634  19.760  0.00  0.00    +0.000 A 
BRANCH  14  21
ATOM     20  C   UNL     1       3.697   4.601  17.502  0.00  0.00    +0.000 C 
ATOM     21  O   UNL     1       4.243   5.752  18.137  0.00  0.00    +0.000 OA
ENDBRANCH  14  21
ENDBRANCH   1  17
BRANCH   8  22
ATOM     22  C   UNL     1      -2.557  15.892  23.609  0.00  0.00    +0.000 A 
ATOM     23  C   UNL     1      -2.276  17.078  22.926  0.00  0.00    +0.000 A 
ATOM     24  C   UNL     1      -1.797  18.188  23.619  0.00  0.00    +0.000 A 
ATOM     25  C   UNL     1      -1.689  18.146  25.007  0.00  0.00    +0.000 A 
ATOM     26  C   UNL     1      -2.071  16.999  25.704  0.00  0.00    +0.000 A 
ATOM     27  C   UNL     1      -2.499  15.870  25.008  0.00  0.00    +0.000 A 
ENDBRANCH   8  22
TORSDOF 3
ENDMDL
