MODEL 1
REMARK VINA RESULT:      -7.4      0.000      0.000
REMARK  Name = 
REMARK  6 active torsions:
REMARK  status: ('A' for Active; 'I' for Inactive)
REMARK    1  A    between atoms: C_1  and  C_2
REMARK    2  A    between atoms: C_6  and  C_7
REMARK    3  A    between atoms: C_8  and  C_9
REMARK    4  A    between atoms: C_9  and  N_10
REMARK    5  A    between atoms: N_13  and  C_14
REMARK    6  A    between atoms: C_25  and  C_26
REMARK                            x       y       z     vdW  Elec       q    Type
REMARK                         _______ _______ _______ _____ _____    ______ ____
ROOT
ATOM      1  N   UNL     1      -0.323  12.192  19.561  0.00  0.00    +0.000 NA
ATOM      2  C   UNL     1      -0.691  10.964  20.288  0.00  0.00    +0.000 C 
ATOM      3  C   UNL     1      -0.097   9.588  19.858  0.00  0.00    +0.000 C 
ATOM      4  N   UNL     1       1.302   9.643  19.367  0.00  0.00    +0.000 N 
ATOM      5  C   UNL     1       1.604  10.821  18.535  0.00  0.00    +0.000 C 
ATOM      6  C   UNL     1       1.106  12.126  19.194  0.00  0.00    +0.000 C 
ENDROOT
BRANCH   4   7
ATOM      7  C   UNL     1       1.931   8.419  19.065  0.00  0.00    +0.000 A 
ATOM      8  C   UNL     1       2.726   8.225  17.920  0.00  0.00    +0.000 A 
ATOM      9  C   UNL     1       3.394   7.018  17.658  0.00  0.00    +0.000 A 
ATOM     10  C   UNL     1       3.290   5.949  18.545  0.00  0.00    +0.000 A 
ATOM     11 CL   UNL     1       4.137   4.493  18.173  0.00  0.00    +0.000 Cl
ATOM     12  C   UNL     1       2.519   6.105  19.694  0.00  0.00    +0.000 A 
ATOM     13 CL   UNL     1       2.344   4.838  20.862  0.00  0.00    +0.000 Cl
ATOM     14  C   UNL     1       1.860   7.321  19.944  0.00  0.00    +0.000 A 
ENDBRANCH   4   7
BRANCH   1  15
ATOM     15  C   UNL     1      -1.188  12.557  18.443  0.00  0.00    +0.000 C 
BRANCH  15  23
ATOM     16  C   UNL     1      -7.466  11.980  21.038  0.00  0.00    +0.000 C 
ATOM     17  C   UNL     1      -6.173  12.100  20.280  0.00  0.00    +0.000 A 
ATOM     18  C   UNL     1      -5.972  11.384  19.167  0.00  0.00    +0.000 A 
ATOM     19  C   UNL     1      -4.678  11.339  18.613  0.00  0.00    +0.000 A 
ATOM     20  N   UNL     1      -4.221  10.532  17.691  0.00  0.00    +0.000 NA
ATOM     21  C   UNL     1      -2.883  10.769  17.637  0.00  0.00    +0.000 A 
ATOM     22  C   UNL     1      -2.056   9.869  16.803  0.00  0.00    +0.000 C 
ATOM     23  C   UNL     1      -2.518  11.850  18.438  0.00  0.00    +0.000 A 
ATOM     24  N   UNL     1      -3.684  12.133  19.176  0.00  0.00    +0.000 N 
ATOM     25  C   UNL     1      -4.021  12.935  20.293  0.00  0.00    +0.000 A 
ATOM     26  C   UNL     1      -2.984  13.802  20.927  0.00  0.00    +0.000 C 
ATOM     27  N   UNL     1      -5.207  12.917  20.835  0.00  0.00    +0.000 NA
ENDBRANCH  15  23
ENDBRANCH   1  15
TORSDOF 3
ENDMDL
MODEL 2
REMARK VINA RESULT:      -7.4      1.475      2.713
REMARK  Name = 
REMARK  6 active torsions:
REMARK  status: ('A' for Active; 'I' for Inactive)
REMARK    1  A    between atoms: C_1  and  C_2
REMARK    2  A    between atoms: C_6  and  C_7
REMARK    3  A    between atoms: C_8  and  C_9
REMARK    4  A    between atoms: C_9  and  N_10
REMARK    5  A    between atoms: N_13  and  C_14
REMARK    6  A    between atoms: C_25  and  C_26
REMARK                            x       y       z     vdW  Elec       q    Type
REMARK                         _______ _______ _______ _____ _____    ______ ____
ROOT
ATOM      1  N   UNL     1       0.900  10.515  19.002  0.00  0.00    +0.000 NA
ATOM      2  C   UNL     1       0.840   9.742  20.254  0.00  0.00    +0.000 C 
ATOM      3  C   UNL     1       1.148   8.213  20.251  0.00  0.00    +0.000 C 
ATOM      4  N   UNL     1       2.203   7.797  19.294  0.00  0.00    +0.000 N 
ATOM      5  C   UNL     1       2.156   8.500  18.000  0.00  0.00    +0.000 C 
ATOM      6  C   UNL     1       2.030  10.028  18.187  0.00  0.00    +0.000 C 
ENDROOT
BRANCH   4   7
ATOM      7  C   UNL     1       2.602   6.446  19.319  0.00  0.00    +0.000 A 
ATOM      8  C   UNL     1       3.490   5.889  18.379  0.00  0.00    +0.000 A 
ATOM      9  C   UNL     1       3.925   4.555  18.447  0.00  0.00    +0.000 A 
ATOM     10  C   UNL     1       3.483   3.722  19.471  0.00  0.00    +0.000 A 
ATOM     11 CL   UNL     1       4.056   2.095  19.506  0.00  0.00    +0.000 Cl
ATOM     12  C   UNL     1       2.610   4.239  20.426  0.00  0.00    +0.000 A 
ATOM     13 CL   UNL     1       2.020   3.284  21.744  0.00  0.00    +0.000 Cl
ATOM     14  C   UNL     1       2.187   5.577  20.346  0.00  0.00    +0.000 A 
ENDBRANCH   4   7
BRANCH   1  15
ATOM     15  C   UNL     1      -0.349  10.616  18.251  0.00  0.00    +0.000 C 
BRANCH  15  23
ATOM     16  C   UNL     1      -6.881  12.369  19.118  0.00  0.00    +0.000 C 
ATOM     17  C   UNL     1      -5.422  12.007  19.131  0.00  0.00    +0.000 A 
ATOM     18  C   UNL     1      -4.566  12.671  19.918  0.00  0.00    +0.000 A 
ATOM     19  C   UNL     1      -3.184  12.472  19.740  0.00  0.00    +0.000 A 
ATOM     20  N   UNL     1      -2.196  13.177  20.226  0.00  0.00    +0.000 NA
ATOM     21  C   UNL     1      -1.078  12.692  19.622  0.00  0.00    +0.000 A 
ATOM     22  C   UNL     1       0.193  13.419  19.838  0.00  0.00    +0.000 C 
ATOM     23  C   UNL     1      -1.354  11.562  18.855  0.00  0.00    +0.000 A 
ATOM     24  N   UNL     1      -2.762  11.504  18.833  0.00  0.00    +0.000 N 
ATOM     25  C   UNL     1      -3.747  10.781  18.119  0.00  0.00    +0.000 A 
ATOM     26  C   UNL     1      -3.338   9.735  17.137  0.00  0.00    +0.000 C 
ATOM     27  N   UNL     1      -5.023  11.023  18.248  0.00  0.00    +0.000 NA
ENDBRANCH  15  23
ENDBRANCH   1  15
TORSDOF 3
ENDMDL
MODEL 3
REMARK VINA RESULT:      -7.4      4.696     10.205
REMARK  Name = 
REMARK  6 active torsions:
REMARK  status: ('A' for Active; 'I' for Inactive)
REMARK    1  A    between atoms: C_1  and  C_2
REMARK    2  A    between atoms: C_6  and  C_7
REMARK    3  A    between atoms: C_8  and  C_9
REMARK    4  A    between atoms: C_9  and  N_10
REMARK    5  A    between atoms: N_13  and  C_14
REMARK    6  A    between atoms: C_25  and  C_26
REMARK                            x       y       z     vdW  Elec       q    Type
REMARK                         _______ _______ _______ _____ _____    ______ ____
ROOT
ATOM      1  N   UNL     1       3.836   5.166  18.720  0.00  0.00    +0.000 NA
ATOM      2  C   UNL     1       2.964   5.074  19.904  0.00  0.00    +0.000 C 
ATOM      3  C   UNL     1       2.354   6.363  20.535  0.00  0.00    +0.000 C 
ATOM      4  N   UNL     1       1.992   7.418  19.556  0.00  0.00    +0.000 N 
ATOM      5  C   UNL     1       2.953   7.573  18.451  0.00  0.00    +0.000 C 
ATOM      6  C   UNL     1       3.316   6.212  17.817  0.00  0.00    +0.000 C 
ENDROOT
BRANCH   4   7
ATOM      7  C   UNL     1       1.338   8.563  20.053  0.00  0.00    +0.000 A 
ATOM      8  C   UNL     1       1.018   9.674  19.250  0.00  0.00    +0.000 A 
ATOM      9  C   UNL     1       0.316  10.787  19.743  0.00  0.00    +0.000 A 
ATOM     10  C   UNL     1      -0.097  10.826  21.072  0.00  0.00    +0.000 A 
ATOM     11 CL   UNL     1      -0.961  12.216  21.619  0.00  0.00    +0.000 Cl
ATOM     12  C   UNL     1       0.193   9.741  21.896  0.00  0.00    +0.000 A 
ATOM     13 CL   UNL     1      -0.294   9.693  23.557  0.00  0.00    +0.000 Cl
ATOM     14  C   UNL     1       0.893   8.634  21.387  0.00  0.00    +0.000 A 
ENDBRANCH   4   7
BRANCH   1  15
ATOM     15  C   UNL     1       5.266   5.297  18.987  0.00  0.00    +0.000 C 
BRANCH  15  23
ATOM     16  C   UNL     1       6.546   3.432  12.555  0.00  0.00    +0.000 C 
ATOM     17  C   UNL     1       6.278   4.037  13.904  0.00  0.00    +0.000 A 
ATOM     18  C   UNL     1       6.949   5.124  14.304  0.00  0.00    +0.000 A 
ATOM     19  C   UNL     1       6.849   5.528  15.649  0.00  0.00    +0.000 A 
ATOM     20  N   UNL     1       7.588   6.396  16.290  0.00  0.00    +0.000 NA
ATOM     21  C   UNL     1       7.210   6.297  17.593  0.00  0.00    +0.000 A 
ATOM     22  C   UNL     1       8.003   7.036  18.600  0.00  0.00    +0.000 C 
ATOM     23  C   UNL     1       6.110   5.455  17.749  0.00  0.00    +0.000 A 
ATOM     24  N   UNL     1       5.963   4.852  16.484  0.00  0.00    +0.000 N 
ATOM     25  C   UNL     1       5.220   3.777  15.940  0.00  0.00    +0.000 A 
ATOM     26  C   UNL     1       4.260   3.025  16.801  0.00  0.00    +0.000 C 
ATOM     27  N   UNL     1       5.372   3.373  14.709  0.00  0.00    +0.000 NA
ENDBRANCH  15  23
ENDBRANCH   1  15
TORSDOF 3
ENDMDL
MODEL 4
REMARK VINA RESULT:      -7.3      2.409      3.578
REMARK  Name = 
REMARK  6 active torsions:
REMARK  status: ('A' for Active; 'I' for Inactive)
REMARK    1  A    between atoms: C_1  and  C_2
REMARK    2  A    between atoms: C_6  and  C_7
REMARK    3  A    between atoms: C_8  and  C_9
REMARK    4  A    between atoms: C_9  and  N_10
REMARK    5  A    between atoms: N_13  and  C_14
REMARK    6  A    between atoms: C_25  and  C_26
REMARK                            x       y       z     vdW  Elec       q    Type
REMARK                         _______ _______ _______ _____ _____    ______ ____
ROOT
ATOM      1  N   UNL     1       1.036   9.559  20.042  0.00  0.00    +0.000 NA
ATOM      2  C   UNL     1       1.595   8.354  20.680  0.00  0.00    +0.000 C 
ATOM      3  C   UNL     1       2.181   7.202  19.807  0.00  0.00    +0.000 C 
ATOM      4  N   UNL     1       2.873   7.651  18.574  0.00  0.00    +0.000 N 
ATOM      5  C   UNL     1       2.217   8.777  17.888  0.00  0.00    +0.000 C 
ATOM      6  C   UNL     1       1.863   9.914  18.872  0.00  0.00    +0.000 C 
ENDROOT
BRANCH   4   7
ATOM      7  C   UNL     1       3.517   6.666  17.799  0.00  0.00    +0.000 A 
ATOM      8  C   UNL     1       4.511   6.963  16.848  0.00  0.00    +0.000 A 
ATOM      9  C   UNL     1       5.185   5.969  16.121  0.00  0.00    +0.000 A 
ATOM     10  C   UNL     1       4.886   4.624  16.325  0.00  0.00    +0.000 A 
ATOM     11 CL   UNL     1       5.752   3.446  15.407  0.00  0.00    +0.000 Cl
ATOM     12  C   UNL     1       3.915   4.288  17.264  0.00  0.00    +0.000 A 
ATOM     13 CL   UNL     1       3.487   2.644  17.596  0.00  0.00    +0.000 Cl
ATOM     14  C   UNL     1       3.251   5.295  17.986  0.00  0.00    +0.000 A 
ENDBRANCH   4   7
BRANCH   1  15
ATOM     15  C   UNL     1      -0.394   9.522  19.746  0.00  0.00    +0.000 C 
BRANCH  15  23
ATOM     16  C   UNL     1      -2.509  14.333  24.090  0.00  0.00    +0.000 C 
ATOM     17  C   UNL     1      -1.969  13.428  23.018  0.00  0.00    +0.000 A 
ATOM     18  C   UNL     1      -2.068  13.771  21.728  0.00  0.00    +0.000 A 
ATOM     19  C   UNL     1      -1.769  12.810  20.744  0.00  0.00    +0.000 A 
ATOM     20  N   UNL     1      -2.022  12.859  19.462  0.00  0.00    +0.000 NA
ATOM     21  C   UNL     1      -1.704  11.626  18.985  0.00  0.00    +0.000 A 
ATOM     22  C   UNL     1      -2.057  11.316  17.582  0.00  0.00    +0.000 C 
ATOM     23  C   UNL     1      -1.100  10.835  19.961  0.00  0.00    +0.000 A 
ATOM     24  N   UNL     1      -1.267  11.576  21.148  0.00  0.00    +0.000 N 
ATOM     25  C   UNL     1      -1.101  11.343  22.534  0.00  0.00    +0.000 A 
ATOM     26  C   UNL     1      -0.567  10.033  23.010  0.00  0.00    +0.000 C 
ATOM     27  N   UNL     1      -1.444  12.220  23.437  0.00  0.00    +0.000 NA
ENDBRANCH  15  23
ENDBRANCH   1  15
TORSDOF 3
ENDMDL
MODEL 5
REMARK VINA RESULT:      -7.3      4.831     10.200
REMARK  Name = 
REMARK  6 active torsions:
REMARK  status: ('A' for Active; 'I' for Inactive)
REMARK    1  A    between atoms: C_1  and  C_2
REMARK    2  A    between atoms: C_6  and  C_7
REMARK    3  A    between atoms: C_8  and  C_9
REMARK    4  A    between atoms: C_9  and  N_10
REMARK    5  A    between atoms: N_13  and  C_14
REMARK    6  A    between atoms: C_25  and  C_26
REMARK                            x       y       z     vdW  Elec       q    Type
REMARK                         _______ _______ _______ _____ _____    ______ ____
ROOT
ATOM      1  N   UNL     1       3.629   5.419  18.656  0.00  0.00    +0.000 NA
ATOM      2  C   UNL     1       2.722   5.135  19.782  0.00  0.00    +0.000 C 
ATOM      3  C   UNL     1       2.108   6.304  20.612  0.00  0.00    +0.000 C 
ATOM      4  N   UNL     1       1.786   7.519  19.824  0.00  0.00    +0.000 N 
ATOM      5  C   UNL     1       2.781   7.849  18.788  0.00  0.00    +0.000 C 
ATOM      6  C   UNL     1       3.147   6.614  17.937  0.00  0.00    +0.000 C 
ENDROOT
BRANCH   4   7
ATOM      7  C   UNL     1       1.130   8.570  20.495  0.00  0.00    +0.000 A 
ATOM      8  C   UNL     1       0.869   8.555  21.878  0.00  0.00    +0.000 A 
ATOM      9  C   UNL     1       0.265   9.633  22.545  0.00  0.00    +0.000 A 
ATOM     10  C   UNL     1      -0.102  10.779  21.845  0.00  0.00    +0.000 A 
ATOM     11 CL   UNL     1      -0.835  12.073  22.720  0.00  0.00    +0.000 Cl
ATOM     12  C   UNL     1       0.148  10.835  20.476  0.00  0.00    +0.000 A 
ATOM     13 CL   UNL     1      -0.259  12.223  19.524  0.00  0.00    +0.000 Cl
ATOM     14  C   UNL     1       0.756   9.750  19.822  0.00  0.00    +0.000 A 
ENDBRANCH   4   7
BRANCH   1  15
ATOM     15  C   UNL     1       5.053   5.478  18.980  0.00  0.00    +0.000 C 
BRANCH  15  23
ATOM     16  C   UNL     1       6.396   3.441  12.614  0.00  0.00    +0.000 C 
ATOM     17  C   UNL     1       6.135   4.082  13.949  0.00  0.00    +0.000 A 
ATOM     18  C   UNL     1       6.890   5.104  14.368  0.00  0.00    +0.000 A 
ATOM     19  C   UNL     1       6.777   5.528  15.706  0.00  0.00    +0.000 A 
ATOM     20  N   UNL     1       7.569   6.330  16.370  0.00  0.00    +0.000 NA
ATOM     21  C   UNL     1       7.134   6.278  17.658  0.00  0.00    +0.000 A 
ATOM     22  C   UNL     1       7.954   6.949  18.691  0.00  0.00    +0.000 C 
ATOM     23  C   UNL     1       5.954   5.545  17.775  0.00  0.00    +0.000 A 
ATOM     24  N   UNL     1       5.800   4.947  16.509  0.00  0.00    +0.000 N 
ATOM     25  C   UNL     1       4.980   3.941  15.943  0.00  0.00    +0.000 A 
ATOM     26  C   UNL     1       3.921   3.291  16.770  0.00  0.00    +0.000 C 
ATOM     27  N   UNL     1       5.141   3.513  14.722  0.00  0.00    +0.000 NA
ENDBRANCH  15  23
ENDBRANCH   1  15
TORSDOF 3
ENDMDL
MODEL 6
REMARK VINA RESULT:      -7.2      1.505      2.934
REMARK  Name = 
REMARK  6 active torsions:
REMARK  status: ('A' for Active; 'I' for Inactive)
REMARK    1  A    between atoms: C_1  and  C_2
REMARK    2  A    between atoms: C_6  and  C_7
REMARK    3  A    between atoms: C_8  and  C_9
REMARK    4  A    between atoms: C_9  and  N_10
REMARK    5  A    between atoms: N_13  and  C_14
REMARK    6  A    between atoms: C_25  and  C_26
REMARK                            x       y       z     vdW  Elec       q    Type
REMARK                         _______ _______ _______ _____ _____    ______ ____
ROOT
ATOM      1  N   UNL     1       0.855  10.598  18.992  0.00  0.00    +0.000 NA
ATOM      2  C   UNL     1       0.771   9.818  20.239  0.00  0.00    +0.000 C 
ATOM      3  C   UNL     1       1.086   8.291  20.234  0.00  0.00    +0.000 C 
ATOM      4  N   UNL     1       2.164   7.885  19.299  0.00  0.00    +0.000 N 
ATOM      5  C   UNL     1       2.144   8.594  18.007  0.00  0.00    +0.000 C 
ATOM      6  C   UNL     1       2.006  10.121  18.200  0.00  0.00    +0.000 C 
ENDROOT
BRANCH   4   7
ATOM      7  C   UNL     1       2.570   6.535  19.325  0.00  0.00    +0.000 A 
ATOM      8  C   UNL     1       2.209   5.644  20.353  0.00  0.00    +0.000 A 
ATOM      9  C   UNL     1       2.572   4.287  20.340  0.00  0.00    +0.000 A 
ATOM     10  C   UNL     1       3.315   3.768  19.284  0.00  0.00    +0.000 A 
ATOM     11 CL   UNL     1       3.726   2.092  19.320  0.00  0.00    +0.000 Cl
ATOM     12  C   UNL     1       3.684   4.616  18.243  0.00  0.00    +0.000 A 
ATOM     13 CL   UNL     1       4.595   4.057  16.880  0.00  0.00    +0.000 Cl
ATOM     14  C   UNL     1       3.310   5.971  18.268  0.00  0.00    +0.000 A 
ENDBRANCH   4   7
BRANCH   1  15
ATOM     15  C   UNL     1      -0.377  10.697  18.214  0.00  0.00    +0.000 C 
BRANCH  15  23
ATOM     16  C   UNL     1      -6.963  12.239  19.067  0.00  0.00    +0.000 C 
ATOM     17  C   UNL     1      -5.494  11.924  19.083  0.00  0.00    +0.000 A 
ATOM     18  C   UNL     1      -4.662  12.612  19.875  0.00  0.00    +0.000 A 
ATOM     19  C   UNL     1      -3.273  12.457  19.700  0.00  0.00    +0.000 A 
ATOM     20  N   UNL     1      -2.310  13.193  20.190  0.00  0.00    +0.000 NA
ATOM     21  C   UNL     1      -1.175  12.745  19.589  0.00  0.00    +0.000 A 
ATOM     22  C   UNL     1       0.072  13.511  19.810  0.00  0.00    +0.000 C 
ATOM     23  C   UNL     1      -1.413  11.609  18.817  0.00  0.00    +0.000 A 
ATOM     24  N   UNL     1      -2.818  11.506  18.791  0.00  0.00    +0.000 N 
ATOM     25  C   UNL     1      -3.778  10.754  18.073  0.00  0.00    +0.000 A 
ATOM     26  C   UNL     1      -3.333   9.724  17.089  0.00  0.00    +0.000 C 
ATOM     27  N   UNL     1      -5.061  10.955  18.199  0.00  0.00    +0.000 NA
ENDBRANCH  15  23
ENDBRANCH   1  15
TORSDOF 3
ENDMDL
MODEL 7
REMARK VINA RESULT:      -7.2      1.152      2.292
REMARK  Name = 
REMARK  6 active torsions:
REMARK  status: ('A' for Active; 'I' for Inactive)
REMARK    1  A    between atoms: C_1  and  C_2
REMARK    2  A    between atoms: C_6  and  C_7
REMARK    3  A    between atoms: C_8  and  C_9
REMARK    4  A    between atoms: C_9  and  N_10
REMARK    5  A    between atoms: N_13  and  C_14
REMARK    6  A    between atoms: C_25  and  C_26
REMARK                            x       y       z     vdW  Elec       q    Type
REMARK                         _______ _______ _______ _____ _____    ______ ____
ROOT
ATOM      1  N   UNL     1       0.489  11.520  19.264  0.00  0.00    +0.000 NA
ATOM      2  C   UNL     1       0.357  10.569  20.381  0.00  0.00    +0.000 C 
ATOM      3  C   UNL     1       0.713   9.064  20.179  0.00  0.00    +0.000 C 
ATOM      4  N   UNL     1       1.851   8.815  19.260  0.00  0.00    +0.000 N 
ATOM      5  C   UNL     1       1.882   9.701  18.082  0.00  0.00    +0.000 C 
ATOM      6  C   UNL     1       1.693  11.181  18.480  0.00  0.00    +0.000 C 
ENDROOT
BRANCH   4   7
ATOM      7  C   UNL     1       2.290   7.484  19.119  0.00  0.00    +0.000 A 
ATOM      8  C   UNL     1       3.030   7.031  18.010  0.00  0.00    +0.000 A 
ATOM      9  C   UNL     1       3.510   5.715  17.908  0.00  0.00    +0.000 A 
ATOM     10  C   UNL     1       3.266   4.795  18.924  0.00  0.00    +0.000 A 
ATOM     11 CL   UNL     1       3.886   3.195  18.745  0.00  0.00    +0.000 Cl
ATOM     12  C   UNL     1       2.545   5.207  20.042  0.00  0.00    +0.000 A 
ATOM     13 CL   UNL     1       2.205   4.140  21.362  0.00  0.00    +0.000 Cl
ATOM     14  C   UNL     1       2.073   6.529  20.132  0.00  0.00    +0.000 A 
ENDBRANCH   4   7
BRANCH   1  15
ATOM     15  C   UNL     1      -0.702  11.706  18.438  0.00  0.00    +0.000 C 
BRANCH  15  23
ATOM     16  C   UNL     1      -7.433  11.902  19.505  0.00  0.00    +0.000 C 
ATOM     17  C   UNL     1      -5.931  11.856  19.475  0.00  0.00    +0.000 A 
ATOM     18  C   UNL     1      -5.214  12.559  20.361  0.00  0.00    +0.000 A 
ATOM     19  C   UNL     1      -3.825  12.683  20.166  0.00  0.00    +0.000 A 
ATOM     20  N   UNL     1      -2.994  13.499  20.761  0.00  0.00    +0.000 NA
ATOM     21  C   UNL     1      -1.814  13.354  20.101  0.00  0.00    +0.000 A 
ATOM     22  C   UNL     1      -0.718  14.291  20.434  0.00  0.00    +0.000 C 
ATOM     23  C   UNL     1      -1.867  12.319  19.169  0.00  0.00    +0.000 A 
ATOM     24  N   UNL     1      -3.232  11.971  19.127  0.00  0.00    +0.000 N 
ATOM     25  C   UNL     1      -4.062  11.173  18.304  0.00  0.00    +0.000 A 
ATOM     26  C   UNL     1      -3.466  10.394  17.178  0.00  0.00    +0.000 C 
ATOM     27  N   UNL     1      -5.356  11.120  18.457  0.00  0.00    +0.000 NA
ENDBRANCH  15  23
ENDBRANCH   1  15
TORSDOF 3
ENDMDL
MODEL 8
REMARK VINA RESULT:      -7.1      2.729      3.869
REMARK  Name = 
REMARK  6 active torsions:
REMARK  status: ('A' for Active; 'I' for Inactive)
REMARK    1  A    between atoms: C_1  and  C_2
REMARK    2  A    between atoms: C_6  and  C_7
REMARK    3  A    between atoms: C_8  and  C_9
REMARK    4  A    between atoms: C_9  and  N_10
REMARK    5  A    between atoms: N_13  and  C_14
REMARK    6  A    between atoms: C_25  and  C_26
REMARK                            x       y       z     vdW  Elec       q    Type
REMARK                         _______ _______ _______ _____ _____    ______ ____
ROOT
ATOM      1  N   UNL     1       0.955   9.784  20.090  0.00  0.00    +0.000 NA
ATOM      2  C   UNL     1       1.392   8.845  21.138  0.00  0.00    +0.000 C 
ATOM      3  C   UNL     1       1.659   7.349  20.792  0.00  0.00    +0.000 C 
ATOM      4  N   UNL     1       2.243   7.120  19.448  0.00  0.00    +0.000 N 
ATOM      5  C   UNL     1       1.692   7.989  18.393  0.00  0.00    +0.000 C 
ATOM      6  C   UNL     1       1.664   9.469  18.834  0.00  0.00    +0.000 C 
ENDROOT
BRANCH   4   7
ATOM      7  C   UNL     1       2.608   5.799  19.117  0.00  0.00    +0.000 A 
ATOM      8  C   UNL     1       2.134   4.673  19.815  0.00  0.00    +0.000 A 
ATOM      9  C   UNL     1       2.460   3.359  19.441  0.00  0.00    +0.000 A 
ATOM     10  C   UNL     1       3.279   3.122  18.341  0.00  0.00    +0.000 A 
ATOM     11 CL   UNL     1       3.639   1.487  17.926  0.00  0.00    +0.000 Cl
ATOM     12  C   UNL     1       3.761   4.211  17.618  0.00  0.00    +0.000 A 
ATOM     13 CL   UNL     1       4.773   4.016  16.227  0.00  0.00    +0.000 Cl
ATOM     14  C   UNL     1       3.423   5.520  18.003  0.00  0.00    +0.000 A 
ENDBRANCH   4   7
BRANCH   1  15
ATOM     15  C   UNL     1      -0.488   9.924  19.916  0.00  0.00    +0.000 C 
BRANCH  15  23
ATOM     16  C   UNL     1      -2.246  14.850  24.290  0.00  0.00    +0.000 C 
ATOM     17  C   UNL     1      -1.751  13.909  23.227  0.00  0.00    +0.000 A 
ATOM     18  C   UNL     1      -1.670  14.311  21.953  0.00  0.00    +0.000 A 
ATOM     19  C   UNL     1      -1.429  13.350  20.952  0.00  0.00    +0.000 A 
ATOM     20  N   UNL     1      -1.545  13.486  19.656  0.00  0.00    +0.000 NA
ATOM     21  C   UNL     1      -1.377  12.235  19.148  0.00  0.00    +0.000 A 
ATOM     22  C   UNL     1      -1.635  12.036  17.705  0.00  0.00    +0.000 C 
ATOM     23  C   UNL     1      -1.000  11.324  20.133  0.00  0.00    +0.000 A 
ATOM     24  N   UNL     1      -1.166  12.039  21.336  0.00  0.00    +0.000 N 
ATOM     25  C   UNL     1      -1.174  11.732  22.718  0.00  0.00    +0.000 A 
ATOM     26  C   UNL     1      -0.898  10.338  23.173  0.00  0.00    +0.000 C 
ATOM     27  N   UNL     1      -1.463  12.620  23.630  0.00  0.00    +0.000 NA
ENDBRANCH  15  23
ENDBRANCH   1  15
TORSDOF 3
ENDMDL
MODEL 9
REMARK VINA RESULT:      -7.1      2.757      3.752
REMARK  Name = 
REMARK  6 active torsions:
REMARK  status: ('A' for Active; 'I' for Inactive)
REMARK    1  A    between atoms: C_1  and  C_2
REMARK    2  A    between atoms: C_6  and  C_7
REMARK    3  A    between atoms: C_8  and  C_9
REMARK    4  A    between atoms: C_9  and  N_10
REMARK    5  A    between atoms: N_13  and  C_14
REMARK    6  A    between atoms: C_25  and  C_26
REMARK                            x       y       z     vdW  Elec       q    Type
REMARK                         _______ _______ _______ _____ _____    ______ ____
ROOT
ATOM      1  N   UNL     1       1.035   9.747  19.912  0.00  0.00    +0.000 NA
ATOM      2  C   UNL     1       1.545   8.822  20.939  0.00  0.00    +0.000 C 
ATOM      3  C   UNL     1       1.797   7.322  20.591  0.00  0.00    +0.000 C 
ATOM      4  N   UNL     1       2.292   7.082  19.214  0.00  0.00    +0.000 N 
ATOM      5  C   UNL     1       1.668   7.937  18.189  0.00  0.00    +0.000 C 
ATOM      6  C   UNL     1       1.661   9.421  18.615  0.00  0.00    +0.000 C 
ENDROOT
BRANCH   4   7
ATOM      7  C   UNL     1       2.641   5.759  18.873  0.00  0.00    +0.000 A 
ATOM      8  C   UNL     1       3.957   5.367  18.563  0.00  0.00    +0.000 A 
ATOM      9  C   UNL     1       4.302   4.035  18.280  0.00  0.00    +0.000 A 
ATOM     10  C   UNL     1       3.332   3.037  18.301  0.00  0.00    +0.000 A 
ATOM     11 CL   UNL     1       3.817   1.418  17.951  0.00  0.00    +0.000 Cl
ATOM     12  C   UNL     1       2.020   3.384  18.613  0.00  0.00    +0.000 A 
ATOM     13 CL   UNL     1       0.749   2.210  18.677  0.00  0.00    +0.000 Cl
ATOM     14  C   UNL     1       1.691   4.720  18.897  0.00  0.00    +0.000 A 
ENDBRANCH   4   7
BRANCH   1  15
ATOM     15  C   UNL     1      -0.417   9.878  19.833  0.00  0.00    +0.000 C 
BRANCH  15  23
ATOM     16  C   UNL     1      -2.155  14.763  24.260  0.00  0.00    +0.000 C 
ATOM     17  C   UNL     1      -1.663  13.833  23.187  0.00  0.00    +0.000 A 
ATOM     18  C   UNL     1      -1.577  14.248  21.917  0.00  0.00    +0.000 A 
ATOM     19  C   UNL     1      -1.339  13.298  20.906  0.00  0.00    +0.000 A 
ATOM     20  N   UNL     1      -1.451  13.449  19.612  0.00  0.00    +0.000 NA
ATOM     21  C   UNL     1      -1.289  12.204  19.089  0.00  0.00    +0.000 A 
ATOM     22  C   UNL     1      -1.545  12.023  17.643  0.00  0.00    +0.000 C 
ATOM     23  C   UNL     1      -0.921  11.279  20.065  0.00  0.00    +0.000 A 
ATOM     24  N   UNL     1      -1.085  11.980  21.276  0.00  0.00    +0.000 N 
ATOM     25  C   UNL     1      -1.099  11.658  22.654  0.00  0.00    +0.000 A 
ATOM     26  C   UNL     1      -0.832  10.257  23.094  0.00  0.00    +0.000 C 
ATOM     27  N   UNL     1      -1.385  12.536  23.575  0.00  0.00    +0.000 NA
ENDBRANCH  15  23
ENDBRANCH   1  15
TORSDOF 3
ENDMDL
