MODEL 1
REMARK VINA RESULT:      -8.3      0.000      0.000
REMARK  Name = 
REMARK  7 active torsions:
REMARK  status: ('A' for Active; 'I' for Inactive)
REMARK    1  A    between atoms: C_1  and  O_2
REMARK    2  A    between atoms: O_2  and  C_3
REMARK    3  A    between atoms: C_3  and  C_4
REMARK    4  A    between atoms: C_4  and  C_5
REMARK    5  A    between atoms: C_7  and  O_8
REMARK    6  A    between atoms: C_11  and  C_12
REMARK    7  A    between atoms: C_16  and  C_17
REMARK                            x       y       z     vdW  Elec       q    Type
REMARK                         _______ _______ _______ _____ _____    ______ ____
ROOT
ATOM      1  C   UNL     1       2.351   6.407  19.166  0.00  0.00    +0.000 A 
ATOM      2  C   UNL     1       1.854   6.803  20.421  0.00  0.00    +0.000 A 
ATOM      3  C   UNL     1       1.332   8.080  20.675  0.00  0.00    +0.000 A 
ATOM      4  C   UNL     1       1.396   9.052  19.669  0.00  0.00    +0.000 A 
ATOM      5  C   UNL     1       1.004  10.406  19.524  0.00  0.00    +0.000 A 
ATOM      6  N   UNL     1       1.343  10.909  18.327  0.00  0.00    +0.000 NA
ATOM      7  N   UNL     1       1.946   9.867  17.715  0.00  0.00    +0.000 N 
ATOM      8  C   UNL     1       1.968   8.712  18.453  0.00  0.00    +0.000 A 
ATOM      9  C   UNL     1       2.428   7.415  18.165  0.00  0.00    +0.000 A 
ATOM     10  H   UNL     1       2.321  10.009  16.785  0.00  0.00    +0.000 HD
ENDROOT
BRANCH   5  11
ATOM     11  C   UNL     1       0.287  11.213  20.554  0.00  0.00    +0.000 A 
ATOM     12  N   UNL     1      -0.753  10.809  21.256  0.00  0.00    +0.000 NA
ATOM     13  C   UNL     1      -1.081  11.869  22.062  0.00  0.00    +0.000 A 
ATOM     14  C   UNL     1      -2.103  11.981  23.016  0.00  0.00    +0.000 A 
ATOM     15  C   UNL     1      -2.236  13.184  23.719  0.00  0.00    +0.000 A 
ATOM     16  C   UNL     1      -1.371  14.253  23.471  0.00  0.00    +0.000 A 
ATOM     17  C   UNL     1      -0.344  14.160  22.525  0.00  0.00    +0.000 A 
ATOM     18  C   UNL     1      -0.230  12.947  21.842  0.00  0.00    +0.000 A 
ATOM     19  N   UNL     1       0.635  12.497  20.880  0.00  0.00    +0.000 N 
ATOM     20  H   UNL     1       1.402  13.000  20.457  0.00  0.00    +0.000 HD
ENDBRANCH   5  11
BRANCH   1  26
ATOM     21  C   UNL     1       4.162   4.557  18.981  0.00  0.00    +0.000 A 
ATOM     22  C   UNL     1       4.449   3.192  18.717  0.00  0.00    +0.000 A 
ATOM     23  C   UNL     1       3.453   2.292  18.385  0.00  0.00    +0.000 A 
ATOM     24  C   UNL     1       2.141   2.712  18.282  0.00  0.00    +0.000 A 
ATOM     25  C   UNL     1       1.831   4.053  18.520  0.00  0.00    +0.000 A 
ATOM     26  C   UNL     1       2.806   5.014  18.882  0.00  0.00    +0.000 A 
BRANCH  23  27
ATOM     27  O   UNL     1       3.715   0.976  18.144  0.00  0.00    +0.000 OA
ATOM     28  H   UNL     1       4.496   0.715  18.669  0.00  0.00    +0.000 HD
ENDBRANCH  23  27
BRANCH  21  29
ATOM     29  C   UNL     1       5.316   5.478  19.367  0.00  0.00    +0.000 C 
BRANCH  29  30
ATOM     30  C   UNL     1       6.526   5.531  18.425  0.00  0.00    +0.000 C 
BRANCH  30  32
ATOM     31  C   UNL     1       7.533   7.460  17.537  0.00  0.00    +0.000 C 
ATOM     32  O   UNL     1       6.382   6.622  17.514  0.00  0.00    +0.000 OA
ENDBRANCH  30  32
ENDBRANCH  29  30
ENDBRANCH  21  29
ENDBRANCH   1  26
TORSDOF 6
ENDMDL
MODEL 2
REMARK VINA RESULT:      -8.3      0.505      1.220
REMARK  Name = 
REMARK  7 active torsions:
REMARK  status: ('A' for Active; 'I' for Inactive)
REMARK    1  A    between atoms: C_1  and  O_2
REMARK    2  A    between atoms: O_2  and  C_3
REMARK    3  A    between atoms: C_3  and  C_4
REMARK    4  A    between atoms: C_4  and  C_5
REMARK    5  A    between atoms: C_7  and  O_8
REMARK    6  A    between atoms: C_11  and  C_12
REMARK    7  A    between atoms: C_16  and  C_17
REMARK                            x       y       z     vdW  Elec       q    Type
REMARK                         _______ _______ _______ _____ _____    ______ ____
ROOT
ATOM      1  C   UNL     1       2.326   6.473  19.191  0.00  0.00    +0.000 A 
ATOM      2  C   UNL     1       1.846   6.887  20.447  0.00  0.00    +0.000 A 
ATOM      3  C   UNL     1       1.326   8.167  20.688  0.00  0.00    +0.000 A 
ATOM      4  C   UNL     1       1.373   9.123  19.667  0.00  0.00    +0.000 A 
ATOM      5  C   UNL     1       0.975  10.474  19.507  0.00  0.00    +0.000 A 
ATOM      6  N   UNL     1       1.296  10.959  18.297  0.00  0.00    +0.000 NA
ATOM      7  N   UNL     1       1.892   9.909  17.692  0.00  0.00    +0.000 N 
ATOM      8  C   UNL     1       1.927   8.766  18.448  0.00  0.00    +0.000 A 
ATOM      9  C   UNL     1       2.387   7.465  18.174  0.00  0.00    +0.000 A 
ATOM     10  H   UNL     1       2.253  10.038  16.755  0.00  0.00    +0.000 HD
ENDROOT
BRANCH   5  11
ATOM     11  C   UNL     1       0.272  11.295  20.534  0.00  0.00    +0.000 A 
ATOM     12  N   UNL     1       0.621  12.508  20.916  0.00  0.00    +0.000 NA
ATOM     13  C   UNL     1      -0.295  12.865  21.873  0.00  0.00    +0.000 A 
ATOM     14  C   UNL     1      -0.399  14.056  22.607  0.00  0.00    +0.000 A 
ATOM     15  C   UNL     1      -1.435  14.181  23.540  0.00  0.00    +0.000 A 
ATOM     16  C   UNL     1      -2.343  13.138  23.739  0.00  0.00    +0.000 A 
ATOM     17  C   UNL     1      -2.257  11.943  23.016  0.00  0.00    +0.000 A 
ATOM     18  C   UNL     1      -1.217  11.847  22.088  0.00  0.00    +0.000 A 
ATOM     19  N   UNL     1      -0.835  10.862  21.217  0.00  0.00    +0.000 N 
ATOM     20  H   UNL     1      -1.265   9.958  21.080  0.00  0.00    +0.000 HD
ENDBRANCH   5  11
BRANCH   1  26
ATOM     21  C   UNL     1       4.151   4.655  18.864  0.00  0.00    +0.000 A 
ATOM     22  C   UNL     1       4.440   3.285  18.636  0.00  0.00    +0.000 A 
ATOM     23  C   UNL     1       3.436   2.346  18.486  0.00  0.00    +0.000 A 
ATOM     24  C   UNL     1       2.110   2.732  18.536  0.00  0.00    +0.000 A 
ATOM     25  C   UNL     1       1.795   4.077  18.742  0.00  0.00    +0.000 A 
ATOM     26  C   UNL     1       2.780   5.076  18.922  0.00  0.00    +0.000 A 
BRANCH  23  27
ATOM     27  O   UNL     1       3.702   1.025  18.280  0.00  0.00    +0.000 OA
ATOM     28  H   UNL     1       4.521   0.797  18.760  0.00  0.00    +0.000 HD
ENDBRANCH  23  27
BRANCH  21  29
ATOM     29  C   UNL     1       5.318   5.622  19.046  0.00  0.00    +0.000 C 
BRANCH  29  30
ATOM     30  C   UNL     1       6.037   6.109  17.782  0.00  0.00    +0.000 C 
BRANCH  30  32
ATOM     31  C   UNL     1       7.802   5.727  19.287  0.00  0.00    +0.000 C 
ATOM     32  O   UNL     1       7.446   5.915  17.921  0.00  0.00    +0.000 OA
ENDBRANCH  30  32
ENDBRANCH  29  30
ENDBRANCH  21  29
ENDBRANCH   1  26
TORSDOF 6
ENDMDL
MODEL 3
REMARK VINA RESULT:      -8.3      2.169      3.623
REMARK  Name = 
REMARK  7 active torsions:
REMARK  status: ('A' for Active; 'I' for Inactive)
REMARK    1  A    between atoms: C_1  and  O_2
REMARK    2  A    between atoms: O_2  and  C_3
REMARK    3  A    between atoms: C_3  and  C_4
REMARK    4  A    between atoms: C_4  and  C_5
REMARK    5  A    between atoms: C_7  and  O_8
REMARK    6  A    between atoms: C_11  and  C_12
REMARK    7  A    between atoms: C_16  and  C_17
REMARK                            x       y       z     vdW  Elec       q    Type
REMARK                         _______ _______ _______ _____ _____    ______ ____
ROOT
ATOM      1  C   UNL     1       2.672   7.166  18.526  0.00  0.00    +0.000 A 
ATOM      2  C   UNL     1       2.318   8.328  17.817  0.00  0.00    +0.000 A 
ATOM      3  C   UNL     1       1.683   9.429  18.410  0.00  0.00    +0.000 A 
ATOM      4  C   UNL     1       1.283   9.341  19.749  0.00  0.00    +0.000 A 
ATOM      5  C   UNL     1       0.637  10.188  20.684  0.00  0.00    +0.000 A 
ATOM      6  N   UNL     1       0.448   9.586  21.869  0.00  0.00    +0.000 NA
ATOM      7  N   UNL     1       0.981   8.360  21.681  0.00  0.00    +0.000 N 
ATOM      8  C   UNL     1       1.537   8.169  20.443  0.00  0.00    +0.000 A 
ATOM      9  C   UNL     1       2.237   7.087  19.878  0.00  0.00    +0.000 A 
ATOM     10  H   UNL     1       0.935   7.695  22.443  0.00  0.00    +0.000 HD
ENDROOT
BRANCH   5  11
ATOM     11  C   UNL     1       0.210  11.593  20.426  0.00  0.00    +0.000 A 
ATOM     12  N   UNL     1      -0.858  12.175  20.936  0.00  0.00    +0.000 NA
ATOM     13  C   UNL     1      -0.858  13.447  20.424  0.00  0.00    +0.000 A 
ATOM     14  C   UNL     1      -1.764  14.496  20.643  0.00  0.00    +0.000 A 
ATOM     15  C   UNL     1      -1.545  15.718  19.995  0.00  0.00    +0.000 A 
ATOM     16  C   UNL     1      -0.449  15.885  19.143  0.00  0.00    +0.000 A 
ATOM     17  C   UNL     1       0.466  14.852  18.914  0.00  0.00    +0.000 A 
ATOM     18  C   UNL     1       0.227  13.646  19.577  0.00  0.00    +0.000 A 
ATOM     19  N   UNL     1       0.893  12.449  19.602  0.00  0.00    +0.000 N 
ATOM     20  H   UNL     1       1.738  12.203  19.108  0.00  0.00    +0.000 HD
ENDBRANCH   5  11
BRANCH   1  26
ATOM     21  C   UNL     1       2.902   4.752  17.598  0.00  0.00    +0.000 A 
ATOM     22  C   UNL     1       3.737   3.790  16.974  0.00  0.00    +0.000 A 
ATOM     23  C   UNL     1       5.048   4.075  16.640  0.00  0.00    +0.000 A 
ATOM     24  C   UNL     1       5.587   5.314  16.930  0.00  0.00    +0.000 A 
ATOM     25  C   UNL     1       4.793   6.275  17.559  0.00  0.00    +0.000 A 
ATOM     26  C   UNL     1       3.440   6.045  17.906  0.00  0.00    +0.000 A 
BRANCH  23  27
ATOM     27  O   UNL     1       5.856   3.163  16.027  0.00  0.00    +0.000 OA
ATOM     28  H   UNL     1       6.606   2.968  16.620  0.00  0.00    +0.000 HD
ENDBRANCH  23  27
BRANCH  21  29
ATOM     29  C   UNL     1       1.458   4.365  17.908  0.00  0.00    +0.000 C 
BRANCH  29  30
ATOM     30  C   UNL     1       1.230   3.240  18.927  0.00  0.00    +0.000 C 
BRANCH  30  32
ATOM     31  C   UNL     1       1.396   2.889  21.245  0.00  0.00    +0.000 C 
ATOM     32  O   UNL     1       1.003   3.798  20.222  0.00  0.00    +0.000 OA
ENDBRANCH  30  32
ENDBRANCH  29  30
ENDBRANCH  21  29
ENDBRANCH   1  26
TORSDOF 6
ENDMDL
MODEL 4
REMARK VINA RESULT:      -8.3      2.162      3.654
REMARK  Name = 
REMARK  7 active torsions:
REMARK  status: ('A' for Active; 'I' for Inactive)
REMARK    1  A    between atoms: C_1  and  O_2
REMARK    2  A    between atoms: O_2  and  C_3
REMARK    3  A    between atoms: C_3  and  C_4
REMARK    4  A    between atoms: C_4  and  C_5
REMARK    5  A    between atoms: C_7  and  O_8
REMARK    6  A    between atoms: C_11  and  C_12
REMARK    7  A    between atoms: C_16  and  C_17
REMARK                            x       y       z     vdW  Elec       q    Type
REMARK                         _______ _______ _______ _____ _____    ______ ____
ROOT
ATOM      1  C   UNL     1       2.653   7.209  18.509  0.00  0.00    +0.000 A 
ATOM      2  C   UNL     1       2.304   8.366  17.787  0.00  0.00    +0.000 A 
ATOM      3  C   UNL     1       1.674   9.475  18.369  0.00  0.00    +0.000 A 
ATOM      4  C   UNL     1       1.273   9.404  19.708  0.00  0.00    +0.000 A 
ATOM      5  C   UNL     1       0.631  10.263  20.634  0.00  0.00    +0.000 A 
ATOM      6  N   UNL     1       0.439   9.675  21.826  0.00  0.00    +0.000 NA
ATOM      7  N   UNL     1       0.967   8.445  21.650  0.00  0.00    +0.000 N 
ATOM      8  C   UNL     1       1.523   8.238  20.415  0.00  0.00    +0.000 A 
ATOM      9  C   UNL     1       2.218   7.147  19.861  0.00  0.00    +0.000 A 
ATOM     10  H   UNL     1       0.918   7.788  22.420  0.00  0.00    +0.000 HD
ENDROOT
BRANCH   5  11
ATOM     11  C   UNL     1       0.210  11.668  20.361  0.00  0.00    +0.000 A 
ATOM     12  N   UNL     1       0.808  12.500  19.532  0.00  0.00    +0.000 NA
ATOM     13  C   UNL     1       0.090  13.666  19.606  0.00  0.00    +0.000 A 
ATOM     14  C   UNL     1       0.285  14.877  18.925  0.00  0.00    +0.000 A 
ATOM     15  C   UNL     1      -0.595  15.937  19.177  0.00  0.00    +0.000 A 
ATOM     16  C   UNL     1      -1.642  15.791  20.092  0.00  0.00    +0.000 A 
ATOM     17  C   UNL     1      -1.853  14.591  20.779  0.00  0.00    +0.000 A 
ATOM     18  C   UNL     1      -0.964  13.548  20.505  0.00  0.00    +0.000 A 
ATOM     19  N   UNL     1      -0.867  12.262  20.966  0.00  0.00    +0.000 N 
ATOM     20  H   UNL     1      -1.461  11.802  21.640  0.00  0.00    +0.000 HD
ENDBRANCH   5  11
BRANCH   1  26
ATOM     21  C   UNL     1       2.883   4.774  17.639  0.00  0.00    +0.000 A 
ATOM     22  C   UNL     1       3.712   3.803  17.022  0.00  0.00    +0.000 A 
ATOM     23  C   UNL     1       5.014   4.088  16.652  0.00  0.00    +0.000 A 
ATOM     24  C   UNL     1       5.548   5.339  16.898  0.00  0.00    +0.000 A 
ATOM     25  C   UNL     1       4.760   6.310  17.520  0.00  0.00    +0.000 A 
ATOM     26  C   UNL     1       3.417   6.079  17.902  0.00  0.00    +0.000 A 
BRANCH  23  27
ATOM     27  O   UNL     1       5.815   3.168  16.045  0.00  0.00    +0.000 OA
ATOM     28  H   UNL     1       5.581   3.131  15.098  0.00  0.00    +0.000 HD
ENDBRANCH  23  27
BRANCH  21  29
ATOM     29  C   UNL     1       1.449   4.385  17.990  0.00  0.00    +0.000 C 
BRANCH  29  30
ATOM     30  C   UNL     1       1.251   3.306  19.063  0.00  0.00    +0.000 C 
BRANCH  30  32
ATOM     31  C   UNL     1       1.967   3.722  21.263  0.00  0.00    +0.000 C 
ATOM     32  O   UNL     1       0.926   3.919  20.312  0.00  0.00    +0.000 OA
ENDBRANCH  30  32
ENDBRANCH  29  30
ENDBRANCH  21  29
ENDBRANCH   1  26
TORSDOF 6
ENDMDL
MODEL 5
REMARK VINA RESULT:      -8.3      4.223      9.520
REMARK  Name = 
REMARK  7 active torsions:
REMARK  status: ('A' for Active; 'I' for Inactive)
REMARK    1  A    between atoms: C_1  and  O_2
REMARK    2  A    between atoms: O_2  and  C_3
REMARK    3  A    between atoms: C_3  and  C_4
REMARK    4  A    between atoms: C_4  and  C_5
REMARK    5  A    between atoms: C_7  and  O_8
REMARK    6  A    between atoms: C_11  and  C_12
REMARK    7  A    between atoms: C_16  and  C_17
REMARK                            x       y       z     vdW  Elec       q    Type
REMARK                         _______ _______ _______ _____ _____    ______ ____
ROOT
ATOM      1  C   UNL     1       0.566   9.947  19.305  0.00  0.00    +0.000 A 
ATOM      2  C   UNL     1       1.402   9.875  18.176  0.00  0.00    +0.000 A 
ATOM      3  C   UNL     1       2.247   8.787  17.912  0.00  0.00    +0.000 A 
ATOM      4  C   UNL     1       2.351   7.762  18.861  0.00  0.00    +0.000 A 
ATOM      5  C   UNL     1       3.061   6.542  18.978  0.00  0.00    +0.000 A 
ATOM      6  N   UNL     1       2.828   5.928  20.149  0.00  0.00    +0.000 NA
ATOM      7  N   UNL     1       1.965   6.763  20.768  0.00  0.00    +0.000 N 
ATOM      8  C   UNL     1       1.606   7.858  20.026  0.00  0.00    +0.000 A 
ATOM      9  C   UNL     1       0.703   8.909  20.267  0.00  0.00    +0.000 A 
ATOM     10  H   UNL     1       1.654   6.525  21.702  0.00  0.00    +0.000 HD
ENDROOT
BRANCH   5  11
ATOM     11  C   UNL     1       3.965   5.964  17.942  0.00  0.00    +0.000 A 
ATOM     12  N   UNL     1       3.725   4.877  17.236  0.00  0.00    +0.000 NA
ATOM     13  C   UNL     1       4.819   4.722  16.424  0.00  0.00    +0.000 A 
ATOM     14  C   UNL     1       5.085   3.733  15.464  0.00  0.00    +0.000 A 
ATOM     15  C   UNL     1       6.291   3.793  14.756  0.00  0.00    +0.000 A 
ATOM     16  C   UNL     1       7.213   4.814  15.004  0.00  0.00    +0.000 A 
ATOM     17  C   UNL     1       6.965   5.810  15.955  0.00  0.00    +0.000 A 
ATOM     18  C   UNL     1       5.752   5.730  16.643  0.00  0.00    +0.000 A 
ATOM     19  N   UNL     1       5.178   6.510  17.612  0.00  0.00    +0.000 N 
ATOM     20  H   UNL     1       5.557   7.344  18.037  0.00  0.00    +0.000 HD
ENDBRANCH   5  11
BRANCH   1  26
ATOM     21  C   UNL     1      -1.719  11.128  18.949  0.00  0.00    +0.000 A 
ATOM     22  C   UNL     1      -2.552  12.230  19.268  0.00  0.00    +0.000 A 
ATOM     23  C   UNL     1      -2.137  13.231  20.127  0.00  0.00    +0.000 A 
ATOM     24  C   UNL     1      -0.874  13.187  20.685  0.00  0.00    +0.000 A 
ATOM     25  C   UNL     1      -0.025  12.122  20.376  0.00  0.00    +0.000 A 
ATOM     26  C   UNL     1      -0.404  11.062  19.520  0.00  0.00    +0.000 A 
BRANCH  23  27
ATOM     27  O   UNL     1      -2.934  14.287  20.452  0.00  0.00    +0.000 OA
ATOM     28  H   UNL     1      -3.510  14.022  21.194  0.00  0.00    +0.000 HD
ENDBRANCH  23  27
BRANCH  21  29
ATOM     29  C   UNL     1      -2.266  10.052  18.013  0.00  0.00    +0.000 C 
BRANCH  29  30
ATOM     30  C   UNL     1      -3.222  10.503  16.901  0.00  0.00    +0.000 C 
BRANCH  30  32
ATOM     31  C   UNL     1      -3.225  10.193  14.571  0.00  0.00    +0.000 C 
ATOM     32  O   UNL     1      -2.496  10.695  15.687  0.00  0.00    +0.000 OA
ENDBRANCH  30  32
ENDBRANCH  29  30
ENDBRANCH  21  29
ENDBRANCH   1  26
TORSDOF 6
ENDMDL
MODEL 6
REMARK VINA RESULT:      -8.2      0.995      1.021
REMARK  Name = 
REMARK  7 active torsions:
REMARK  status: ('A' for Active; 'I' for Inactive)
REMARK    1  A    between atoms: C_1  and  O_2
REMARK    2  A    between atoms: O_2  and  C_3
REMARK    3  A    between atoms: C_3  and  C_4
REMARK    4  A    between atoms: C_4  and  C_5
REMARK    5  A    between atoms: C_7  and  O_8
REMARK    6  A    between atoms: C_11  and  C_12
REMARK    7  A    between atoms: C_16  and  C_17
REMARK                            x       y       z     vdW  Elec       q    Type
REMARK                         _______ _______ _______ _____ _____    ______ ____
ROOT
ATOM      1  C   UNL     1       2.360   6.679  19.067  0.00  0.00    +0.000 A 
ATOM      2  C   UNL     1       1.863   7.021  20.338  0.00  0.00    +0.000 A 
ATOM      3  C   UNL     1       1.300   8.272  20.634  0.00  0.00    +0.000 A 
ATOM      4  C   UNL     1       1.321   9.274  19.656  0.00  0.00    +0.000 A 
ATOM      5  C   UNL     1       0.880  10.617  19.555  0.00  0.00    +0.000 A 
ATOM      6  N   UNL     1       1.189  11.165  18.369  0.00  0.00    +0.000 NA
ATOM      7  N   UNL     1       1.821  10.163  17.721  0.00  0.00    +0.000 N 
ATOM      8  C   UNL     1       1.890   8.989  18.425  0.00  0.00    +0.000 A 
ATOM      9  C   UNL     1       2.393   7.717  18.096  0.00  0.00    +0.000 A 
ATOM     10  H   UNL     1       2.182  10.345  16.792  0.00  0.00    +0.000 HD
ENDROOT
BRANCH   5  11
ATOM     11  C   UNL     1       0.147  11.368  20.614  0.00  0.00    +0.000 A 
ATOM     12  N   UNL     1      -0.920  10.939  21.259  0.00  0.00    +0.000 NA
ATOM     13  C   UNL     1      -1.254  11.950  22.123  0.00  0.00    +0.000 A 
ATOM     14  C   UNL     1      -2.302  12.019  23.053  0.00  0.00    +0.000 A 
ATOM     15  C   UNL     1      -2.436  13.176  23.828  0.00  0.00    +0.000 A 
ATOM     16  C   UNL     1      -1.546  14.243  23.675  0.00  0.00    +0.000 A 
ATOM     17  C   UNL     1      -0.494  14.193  22.755  0.00  0.00    +0.000 A 
ATOM     18  C   UNL     1      -0.380  13.024  21.998  0.00  0.00    +0.000 A 
ATOM     19  N   UNL     1       0.506  12.623  21.033  0.00  0.00    +0.000 N 
ATOM     20  H   UNL     1       1.293  13.137  20.665  0.00  0.00    +0.000 HD
ENDBRANCH   5  11
BRANCH   1  26
ATOM     21  C   UNL     1       4.127   5.025  18.130  0.00  0.00    +0.000 A 
ATOM     22  C   UNL     1       4.492   3.672  17.907  0.00  0.00    +0.000 A 
ATOM     23  C   UNL     1       3.667   2.626  18.277  0.00  0.00    +0.000 A 
ATOM     24  C   UNL     1       2.441   2.881  18.862  0.00  0.00    +0.000 A 
ATOM     25  C   UNL     1       2.048   4.204  19.078  0.00  0.00    +0.000 A 
ATOM     26  C   UNL     1       2.860   5.311  18.738  0.00  0.00    +0.000 A 
BRANCH  23  27
ATOM     27  O   UNL     1       4.013   1.323  18.080  0.00  0.00    +0.000 OA
ATOM     28  H   UNL     1       3.367   0.758  18.546  0.00  0.00    +0.000 HD
ENDBRANCH  23  27
BRANCH  21  29
ATOM     29  C   UNL     1       5.110   6.118  17.717  0.00  0.00    +0.000 C 
BRANCH  29  30
ATOM     30  C   UNL     1       5.417   6.264  16.221  0.00  0.00    +0.000 C 
BRANCH  30  32
ATOM     31  C   UNL     1       6.926   4.898  15.044  0.00  0.00    +0.000 C 
ATOM     32  O   UNL     1       6.793   5.964  15.978  0.00  0.00    +0.000 OA
ENDBRANCH  30  32
ENDBRANCH  29  30
ENDBRANCH  21  29
ENDBRANCH   1  26
TORSDOF 6
ENDMDL
MODEL 7
REMARK VINA RESULT:      -8.2      4.263      9.577
REMARK  Name = 
REMARK  7 active torsions:
REMARK  status: ('A' for Active; 'I' for Inactive)
REMARK    1  A    between atoms: C_1  and  O_2
REMARK    2  A    between atoms: O_2  and  C_3
REMARK    3  A    between atoms: C_3  and  C_4
REMARK    4  A    between atoms: C_4  and  C_5
REMARK    5  A    between atoms: C_7  and  O_8
REMARK    6  A    between atoms: C_11  and  C_12
REMARK    7  A    between atoms: C_16  and  C_17
REMARK                            x       y       z     vdW  Elec       q    Type
REMARK                         _______ _______ _______ _____ _____    ______ ____
ROOT
ATOM      1  C   UNL     1       0.590   9.863  19.286  0.00  0.00    +0.000 A 
ATOM      2  C   UNL     1       1.431   9.819  18.159  0.00  0.00    +0.000 A 
ATOM      3  C   UNL     1       2.307   8.756  17.893  0.00  0.00    +0.000 A 
ATOM      4  C   UNL     1       2.437   7.731  18.838  0.00  0.00    +0.000 A 
ATOM      5  C   UNL     1       3.181   6.531  18.952  0.00  0.00    +0.000 A 
ATOM      6  N   UNL     1       2.962   5.906  20.120  0.00  0.00    +0.000 NA
ATOM      7  N   UNL     1       2.074   6.713  20.739  0.00  0.00    +0.000 N 
ATOM      8  C   UNL     1       1.687   7.801  20.001  0.00  0.00    +0.000 A 
ATOM      9  C   UNL     1       0.754   8.825  20.244  0.00  0.00    +0.000 A 
ATOM     10  H   UNL     1       1.767   6.462  21.672  0.00  0.00    +0.000 HD
ENDROOT
BRANCH   5  11
ATOM     11  C   UNL     1       4.103   5.983  17.916  0.00  0.00    +0.000 A 
ATOM     12  N   UNL     1       5.276   6.489  17.590  0.00  0.00    +0.000 NA
ATOM     13  C   UNL     1       5.761   5.675  16.599  0.00  0.00    +0.000 A 
ATOM     14  C   UNL     1       6.974   5.748  15.898  0.00  0.00    +0.000 A 
ATOM     15  C   UNL     1       7.241   4.786  14.917  0.00  0.00    +0.000 A 
ATOM     16  C   UNL     1       6.315   3.776  14.639  0.00  0.00    +0.000 A 
ATOM     17  C   UNL     1       5.101   3.685  15.329  0.00  0.00    +0.000 A 
ATOM     18  C   UNL     1       4.862   4.654  16.306  0.00  0.00    +0.000 A 
ATOM     19  N   UNL     1       3.818   4.873  17.165  0.00  0.00    +0.000 N 
ATOM     20  H   UNL     1       2.968   4.335  17.252  0.00  0.00    +0.000 HD
ENDBRANCH   5  11
BRANCH   1  26
ATOM     21  C   UNL     1      -1.666  11.059  18.815  0.00  0.00    +0.000 A 
ATOM     22  C   UNL     1      -2.541  12.124  19.148  0.00  0.00    +0.000 A 
ATOM     23  C   UNL     1      -2.224  13.047  20.128  0.00  0.00    +0.000 A 
ATOM     24  C   UNL     1      -1.020  12.960  20.800  0.00  0.00    +0.000 A 
ATOM     25  C   UNL     1      -0.131  11.931  20.482  0.00  0.00    +0.000 A 
ATOM     26  C   UNL     1      -0.412  10.949  19.503  0.00  0.00    +0.000 A 
BRANCH  23  27
ATOM     27  O   UNL     1      -3.064  14.066  20.465  0.00  0.00    +0.000 OA
ATOM     28  H   UNL     1      -2.968  14.777  19.803  0.00  0.00    +0.000 HD
ENDBRANCH  23  27
BRANCH  21  29
ATOM     29  C   UNL     1      -2.106  10.068  17.740  0.00  0.00    +0.000 C 
BRANCH  29  30
ATOM     30  C   UNL     1      -2.819  10.635  16.505  0.00  0.00    +0.000 C 
BRANCH  30  32
ATOM     31  C   UNL     1      -3.322  10.165  14.258  0.00  0.00    +0.000 C 
ATOM     32  O   UNL     1      -2.971   9.610  15.522  0.00  0.00    +0.000 OA
ENDBRANCH  30  32
ENDBRANCH  29  30
ENDBRANCH  21  29
ENDBRANCH   1  26
TORSDOF 6
ENDMDL
MODEL 8
REMARK VINA RESULT:      -8.1      1.783      3.111
REMARK  Name = 
REMARK  7 active torsions:
REMARK  status: ('A' for Active; 'I' for Inactive)
REMARK    1  A    between atoms: C_1  and  O_2
REMARK    2  A    between atoms: O_2  and  C_3
REMARK    3  A    between atoms: C_3  and  C_4
REMARK    4  A    between atoms: C_4  and  C_5
REMARK    5  A    between atoms: C_7  and  O_8
REMARK    6  A    between atoms: C_11  and  C_12
REMARK    7  A    between atoms: C_16  and  C_17
REMARK                            x       y       z     vdW  Elec       q    Type
REMARK                         _______ _______ _______ _____ _____    ______ ____
ROOT
ATOM      1  C   UNL     1       2.729   7.522  18.360  0.00  0.00    +0.000 A 
ATOM      2  C   UNL     1       1.920   7.486  19.511  0.00  0.00    +0.000 A 
ATOM      3  C   UNL     1       1.125   8.564  19.927  0.00  0.00    +0.000 A 
ATOM      4  C   UNL     1       1.207   9.777  19.231  0.00  0.00    +0.000 A 
ATOM      5  C   UNL     1       0.602  11.055  19.324  0.00  0.00    +0.000 A 
ATOM      6  N   UNL     1       1.076  11.910  18.404  0.00  0.00    +0.000 NA
ATOM      7  N   UNL     1       1.978  11.166  17.728  0.00  0.00    +0.000 N 
ATOM      8  C   UNL     1       2.068   9.865  18.149  0.00  0.00    +0.000 A 
ATOM      9  C   UNL     1       2.816   8.769  17.682  0.00  0.00    +0.000 A 
ATOM     10  H   UNL     1       2.501  11.608  16.981  0.00  0.00    +0.000 HD
ENDROOT
BRANCH   5  11
ATOM     11  C   UNL     1      -0.449  11.444  20.307  0.00  0.00    +0.000 A 
ATOM     12  N   UNL     1      -0.403  11.225  21.606  0.00  0.00    +0.000 NA
ATOM     13  C   UNL     1      -1.573  11.739  22.104  0.00  0.00    +0.000 A 
ATOM     14  C   UNL     1      -2.036  11.782  23.428  0.00  0.00    +0.000 A 
ATOM     15  C   UNL     1      -3.282  12.367  23.683  0.00  0.00    +0.000 A 
ATOM     16  C   UNL     1      -4.050  12.891  22.640  0.00  0.00    +0.000 A 
ATOM     17  C   UNL     1      -3.605  12.859  21.314  0.00  0.00    +0.000 A 
ATOM     18  C   UNL     1      -2.356  12.275  21.088  0.00  0.00    +0.000 A 
ATOM     19  N   UNL     1      -1.612  12.079  19.954  0.00  0.00    +0.000 N 
ATOM     20  H   UNL     1      -1.850  12.336  19.008  0.00  0.00    +0.000 HD
ENDBRANCH   5  11
BRANCH   1  26
ATOM     21  C   UNL     1       2.934   5.024  17.685  0.00  0.00    +0.000 A 
ATOM     22  C   UNL     1       3.764   3.992  17.177  0.00  0.00    +0.000 A 
ATOM     23  C   UNL     1       5.086   4.221  16.842  0.00  0.00    +0.000 A 
ATOM     24  C   UNL     1       5.640   5.474  17.016  0.00  0.00    +0.000 A 
ATOM     25  C   UNL     1       4.851   6.506  17.531  0.00  0.00    +0.000 A 
ATOM     26  C   UNL     1       3.489   6.333  17.872  0.00  0.00    +0.000 A 
BRANCH  23  27
ATOM     27  O   UNL     1       5.888   3.240  16.340  0.00  0.00    +0.000 OA
ATOM     28  H   UNL     1       5.329   2.598  15.863  0.00  0.00    +0.000 HD
ENDBRANCH  23  27
BRANCH  21  29
ATOM     29  C   UNL     1       1.478   4.692  18.004  0.00  0.00    +0.000 C 
BRANCH  29  30
ATOM     30  C   UNL     1       1.212   3.516  18.952  0.00  0.00    +0.000 C 
BRANCH  30  32
ATOM     31  C   UNL     1       1.599   3.271  21.258  0.00  0.00    +0.000 C 
ATOM     32  O   UNL     1       0.903   4.008  20.258  0.00  0.00    +0.000 OA
ENDBRANCH  30  32
ENDBRANCH  29  30
ENDBRANCH  21  29
ENDBRANCH   1  26
TORSDOF 6
ENDMDL
MODEL 9
REMARK VINA RESULT:      -8.0      2.185      2.895
REMARK  Name = 
REMARK  7 active torsions:
REMARK  status: ('A' for Active; 'I' for Inactive)
REMARK    1  A    between atoms: C_1  and  O_2
REMARK    2  A    between atoms: O_2  and  C_3
REMARK    3  A    between atoms: C_3  and  C_4
REMARK    4  A    between atoms: C_4  and  C_5
REMARK    5  A    between atoms: C_7  and  O_8
REMARK    6  A    between atoms: C_11  and  C_12
REMARK    7  A    between atoms: C_16  and  C_17
REMARK                            x       y       z     vdW  Elec       q    Type
REMARK                         _______ _______ _______ _____ _____    ______ ____
ROOT
ATOM      1  C   UNL     1       2.233   6.860  19.015  0.00  0.00    +0.000 A 
ATOM      2  C   UNL     1       2.099   7.935  18.117  0.00  0.00    +0.000 A 
ATOM      3  C   UNL     1       1.742   9.231  18.516  0.00  0.00    +0.000 A 
ATOM      4  C   UNL     1       1.399   9.459  19.854  0.00  0.00    +0.000 A 
ATOM      5  C   UNL     1       0.994  10.571  20.633  0.00  0.00    +0.000 A 
ATOM      6  N   UNL     1       0.740  10.234  21.908  0.00  0.00    +0.000 NA
ATOM      7  N   UNL     1       0.991   8.908  21.931  0.00  0.00    +0.000 N 
ATOM      8  C   UNL     1       1.433   8.394  20.740  0.00  0.00    +0.000 A 
ATOM      9  C   UNL     1       1.858   7.107  20.364  0.00  0.00    +0.000 A 
ATOM     10  H   UNL     1       0.842   8.406  22.799  0.00  0.00    +0.000 HD
ENDROOT
BRANCH   5  11
ATOM     11  C   UNL     1       0.862  11.972  20.138  0.00  0.00    +0.000 A 
ATOM     12  N   UNL     1      -0.270  12.637  20.012  0.00  0.00    +0.000 NA
ATOM     13  C   UNL     1       0.083  13.867  19.520  0.00  0.00    +0.000 A 
ATOM     14  C   UNL     1      -0.727  14.969  19.208  0.00  0.00    +0.000 A 
ATOM     15  C   UNL     1      -0.120  16.129  18.712  0.00  0.00    +0.000 A 
ATOM     16  C   UNL     1       1.264  16.185  18.527  0.00  0.00    +0.000 A 
ATOM     17  C   UNL     1       2.089  15.097  18.834  0.00  0.00    +0.000 A 
ATOM     18  C   UNL     1       1.458  13.954  19.333  0.00  0.00    +0.000 A 
ATOM     19  N   UNL     1       1.929  12.734  19.740  0.00  0.00    +0.000 N 
ATOM     20  H   UNL     1       2.886  12.415  19.753  0.00  0.00    +0.000 HD
ENDBRANCH   5  11
BRANCH   1  26
ATOM     21  C   UNL     1       3.941   5.261  17.889  0.00  0.00    +0.000 A 
ATOM     22  C   UNL     1       4.295   3.922  17.582  0.00  0.00    +0.000 A 
ATOM     23  C   UNL     1       3.500   2.855  17.958  0.00  0.00    +0.000 A 
ATOM     24  C   UNL     1       2.315   3.076  18.633  0.00  0.00    +0.000 A 
ATOM     25  C   UNL     1       1.932   4.385  18.934  0.00  0.00    +0.000 A 
ATOM     26  C   UNL     1       2.716   5.512  18.592  0.00  0.00    +0.000 A 
BRANCH  23  27
ATOM     27  O   UNL     1       3.837   1.564  17.680  0.00  0.00    +0.000 OA
ATOM     28  H   UNL     1       3.233   0.975  18.171  0.00  0.00    +0.000 HD
ENDBRANCH  23  27
BRANCH  21  29
ATOM     29  C   UNL     1       4.890   6.378  17.463  0.00  0.00    +0.000 C 
BRANCH  29  30
ATOM     30  C   UNL     1       5.339   6.403  15.996  0.00  0.00    +0.000 C 
BRANCH  30  32
ATOM     31  C   UNL     1       6.898   4.872  15.130  0.00  0.00    +0.000 C 
ATOM     32  O   UNL     1       6.721   6.052  15.907  0.00  0.00    +0.000 OA
ENDBRANCH  30  32
ENDBRANCH  29  30
ENDBRANCH  21  29
ENDBRANCH   1  26
TORSDOF 6
ENDMDL
