MODEL 1
REMARK VINA RESULT:      -7.9      0.000      0.000
REMARK  Name = 
REMARK  12 active torsions:
REMARK  status: ('A' for Active; 'I' for Inactive)
REMARK    1  A    between atoms: N_4  and  C_5
REMARK    2  A    between atoms: C_5  and  C_6
REMARK    3  A    between atoms: C_6  and  C_7
REMARK    4  A    between atoms: C_7  and  C_8
REMARK    5  A    between atoms: C_14  and  C_15
REMARK    6  A    between atoms: N_17  and  C_18
REMARK    7  A    between atoms: C_18  and  C_19
REMARK    8  A    between atoms: C_18  and  C_23
REMARK    9  A    between atoms: C_19  and  C_20
REMARK   10  A    between atoms: C_20  and  O_22
REMARK   11  A    between atoms: N_25  and  C_26
REMARK   12  A    between atoms: C_26  and  C_27
REMARK                            x       y       z     vdW  Elec       q    Type
REMARK                         _______ _______ _______ _____ _____    ______ ____
ROOT
ATOM      1  C   UNL     1       4.787   3.916  19.229  0.00  0.00    +0.000 C 
ATOM      2  O   UNL     1       5.382   2.949  19.707  0.00  0.00    +0.000 OA
ATOM      3  N   UNL     1       3.437   4.026  19.424  0.00  0.00    +0.000 N 
ATOM      4  H   UNL     1       3.022   3.253  19.942  0.00  0.00    +0.000 HD
ENDROOT
BRANCH   1  11
ATOM      5  C   UNL     1       5.365   4.176  16.244  0.00  0.00    +0.000 C 
ATOM      6  O   UNL     1       4.138   4.097  16.332  0.00  0.00    +0.000 OA
ATOM      7  N   UNL     1       6.125   4.682  17.273  0.00  0.00    +0.000 N 
ATOM      8  C   UNL     1       7.518   5.079  17.245  0.00  0.00    +0.000 C 
ATOM      9  C   UNL     1       7.905   5.064  18.709  0.00  0.00    +0.000 C 
ATOM     10  C   UNL     1       6.649   5.581  19.407  0.00  0.00    +0.000 C 
ATOM     11  C   UNL     1       5.496   5.078  18.524  0.00  0.00    +0.000 C 
BRANCH   5  12
ATOM     12  C   UNL     1       6.124   3.656  15.037  0.00  0.00    +0.000 C 
BRANCH  12  13
ATOM     13  C   UNL     1       5.624   4.250  13.719  0.00  0.00    +0.000 C 
BRANCH  13  14
ATOM     14  C   UNL     1       6.629   4.011  12.591  0.00  0.00    +0.000 C 
BRANCH  14  18
ATOM     15  N   UNL     1       4.602   2.530  11.185  0.00  0.00    +0.000 NA
ATOM     16  C   UNL     1       5.723   2.002  11.499  0.00  0.00    +0.000 C 
ATOM     17  N   UNL     1       6.058   0.736  11.180  0.00  0.00    +0.000 N 
ATOM     18  N   UNL     1       6.693   2.616  12.211  0.00  0.00    +0.000 N 
ATOM     19  H   UNL     1       4.046   1.862  10.649  0.00  0.00    +0.000 HD
ATOM     20  H   UNL     1       5.276   0.148  10.919  0.00  0.00    +0.000 HD
ATOM     21  H   UNL     1       6.632   0.283  11.881  0.00  0.00    +0.000 HD
ATOM     22  H   UNL     1       7.630   2.252  12.109  0.00  0.00    +0.000 HD
ENDBRANCH  14  18
ENDBRANCH  13  14
ENDBRANCH  12  13
ENDBRANCH   5  12
ENDBRANCH   1  11
BRANCH   3  23
ATOM     23  C   UNL     1       2.547   5.092  18.972  0.00  0.00    +0.000 C 
BRANCH  23  24
ATOM     24  C   UNL     1       2.070   5.830  20.235  0.00  0.00    +0.000 C 
ATOM     25  O   UNL     1       1.708   5.214  21.238  0.00  0.00    +0.000 OA
ATOM     26  N   UNL     1       2.016   7.193  20.116  0.00  0.00    +0.000 N 
ATOM     27  H   UNL     1       2.322   7.645  19.258  0.00  0.00    +0.000 HD
BRANCH  26  28
ATOM     28  C   UNL     1       1.580   8.039  21.202  0.00  0.00    +0.000 C 
BRANCH  28  29
ATOM     29  C   UNL     1       0.797   9.220  20.701  0.00  0.00    +0.000 A 
ATOM     30  C   UNL     1      -0.103   9.895  21.536  0.00  0.00    +0.000 A 
ATOM     31  C   UNL     1      -0.827  10.989  21.058  0.00  0.00    +0.000 A 
ATOM     32  C   UNL     1      -0.663  11.415  19.741  0.00  0.00    +0.000 A 
ATOM     33  C   UNL     1       0.222  10.747  18.899  0.00  0.00    +0.000 A 
ATOM     34  C   UNL     1       0.941   9.650  19.373  0.00  0.00    +0.000 A 
ENDBRANCH  28  29
ENDBRANCH  26  28
ENDBRANCH  23  24
BRANCH  23  35
ATOM     35  C   UNL     1       1.334   4.539  18.225  0.00  0.00    +0.000 C 
BRANCH  35  36
ATOM     36  C   UNL     1       1.159   3.077  18.533  0.00  0.00    +0.000 C 
ATOM     37  O   UNL     1       1.610   2.177  17.837  0.00  0.00    +0.000 OA
BRANCH  36  38
ATOM     38  O   UNL     1       0.464   2.839  19.664  0.00  0.00    +0.000 OA
ATOM     39  H   UNL     1       1.000   2.827  20.482  0.00  0.00    +0.000 HD
ENDBRANCH  36  38
ENDBRANCH  35  36
ENDBRANCH  23  35
ENDBRANCH   3  23
TORSDOF 12
ENDMDL
MODEL 2
REMARK VINA RESULT:      -7.9      0.374      1.082
REMARK  Name = 
REMARK  12 active torsions:
REMARK  status: ('A' for Active; 'I' for Inactive)
REMARK    1  A    between atoms: N_4  and  C_5
REMARK    2  A    between atoms: C_5  and  C_6
REMARK    3  A    between atoms: C_6  and  C_7
REMARK    4  A    between atoms: C_7  and  C_8
REMARK    5  A    between atoms: C_14  and  C_15
REMARK    6  A    between atoms: N_17  and  C_18
REMARK    7  A    between atoms: C_18  and  C_19
REMARK    8  A    between atoms: C_18  and  C_23
REMARK    9  A    between atoms: C_19  and  C_20
REMARK   10  A    between atoms: C_20  and  O_22
REMARK   11  A    between atoms: N_25  and  C_26
REMARK   12  A    between atoms: C_26  and  C_27
REMARK                            x       y       z     vdW  Elec       q    Type
REMARK                         _______ _______ _______ _____ _____    ______ ____
ROOT
ATOM      1  C   UNL     1       4.778   3.791  19.220  0.00  0.00    +0.000 C 
ATOM      2  O   UNL     1       5.459   2.901  19.730  0.00  0.00    +0.000 OA
ATOM      3  N   UNL     1       3.420   3.765  19.383  0.00  0.00    +0.000 N 
ATOM      4  H   UNL     1       3.075   2.963  19.908  0.00  0.00    +0.000 HD
ENDROOT
BRANCH   1  11
ATOM      5  C   UNL     1       5.266   4.109  16.224  0.00  0.00    +0.000 C 
ATOM      6  O   UNL     1       4.051   3.936  16.339  0.00  0.00    +0.000 OA
ATOM      7  N   UNL     1       6.008   4.667  17.238  0.00  0.00    +0.000 N 
ATOM      8  C   UNL     1       7.366   5.170  17.181  0.00  0.00    +0.000 C 
ATOM      9  C   UNL     1       7.787   5.178  18.637  0.00  0.00    +0.000 C 
ATOM     10  C   UNL     1       6.511   5.594  19.366  0.00  0.00    +0.000 C 
ATOM     11  C   UNL     1       5.380   5.008  18.506  0.00  0.00    +0.000 C 
BRANCH   5  12
ATOM     12  C   UNL     1       6.035   3.654  14.997  0.00  0.00    +0.000 C 
BRANCH  12  13
ATOM     13  C   UNL     1       5.861   4.595  13.803  0.00  0.00    +0.000 C 
BRANCH  13  14
ATOM     14  C   UNL     1       6.749   4.170  12.633  0.00  0.00    +0.000 C 
BRANCH  14  18
ATOM     15  N   UNL     1       4.661   2.818  11.186  0.00  0.00    +0.000 NA
ATOM     16  C   UNL     1       5.679   2.190  11.640  0.00  0.00    +0.000 C 
ATOM     17  N   UNL     1       5.872   0.869  11.459  0.00  0.00    +0.000 N 
ATOM     18  N   UNL     1       6.663   2.747  12.379  0.00  0.00    +0.000 N 
ATOM     19  H   UNL     1       4.066   2.174  10.662  0.00  0.00    +0.000 HD
ATOM     20  H   UNL     1       5.043   0.357  11.182  0.00  0.00    +0.000 HD
ATOM     21  H   UNL     1       6.329   0.418  12.242  0.00  0.00    +0.000 HD
ATOM     22  H   UNL     1       7.550   2.266  12.389  0.00  0.00    +0.000 HD
ENDBRANCH  14  18
ENDBRANCH  13  14
ENDBRANCH  12  13
ENDBRANCH   5  12
ENDBRANCH   1  11
BRANCH   3  23
ATOM     23  C   UNL     1       2.435   4.724  18.891  0.00  0.00    +0.000 C 
BRANCH  23  24
ATOM     24  C   UNL     1       1.921   5.495  20.119  0.00  0.00    +0.000 C 
ATOM     25  O   UNL     1       1.386   4.912  21.062  0.00  0.00    +0.000 OA
ATOM     26  N   UNL     1       2.043   6.856  20.033  0.00  0.00    +0.000 N 
ATOM     27  H   UNL     1       2.489   7.280  19.224  0.00  0.00    +0.000 HD
BRANCH  26  28
ATOM     28  C   UNL     1       1.601   7.732  21.093  0.00  0.00    +0.000 C 
BRANCH  28  29
ATOM     29  C   UNL     1       0.900   8.946  20.548  0.00  0.00    +0.000 A 
ATOM     30  C   UNL     1       1.124   9.378  19.235  0.00  0.00    +0.000 A 
ATOM     31  C   UNL     1       0.469  10.508  18.742  0.00  0.00    +0.000 A 
ATOM     32  C   UNL     1      -0.410  11.219  19.557  0.00  0.00    +0.000 A 
ATOM     33  C   UNL     1      -0.633  10.804  20.867  0.00  0.00    +0.000 A 
ATOM     34  C   UNL     1       0.025   9.679  21.364  0.00  0.00    +0.000 A 
ENDBRANCH  28  29
ENDBRANCH  26  28
ENDBRANCH  23  24
BRANCH  23  35
ATOM     35  C   UNL     1       1.260   4.029  18.205  0.00  0.00    +0.000 C 
BRANCH  35  36
ATOM     36  C   UNL     1       1.362   2.539  18.388  0.00  0.00    +0.000 C 
ATOM     37  O   UNL     1       0.798   1.925  19.284  0.00  0.00    +0.000 OA
BRANCH  36  38
ATOM     38  O   UNL     1       2.125   1.928  17.460  0.00  0.00    +0.000 OA
ATOM     39  H   UNL     1       2.947   1.523  17.803  0.00  0.00    +0.000 HD
ENDBRANCH  36  38
ENDBRANCH  35  36
ENDBRANCH  23  35
ENDBRANCH   3  23
TORSDOF 12
ENDMDL
MODEL 3
REMARK VINA RESULT:      -7.8      2.528      9.566
REMARK  Name = 
REMARK  12 active torsions:
REMARK  status: ('A' for Active; 'I' for Inactive)
REMARK    1  A    between atoms: N_4  and  C_5
REMARK    2  A    between atoms: C_5  and  C_6
REMARK    3  A    between atoms: C_6  and  C_7
REMARK    4  A    between atoms: C_7  and  C_8
REMARK    5  A    between atoms: C_14  and  C_15
REMARK    6  A    between atoms: N_17  and  C_18
REMARK    7  A    between atoms: C_18  and  C_19
REMARK    8  A    between atoms: C_18  and  C_23
REMARK    9  A    between atoms: C_19  and  C_20
REMARK   10  A    between atoms: C_20  and  O_22
REMARK   11  A    between atoms: N_25  and  C_26
REMARK   12  A    between atoms: C_26  and  C_27
REMARK                            x       y       z     vdW  Elec       q    Type
REMARK                         _______ _______ _______ _____ _____    ______ ____
ROOT
ATOM      1  C   UNL     1       4.909   3.928  18.659  0.00  0.00    +0.000 C 
ATOM      2  O   UNL     1       5.253   3.263  19.637  0.00  0.00    +0.000 OA
ATOM      3  N   UNL     1       5.865   4.592  17.939  0.00  0.00    +0.000 N 
ATOM      4  H   UNL     1       6.810   4.498  18.307  0.00  0.00    +0.000 HD
ENDROOT
BRANCH   1  11
ATOM      5  C   UNL     1       2.697   5.878  19.445  0.00  0.00    +0.000 C 
ATOM      6  O   UNL     1       3.598   6.579  18.981  0.00  0.00    +0.000 OA
ATOM      7  N   UNL     1       2.535   4.569  19.053  0.00  0.00    +0.000 N 
ATOM      8  C   UNL     1       1.403   3.697  19.294  0.00  0.00    +0.000 C 
ATOM      9  C   UNL     1       1.990   2.315  19.089  0.00  0.00    +0.000 C 
ATOM     10  C   UNL     1       2.969   2.520  17.934  0.00  0.00    +0.000 C 
ATOM     11  C   UNL     1       3.473   3.960  18.123  0.00  0.00    +0.000 C 
BRANCH   5  12
ATOM     12  C   UNL     1       1.758   6.379  20.526  0.00  0.00    +0.000 C 
BRANCH  12  13
ATOM     13  C   UNL     1       1.413   7.862  20.374  0.00  0.00    +0.000 C 
BRANCH  13  14
ATOM     14  C   UNL     1       1.347   8.555  21.736  0.00  0.00    +0.000 C 
BRANCH  14  18
ATOM     15  N   UNL     1       0.116   9.554  24.137  0.00  0.00    +0.000 NA
ATOM     16  C   UNL     1      -0.239   9.965  22.979  0.00  0.00    +0.000 C 
ATOM     17  N   UNL     1      -1.184  10.906  22.788  0.00  0.00    +0.000 N 
ATOM     18  N   UNL     1       0.250   9.497  21.810  0.00  0.00    +0.000 N 
ATOM     19  H   UNL     1      -0.400  10.064  24.856  0.00  0.00    +0.000 HD
ATOM     20  H   UNL     1      -1.782  11.071  23.589  0.00  0.00    +0.000 HD
ATOM     21  H   UNL     1      -1.735  10.758  21.952  0.00  0.00    +0.000 HD
ATOM     22  H   UNL     1       0.163  10.102  21.007  0.00  0.00    +0.000 HD
ENDBRANCH  14  18
ENDBRANCH  13  14
ENDBRANCH  12  13
ENDBRANCH   5  12
ENDBRANCH   1  11
BRANCH   3  23
ATOM     23  C   UNL     1       5.685   5.410  16.742  0.00  0.00    +0.000 C 
BRANCH  23  24
ATOM     24  C   UNL     1       6.725   4.923  15.718  0.00  0.00    +0.000 C 
ATOM     25  O   UNL     1       7.768   4.374  16.076  0.00  0.00    +0.000 OA
ATOM     26  N   UNL     1       6.427   5.217  14.415  0.00  0.00    +0.000 N 
ATOM     27  H   UNL     1       5.552   5.679  14.181  0.00  0.00    +0.000 HD
BRANCH  26  28
ATOM     28  C   UNL     1       7.300   4.843  13.327  0.00  0.00    +0.000 C 
BRANCH  28  29
ATOM     29  C   UNL     1       6.710   3.733  12.502  0.00  0.00    +0.000 A 
ATOM     30  C   UNL     1       7.533   2.810  11.844  0.00  0.00    +0.000 A 
ATOM     31  C   UNL     1       6.972   1.785  11.078  0.00  0.00    +0.000 A 
ATOM     32  C   UNL     1       5.588   1.677  10.960  0.00  0.00    +0.000 A 
ATOM     33  C   UNL     1       4.761   2.594  11.603  0.00  0.00    +0.000 A 
ATOM     34  C   UNL     1       5.318   3.622  12.363  0.00  0.00    +0.000 A 
ENDBRANCH  28  29
ENDBRANCH  26  28
ENDBRANCH  23  24
BRANCH  23  35
ATOM     35  C   UNL     1       5.916   6.892  17.028  0.00  0.00    +0.000 C 
BRANCH  35  36
ATOM     36  C   UNL     1       7.287   7.099  17.613  0.00  0.00    +0.000 C 
ATOM     37  O   UNL     1       7.673   6.567  18.645  0.00  0.00    +0.000 OA
BRANCH  36  38
ATOM     38  O   UNL     1       8.070   7.922  16.885  0.00  0.00    +0.000 OA
ATOM     39  H   UNL     1       7.624   8.356  16.131  0.00  0.00    +0.000 HD
ENDBRANCH  36  38
ENDBRANCH  35  36
ENDBRANCH  23  35
ENDBRANCH   3  23
TORSDOF 12
ENDMDL
MODEL 4
REMARK VINA RESULT:      -7.4      2.495      9.252
REMARK  Name = 
REMARK  12 active torsions:
REMARK  status: ('A' for Active; 'I' for Inactive)
REMARK    1  A    between atoms: N_4  and  C_5
REMARK    2  A    between atoms: C_5  and  C_6
REMARK    3  A    between atoms: C_6  and  C_7
REMARK    4  A    between atoms: C_7  and  C_8
REMARK    5  A    between atoms: C_14  and  C_15
REMARK    6  A    between atoms: N_17  and  C_18
REMARK    7  A    between atoms: C_18  and  C_19
REMARK    8  A    between atoms: C_18  and  C_23
REMARK    9  A    between atoms: C_19  and  C_20
REMARK   10  A    between atoms: C_20  and  O_22
REMARK   11  A    between atoms: N_25  and  C_26
REMARK   12  A    between atoms: C_26  and  C_27
REMARK                            x       y       z     vdW  Elec       q    Type
REMARK                         _______ _______ _______ _____ _____    ______ ____
ROOT
ATOM      1  C   UNL     1       4.785   3.457  18.933  0.00  0.00    +0.000 C 
ATOM      2  O   UNL     1       4.800   2.512  19.723  0.00  0.00    +0.000 OA
ATOM      3  N   UNL     1       5.959   4.096  18.640  0.00  0.00    +0.000 N 
ATOM      4  H   UNL     1       6.769   3.740  19.144  0.00  0.00    +0.000 HD
ENDROOT
BRANCH   1  11
ATOM      5  C   UNL     1       2.742   5.568  19.762  0.00  0.00    +0.000 C 
ATOM      6  O   UNL     1       3.817   6.168  19.684  0.00  0.00    +0.000 OA
ATOM      7  N   UNL     1       2.497   4.440  19.015  0.00  0.00    +0.000 N 
ATOM      8  C   UNL     1       1.231   3.771  18.793  0.00  0.00    +0.000 C 
ATOM      9  C   UNL     1       1.651   2.386  18.348  0.00  0.00    +0.000 C 
ATOM     10  C   UNL     1       2.893   2.654  17.501  0.00  0.00    +0.000 C 
ATOM     11  C   UNL     1       3.534   3.888  18.157  0.00  0.00    +0.000 C 
BRANCH   5  12
ATOM     12  C   UNL     1       1.654   5.983  20.735  0.00  0.00    +0.000 C 
BRANCH  12  13
ATOM     13  C   UNL     1       1.520   7.501  20.865  0.00  0.00    +0.000 C 
BRANCH  13  14
ATOM     14  C   UNL     1       0.138   7.888  21.395  0.00  0.00    +0.000 C 
BRANCH  14  18
ATOM     15  N   UNL     1       0.141   9.834  23.515  0.00  0.00    +0.000 NA
ATOM     16  C   UNL     1      -0.040  10.171  22.294  0.00  0.00    +0.000 C 
ATOM     17  N   UNL     1      -0.214  11.447  21.899  0.00  0.00    +0.000 N 
ATOM     18  N   UNL     1      -0.115   9.307  21.258  0.00  0.00    +0.000 N 
ATOM     19  H   UNL     1       0.158  10.670  24.102  0.00  0.00    +0.000 HD
ATOM     20  H   UNL     1      -0.462  12.088  22.642  0.00  0.00    +0.000 HD
ATOM     21  H   UNL     1      -0.847  11.542  21.114  0.00  0.00    +0.000 HD
ATOM     22  H   UNL     1       0.081   9.680  20.341  0.00  0.00    +0.000 HD
ENDBRANCH  14  18
ENDBRANCH  13  14
ENDBRANCH  12  13
ENDBRANCH   5  12
ENDBRANCH   1  11
BRANCH   3  23
ATOM     23  C   UNL     1       6.172   5.212  17.722  0.00  0.00    +0.000 C 
BRANCH  23  24
ATOM     24  C   UNL     1       7.078   4.685  16.595  0.00  0.00    +0.000 C 
ATOM     25  O   UNL     1       8.112   4.064  16.843  0.00  0.00    +0.000 OA
ATOM     26  N   UNL     1       6.678   5.027  15.331  0.00  0.00    +0.000 N 
ATOM     27  H   UNL     1       5.816   5.547  15.190  0.00  0.00    +0.000 HD
BRANCH  26  28
ATOM     28  C   UNL     1       7.419   4.624  14.159  0.00  0.00    +0.000 C 
BRANCH  28  29
ATOM     29  C   UNL     1       6.542   3.907  13.171  0.00  0.00    +0.000 A 
ATOM     30  C   UNL     1       7.095   3.071  12.192  0.00  0.00    +0.000 A 
ATOM     31  C   UNL     1       6.269   2.411  11.278  0.00  0.00    +0.000 A 
ATOM     32  C   UNL     1       4.888   2.585  11.331  0.00  0.00    +0.000 A 
ATOM     33  C   UNL     1       4.328   3.421  12.295  0.00  0.00    +0.000 A 
ATOM     34  C   UNL     1       5.151   4.085  13.204  0.00  0.00    +0.000 A 
ENDBRANCH  28  29
ENDBRANCH  26  28
ENDBRANCH  23  24
BRANCH  23  35
ATOM     35  C   UNL     1       6.859   6.390  18.410  0.00  0.00    +0.000 C 
BRANCH  35  36
ATOM     36  C   UNL     1       7.064   7.514  17.431  0.00  0.00    +0.000 C 
ATOM     37  O   UNL     1       6.289   7.770  16.519  0.00  0.00    +0.000 OA
BRANCH  36  38
ATOM     38  O   UNL     1       8.182   8.232  17.655  0.00  0.00    +0.000 OA
ATOM     39  H   UNL     1       8.591   8.620  16.855  0.00  0.00    +0.000 HD
ENDBRANCH  36  38
ENDBRANCH  35  36
ENDBRANCH  23  35
ENDBRANCH   3  23
TORSDOF 12
ENDMDL
MODEL 5
REMARK VINA RESULT:      -7.3      5.314     10.791
REMARK  Name = 
REMARK  12 active torsions:
REMARK  status: ('A' for Active; 'I' for Inactive)
REMARK    1  A    between atoms: N_4  and  C_5
REMARK    2  A    between atoms: C_5  and  C_6
REMARK    3  A    between atoms: C_6  and  C_7
REMARK    4  A    between atoms: C_7  and  C_8
REMARK    5  A    between atoms: C_14  and  C_15
REMARK    6  A    between atoms: N_17  and  C_18
REMARK    7  A    between atoms: C_18  and  C_19
REMARK    8  A    between atoms: C_18  and  C_23
REMARK    9  A    between atoms: C_19  and  C_20
REMARK   10  A    between atoms: C_20  and  O_22
REMARK   11  A    between atoms: N_25  and  C_26
REMARK   12  A    between atoms: C_26  and  C_27
REMARK                            x       y       z     vdW  Elec       q    Type
REMARK                         _______ _______ _______ _____ _____    ______ ____
ROOT
ATOM      1  C   UNL     1       0.114  12.042  19.220  0.00  0.00    +0.000 C 
ATOM      2  O   UNL     1      -0.753  12.600  18.546  0.00  0.00    +0.000 OA
ATOM      3  N   UNL     1      -0.000  10.701  19.468  0.00  0.00    +0.000 N 
ATOM      4  H   UNL     1      -0.841  10.272  19.085  0.00  0.00    +0.000 HD
ENDROOT
BRANCH   1  11
ATOM      5  C   UNL     1       0.428  13.794  21.698  0.00  0.00    +0.000 C 
ATOM      6  O   UNL     1       0.071  12.693  22.122  0.00  0.00    +0.000 OA
ATOM      7  N   UNL     1       1.120  13.916  20.516  0.00  0.00    +0.000 N 
ATOM      8  C   UNL     1       1.825  15.075  20.008  0.00  0.00    +0.000 C 
ATOM      9  C   UNL     1       1.935  14.783  18.525  0.00  0.00    +0.000 C 
ATOM     10  C   UNL     1       2.167  13.274  18.484  0.00  0.00    +0.000 C 
ATOM     11  C   UNL     1       1.391  12.742  19.700  0.00  0.00    +0.000 C 
BRANCH   5  12
ATOM     12  C   UNL     1       0.067  15.088  22.405  0.00  0.00    +0.000 C 
BRANCH  12  13
ATOM     13  C   UNL     1      -0.927  14.882  23.550  0.00  0.00    +0.000 C 
BRANCH  13  14
ATOM     14  C   UNL     1      -2.365  15.104  23.078  0.00  0.00    +0.000 C 
BRANCH  14  18
ATOM     15  N   UNL     1      -3.079  15.520  20.322  0.00  0.00    +0.000 NA
ATOM     16  C   UNL     1      -3.053  14.351  20.840  0.00  0.00    +0.000 C 
ATOM     17  N   UNL     1      -3.325  13.230  20.145  0.00  0.00    +0.000 N 
ATOM     18  N   UNL     1      -2.788  14.088  22.138  0.00  0.00    +0.000 N 
ATOM     19  H   UNL     1      -3.303  15.450  19.328  0.00  0.00    +0.000 HD
ATOM     20  H   UNL     1      -3.810  13.385  19.270  0.00  0.00    +0.000 HD
ATOM     21  H   UNL     1      -3.792  12.519  20.695  0.00  0.00    +0.000 HD
ATOM     22  H   UNL     1      -2.465  13.157  22.356  0.00  0.00    +0.000 HD
ENDBRANCH  14  18
ENDBRANCH  13  14
ENDBRANCH  12  13
ENDBRANCH   5  12
ENDBRANCH   1  11
BRANCH   3  23
ATOM     23  C   UNL     1       0.916   9.842  20.214  0.00  0.00    +0.000 C 
BRANCH  23  24
ATOM     24  C   UNL     1       1.523   8.861  19.196  0.00  0.00    +0.000 C 
ATOM     25  O   UNL     1       1.422   9.052  17.984  0.00  0.00    +0.000 OA
ATOM     26  N   UNL     1       2.103   7.750  19.747  0.00  0.00    +0.000 N 
ATOM     27  H   UNL     1       2.150   7.644  20.757  0.00  0.00    +0.000 HD
BRANCH  26  28
ATOM     28  C   UNL     1       2.711   6.721  18.935  0.00  0.00    +0.000 C 
BRANCH  28  29
ATOM     29  C   UNL     1       2.083   5.378  19.187  0.00  0.00    +0.000 A 
ATOM     30  C   UNL     1       1.767   4.963  20.487  0.00  0.00    +0.000 A 
ATOM     31  C   UNL     1       1.187   3.712  20.707  0.00  0.00    +0.000 A 
ATOM     32  C   UNL     1       0.924   2.864  19.633  0.00  0.00    +0.000 A 
ATOM     33  C   UNL     1       1.242   3.262  18.337  0.00  0.00    +0.000 A 
ATOM     34  C   UNL     1       1.827   4.509  18.116  0.00  0.00    +0.000 A 
ENDBRANCH  28  29
ENDBRANCH  26  28
ENDBRANCH  23  24
BRANCH  23  35
ATOM     35  C   UNL     1       0.194   9.054  21.304  0.00  0.00    +0.000 C 
BRANCH  35  36
ATOM     36  C   UNL     1       0.792   9.364  22.650  0.00  0.00    +0.000 C 
ATOM     37  O   UNL     1       0.134   9.715  23.620  0.00  0.00    +0.000 OA
BRANCH  36  38
ATOM     38  O   UNL     1       2.130   9.208  22.700  0.00  0.00    +0.000 OA
ATOM     39  H   UNL     1       2.568   9.126  21.829  0.00  0.00    +0.000 HD
ENDBRANCH  36  38
ENDBRANCH  35  36
ENDBRANCH  23  35
ENDBRANCH   3  23
TORSDOF 12
ENDMDL
MODEL 6
REMARK VINA RESULT:      -7.3      2.356      8.635
REMARK  Name = 
REMARK  12 active torsions:
REMARK  status: ('A' for Active; 'I' for Inactive)
REMARK    1  A    between atoms: N_4  and  C_5
REMARK    2  A    between atoms: C_5  and  C_6
REMARK    3  A    between atoms: C_6  and  C_7
REMARK    4  A    between atoms: C_7  and  C_8
REMARK    5  A    between atoms: C_14  and  C_15
REMARK    6  A    between atoms: N_17  and  C_18
REMARK    7  A    between atoms: C_18  and  C_19
REMARK    8  A    between atoms: C_18  and  C_23
REMARK    9  A    between atoms: C_19  and  C_20
REMARK   10  A    between atoms: C_20  and  O_22
REMARK   11  A    between atoms: N_25  and  C_26
REMARK   12  A    between atoms: C_26  and  C_27
REMARK                            x       y       z     vdW  Elec       q    Type
REMARK                         _______ _______ _______ _____ _____    ______ ____
ROOT
ATOM      1  C   UNL     1       4.755   3.201  18.940  0.00  0.00    +0.000 C 
ATOM      2  O   UNL     1       4.885   2.281  19.748  0.00  0.00    +0.000 OA
ATOM      3  N   UNL     1       5.870   3.869  18.511  0.00  0.00    +0.000 N 
ATOM      4  H   UNL     1       6.740   3.554  18.937  0.00  0.00    +0.000 HD
ENDROOT
BRANCH   1  11
ATOM      5  C   UNL     1       2.681   5.180  19.986  0.00  0.00    +0.000 C 
ATOM      6  O   UNL     1       3.708   5.842  19.822  0.00  0.00    +0.000 OA
ATOM      7  N   UNL     1       2.433   4.048  19.245  0.00  0.00    +0.000 N 
ATOM      8  C   UNL     1       1.191   3.311  19.126  0.00  0.00    +0.000 C 
ATOM      9  C   UNL     1       1.647   1.957  18.621  0.00  0.00    +0.000 C 
ATOM     10  C   UNL     1       2.790   2.307  17.670  0.00  0.00    +0.000 C 
ATOM     11  C   UNL     1       3.417   3.568  18.287  0.00  0.00    +0.000 C 
BRANCH   5  12
ATOM     12  C   UNL     1       1.664   5.519  21.060  0.00  0.00    +0.000 C 
BRANCH  12  13
ATOM     13  C   UNL     1       0.775   6.707  20.684  0.00  0.00    +0.000 C 
BRANCH  13  14
ATOM     14  C   UNL     1       1.570   8.014  20.693  0.00  0.00    +0.000 C 
BRANCH  14  18
ATOM     15  N   UNL     1       0.377  10.378  19.569  0.00  0.00    +0.000 NA
ATOM     16  C   UNL     1       1.227   9.680  18.917  0.00  0.00    +0.000 C 
ATOM     17  N   UNL     1       1.651  10.001  17.679  0.00  0.00    +0.000 N 
ATOM     18  N   UNL     1       1.779   8.528  19.356  0.00  0.00    +0.000 N 
ATOM     19  H   UNL     1       0.114  11.199  19.020  0.00  0.00    +0.000 HD
ATOM     20  H   UNL     1       1.064  10.667  17.192  0.00  0.00    +0.000 HD
ATOM     21  H   UNL     1       1.841   9.194  17.097  0.00  0.00    +0.000 HD
ATOM     22  H   UNL     1       2.655   8.256  18.935  0.00  0.00    +0.000 HD
ENDBRANCH  14  18
ENDBRANCH  13  14
ENDBRANCH  12  13
ENDBRANCH   5  12
ENDBRANCH   1  11
BRANCH   3  23
ATOM     23  C   UNL     1       5.948   4.963  17.546  0.00  0.00    +0.000 C 
BRANCH  23  24
ATOM     24  C   UNL     1       6.888   4.492  16.423  0.00  0.00    +0.000 C 
ATOM     25  O   UNL     1       8.034   4.112  16.665  0.00  0.00    +0.000 OA
ATOM     26  N   UNL     1       6.372   4.602  15.160  0.00  0.00    +0.000 N 
ATOM     27  H   UNL     1       5.420   4.930  15.023  0.00  0.00    +0.000 HD
BRANCH  26  28
ATOM     28  C   UNL     1       7.124   4.215  13.989  0.00  0.00    +0.000 C 
BRANCH  28  29
ATOM     29  C   UNL     1       6.242   3.575  12.954  0.00  0.00    +0.000 A 
ATOM     30  C   UNL     1       6.722   2.539  12.142  0.00  0.00    +0.000 A 
ATOM     31  C   UNL     1       5.893   1.954  11.181  0.00  0.00    +0.000 A 
ATOM     32  C   UNL     1       4.583   2.401  11.021  0.00  0.00    +0.000 A 
ATOM     33  C   UNL     1       4.099   3.437  11.817  0.00  0.00    +0.000 A 
ATOM     34  C   UNL     1       4.926   4.027  12.772  0.00  0.00    +0.000 A 
ENDBRANCH  28  29
ENDBRANCH  26  28
ENDBRANCH  23  24
BRANCH  23  35
ATOM     35  C   UNL     1       6.514   6.234  18.176  0.00  0.00    +0.000 C 
BRANCH  35  36
ATOM     36  C   UNL     1       6.597   7.329  17.147  0.00  0.00    +0.000 C 
ATOM     37  O   UNL     1       5.774   7.485  16.254  0.00  0.00    +0.000 OA
BRANCH  36  38
ATOM     38  O   UNL     1       7.660   8.143  17.303  0.00  0.00    +0.000 OA
ATOM     39  H   UNL     1       8.172   8.000  18.124  0.00  0.00    +0.000 HD
ENDBRANCH  36  38
ENDBRANCH  35  36
ENDBRANCH  23  35
ENDBRANCH   3  23
TORSDOF 12
ENDMDL
MODEL 7
REMARK VINA RESULT:      -7.3      5.365     11.227
REMARK  Name = 
REMARK  12 active torsions:
REMARK  status: ('A' for Active; 'I' for Inactive)
REMARK    1  A    between atoms: N_4  and  C_5
REMARK    2  A    between atoms: C_5  and  C_6
REMARK    3  A    between atoms: C_6  and  C_7
REMARK    4  A    between atoms: C_7  and  C_8
REMARK    5  A    between atoms: C_14  and  C_15
REMARK    6  A    between atoms: N_17  and  C_18
REMARK    7  A    between atoms: C_18  and  C_19
REMARK    8  A    between atoms: C_18  and  C_23
REMARK    9  A    between atoms: C_19  and  C_20
REMARK   10  A    between atoms: C_20  and  O_22
REMARK   11  A    between atoms: N_25  and  C_26
REMARK   12  A    between atoms: C_26  and  C_27
REMARK                            x       y       z     vdW  Elec       q    Type
REMARK                         _______ _______ _______ _____ _____    ______ ____
ROOT
ATOM      1  C   UNL     1      -1.077  11.132  19.447  0.00  0.00    +0.000 C 
ATOM      2  O   UNL     1      -2.009  11.273  18.654  0.00  0.00    +0.000 OA
ATOM      3  N   UNL     1      -0.614   9.871  19.708  0.00  0.00    +0.000 N 
ATOM      4  H   UNL     1      -1.120   9.129  19.228  0.00  0.00    +0.000 HD
ENDROOT
BRANCH   1  11
ATOM      5  C   UNL     1      -2.143  13.130  21.492  0.00  0.00    +0.000 C 
ATOM      6  O   UNL     1      -2.234  12.027  22.037  0.00  0.00    +0.000 OA
ATOM      7  N   UNL     1      -1.197  13.374  20.525  0.00  0.00    +0.000 N 
ATOM      8  C   UNL     1      -0.787  14.651  19.977  0.00  0.00    +0.000 C 
ATOM      9  C   UNL     1      -0.131  14.264  18.667  0.00  0.00    +0.000 C 
ATOM     10  C   UNL     1       0.582  12.957  19.008  0.00  0.00    +0.000 C 
ATOM     11  C   UNL     1      -0.317  12.307  20.073  0.00  0.00    +0.000 C 
BRANCH   5  12
ATOM     12  C   UNL     1      -3.108  14.262  21.793  0.00  0.00    +0.000 C 
BRANCH  12  13
ATOM     13  C   UNL     1      -4.471  14.076  21.123  0.00  0.00    +0.000 C 
BRANCH  13  14
ATOM     14  C   UNL     1      -5.493  13.497  22.103  0.00  0.00    +0.000 C 
BRANCH  14  18
ATOM     15  N   UNL     1      -7.853  12.695  20.666  0.00  0.00    +0.000 NA
ATOM     16  C   UNL     1      -6.966  11.847  21.027  0.00  0.00    +0.000 C 
ATOM     17  N   UNL     1      -7.045  10.532  20.747  0.00  0.00    +0.000 N 
ATOM     18  N   UNL     1      -5.868  12.143  21.756  0.00  0.00    +0.000 N 
ATOM     19  H   UNL     1      -8.580  12.222  20.127  0.00  0.00    +0.000 HD
ATOM     20  H   UNL     1      -7.967  10.214  20.474  0.00  0.00    +0.000 HD
ATOM     21  H   UNL     1      -6.661   9.942  21.475  0.00  0.00    +0.000 HD
ATOM     22  H   UNL     1      -5.094  11.498  21.692  0.00  0.00    +0.000 HD
ENDBRANCH  14  18
ENDBRANCH  13  14
ENDBRANCH  12  13
ENDBRANCH   5  12
ENDBRANCH   1  11
BRANCH   3  23
ATOM     23  C   UNL     1       0.487   9.480  20.585  0.00  0.00    +0.000 C 
BRANCH  23  24
ATOM     24  C   UNL     1       1.440   8.621  19.737  0.00  0.00    +0.000 C 
ATOM     25  O   UNL     1       1.738   8.943  18.586  0.00  0.00    +0.000 OA
ATOM     26  N   UNL     1       1.852   7.461  20.335  0.00  0.00    +0.000 N 
ATOM     27  H   UNL     1       1.566   7.246  21.287  0.00  0.00    +0.000 HD
BRANCH  26  28
ATOM     28  C   UNL     1       2.740   6.532  19.675  0.00  0.00    +0.000 C 
BRANCH  28  29
ATOM     29  C   UNL     1       2.105   5.178  19.520  0.00  0.00    +0.000 A 
ATOM     30  C   UNL     1       2.073   4.536  18.275  0.00  0.00    +0.000 A 
ATOM     31  C   UNL     1       1.478   3.279  18.144  0.00  0.00    +0.000 A 
ATOM     32  C   UNL     1       0.907   2.656  19.252  0.00  0.00    +0.000 A 
ATOM     33  C   UNL     1       0.926   3.289  20.493  0.00  0.00    +0.000 A 
ATOM     34  C   UNL     1       1.513   4.547  20.625  0.00  0.00    +0.000 A 
ENDBRANCH  28  29
ENDBRANCH  26  28
ENDBRANCH  23  24
BRANCH  23  35
ATOM     35  C   UNL     1      -0.002   8.661  21.778  0.00  0.00    +0.000 C 
BRANCH  35  36
ATOM     36  C   UNL     1       0.156   9.451  23.049  0.00  0.00    +0.000 C 
ATOM     37  O   UNL     1       1.223   9.597  23.629  0.00  0.00    +0.000 OA
BRANCH  36  38
ATOM     38  O   UNL     1      -0.992  10.003  23.492  0.00  0.00    +0.000 OA
ATOM     39  H   UNL     1      -1.317  10.759  22.963  0.00  0.00    +0.000 HD
ENDBRANCH  36  38
ENDBRANCH  35  36
ENDBRANCH  23  35
ENDBRANCH   3  23
TORSDOF 12
ENDMDL
MODEL 8
REMARK VINA RESULT:      -7.2      2.994      8.240
REMARK  Name = 
REMARK  12 active torsions:
REMARK  status: ('A' for Active; 'I' for Inactive)
REMARK    1  A    between atoms: N_4  and  C_5
REMARK    2  A    between atoms: C_5  and  C_6
REMARK    3  A    between atoms: C_6  and  C_7
REMARK    4  A    between atoms: C_7  and  C_8
REMARK    5  A    between atoms: C_14  and  C_15
REMARK    6  A    between atoms: N_17  and  C_18
REMARK    7  A    between atoms: C_18  and  C_19
REMARK    8  A    between atoms: C_18  and  C_23
REMARK    9  A    between atoms: C_19  and  C_20
REMARK   10  A    between atoms: C_20  and  O_22
REMARK   11  A    between atoms: N_25  and  C_26
REMARK   12  A    between atoms: C_26  and  C_27
REMARK                            x       y       z     vdW  Elec       q    Type
REMARK                         _______ _______ _______ _____ _____    ______ ____
ROOT
ATOM      1  C   UNL     1       5.272   4.004  18.837  0.00  0.00    +0.000 C 
ATOM      2  O   UNL     1       5.042   3.176  19.720  0.00  0.00    +0.000 OA
ATOM      3  N   UNL     1       6.404   4.768  18.922  0.00  0.00    +0.000 N 
ATOM      4  H   UNL     1       6.964   4.599  19.756  0.00  0.00    +0.000 HD
ENDROOT
BRANCH   1  11
ATOM      5  C   UNL     1       3.259   6.213  18.218  0.00  0.00    +0.000 C 
ATOM      6  O   UNL     1       4.340   6.789  18.362  0.00  0.00    +0.000 OA
ATOM      7  N   UNL     1       3.196   4.905  17.796  0.00  0.00    +0.000 N 
ATOM      8  C   UNL     1       2.036   4.169  17.336  0.00  0.00    +0.000 C 
ATOM      9  C   UNL     1       2.465   2.725  17.497  0.00  0.00    +0.000 C 
ATOM     10  C   UNL     1       3.944   2.756  17.118  0.00  0.00    +0.000 C 
ATOM     11  C   UNL     1       4.417   4.147  17.572  0.00  0.00    +0.000 C 
BRANCH   5  12
ATOM     12  C   UNL     1       1.938   6.874  18.565  0.00  0.00    +0.000 C 
BRANCH  12  13
ATOM     13  C   UNL     1       1.857   7.309  20.030  0.00  0.00    +0.000 C 
BRANCH  13  14
ATOM     14  C   UNL     1       2.020   6.114  20.969  0.00  0.00    +0.000 C 
BRANCH  14  18
ATOM     15  N   UNL     1       2.559   3.314  21.353  0.00  0.00    +0.000 NA
ATOM     16  C   UNL     1       1.450   3.723  20.865  0.00  0.00    +0.000 C 
ATOM     17  N   UNL     1       0.445   2.895  20.520  0.00  0.00    +0.000 N 
ATOM     18  N   UNL     1       1.154   5.015  20.600  0.00  0.00    +0.000 N 
ATOM     19  H   UNL     1       2.534   2.298  21.457  0.00  0.00    +0.000 HD
ATOM     20  H   UNL     1       0.715   1.925  20.416  0.00  0.00    +0.000 HD
ATOM     21  H   UNL     1      -0.078   3.212  19.713  0.00  0.00    +0.000 HD
ATOM     22  H   UNL     1       0.174   5.253  20.547  0.00  0.00    +0.000 HD
ENDBRANCH  14  18
ENDBRANCH  13  14
ENDBRANCH  12  13
ENDBRANCH   5  12
ENDBRANCH   1  11
BRANCH   3  23
ATOM     23  C   UNL     1       6.879   5.780  17.983  0.00  0.00    +0.000 C 
BRANCH  23  24
ATOM     24  C   UNL     1       7.549   5.024  16.823  0.00  0.00    +0.000 C 
ATOM     25  O   UNL     1       8.282   4.055  17.029  0.00  0.00    +0.000 OA
ATOM     26  N   UNL     1       7.323   5.558  15.583  0.00  0.00    +0.000 N 
ATOM     27  H   UNL     1       6.713   6.364  15.476  0.00  0.00    +0.000 HD
BRANCH  26  28
ATOM     28  C   UNL     1       7.886   4.979  14.386  0.00  0.00    +0.000 C 
BRANCH  28  29
ATOM     29  C   UNL     1       6.828   4.333  13.535  0.00  0.00    +0.000 A 
ATOM     30  C   UNL     1       7.128   3.855  12.253  0.00  0.00    +0.000 A 
ATOM     31  C   UNL     1       6.135   3.260  11.471  0.00  0.00    +0.000 A 
ATOM     32  C   UNL     1       4.836   3.141  11.961  0.00  0.00    +0.000 A 
ATOM     33  C   UNL     1       4.525   3.620  13.231  0.00  0.00    +0.000 A 
ATOM     34  C   UNL     1       5.512   4.221  14.011  0.00  0.00    +0.000 A 
ENDBRANCH  28  29
ENDBRANCH  26  28
ENDBRANCH  23  24
BRANCH  23  35
ATOM     35  C   UNL     1       7.899   6.718  18.627  0.00  0.00    +0.000 C 
BRANCH  35  36
ATOM     36  C   UNL     1       7.871   8.059  17.947  0.00  0.00    +0.000 C 
ATOM     37  O   UNL     1       7.200   8.303  16.953  0.00  0.00    +0.000 OA
BRANCH  36  38
ATOM     38  O   UNL     1       8.649   8.987  18.541  0.00  0.00    +0.000 OA
ATOM     39  H   UNL     1       9.273   8.636  19.208  0.00  0.00    +0.000 HD
ENDBRANCH  36  38
ENDBRANCH  35  36
ENDBRANCH  23  35
ENDBRANCH   3  23
TORSDOF 12
ENDMDL
MODEL 9
REMARK VINA RESULT:      -7.2      0.687      1.186
REMARK  Name = 
REMARK  12 active torsions:
REMARK  status: ('A' for Active; 'I' for Inactive)
REMARK    1  A    between atoms: N_4  and  C_5
REMARK    2  A    between atoms: C_5  and  C_6
REMARK    3  A    between atoms: C_6  and  C_7
REMARK    4  A    between atoms: C_7  and  C_8
REMARK    5  A    between atoms: C_14  and  C_15
REMARK    6  A    between atoms: N_17  and  C_18
REMARK    7  A    between atoms: C_18  and  C_19
REMARK    8  A    between atoms: C_18  and  C_23
REMARK    9  A    between atoms: C_19  and  C_20
REMARK   10  A    between atoms: C_20  and  O_22
REMARK   11  A    between atoms: N_25  and  C_26
REMARK   12  A    between atoms: C_26  and  C_27
REMARK                            x       y       z     vdW  Elec       q    Type
REMARK                         _______ _______ _______ _____ _____    ______ ____
ROOT
ATOM      1  C   UNL     1       4.948   4.173  18.978  0.00  0.00    +0.000 C 
ATOM      2  O   UNL     1       5.606   3.177  19.282  0.00  0.00    +0.000 OA
ATOM      3  N   UNL     1       3.587   4.137  19.116  0.00  0.00    +0.000 N 
ATOM      4  H   UNL     1       3.220   3.245  19.443  0.00  0.00    +0.000 HD
ENDROOT
BRANCH   1  11
ATOM      5  C   UNL     1       5.441   5.169  16.136  0.00  0.00    +0.000 C 
ATOM      6  O   UNL     1       4.221   5.004  16.216  0.00  0.00    +0.000 OA
ATOM      7  N   UNL     1       6.198   5.456  17.247  0.00  0.00    +0.000 N 
ATOM      8  C   UNL     1       7.569   5.923  17.299  0.00  0.00    +0.000 C 
ATOM      9  C   UNL     1       7.991   5.580  18.713  0.00  0.00    +0.000 C 
ATOM     10  C   UNL     1       6.728   5.847  19.528  0.00  0.00    +0.000 C 
ATOM     11  C   UNL     1       5.580   5.507  18.563  0.00  0.00    +0.000 C 
BRANCH   5  12
ATOM     12  C   UNL     1       6.196   4.994  14.831  0.00  0.00    +0.000 C 
BRANCH  12  13
ATOM     13  C   UNL     1       5.440   4.132  13.817  0.00  0.00    +0.000 C 
BRANCH  13  14
ATOM     14  C   UNL     1       6.393   3.544  12.776  0.00  0.00    +0.000 C 
BRANCH  14  18
ATOM     15  N   UNL     1       7.762   1.838  10.906  0.00  0.00    +0.000 NA
ATOM     16  C   UNL     1       6.647   1.498  11.433  0.00  0.00    +0.000 C 
ATOM     17  N   UNL     1       6.042   0.321  11.185  0.00  0.00    +0.000 N 
ATOM     18  N   UNL     1       5.921   2.273  12.268  0.00  0.00    +0.000 N 
ATOM     19  H   UNL     1       8.107   1.080  10.315  0.00  0.00    +0.000 HD
ATOM     20  H   UNL     1       6.378  -0.159  10.359  0.00  0.00    +0.000 HD
ATOM     21  H   UNL     1       5.031   0.381  11.180  0.00  0.00    +0.000 HD
ATOM     22  H   UNL     1       5.266   1.798  12.872  0.00  0.00    +0.000 HD
ENDBRANCH  14  18
ENDBRANCH  13  14
ENDBRANCH  12  13
ENDBRANCH   5  12
ENDBRANCH   1  11
BRANCH   3  23
ATOM     23  C   UNL     1       2.626   5.202  18.842  0.00  0.00    +0.000 C 
BRANCH  23  24
ATOM     24  C   UNL     1       2.228   5.795  20.204  0.00  0.00    +0.000 C 
ATOM     25  O   UNL     1       2.005   5.073  21.176  0.00  0.00    +0.000 OA
ATOM     26  N   UNL     1       2.075   7.156  20.214  0.00  0.00    +0.000 N 
ATOM     27  H   UNL     1       2.267   7.699  19.376  0.00  0.00    +0.000 HD
BRANCH  26  28
ATOM     28  C   UNL     1       1.693   7.875  21.407  0.00  0.00    +0.000 C 
BRANCH  28  29
ATOM     29  C   UNL     1       0.812   9.050  21.085  0.00  0.00    +0.000 A 
ATOM     30  C   UNL     1       0.630   9.472  19.761  0.00  0.00    +0.000 A 
ATOM     31  C   UNL     1      -0.188  10.567  19.476  0.00  0.00    +0.000 A 
ATOM     32  C   UNL     1      -0.826  11.252  20.508  0.00  0.00    +0.000 A 
ATOM     33  C   UNL     1      -0.645  10.847  21.828  0.00  0.00    +0.000 A 
ATOM     34  C   UNL     1       0.177   9.758  22.116  0.00  0.00    +0.000 A 
ENDBRANCH  28  29
ENDBRANCH  26  28
ENDBRANCH  23  24
BRANCH  23  35
ATOM     35  C   UNL     1       1.377   4.672  18.140  0.00  0.00    +0.000 C 
BRANCH  35  36
ATOM     36  C   UNL     1       1.300   3.176  18.280  0.00  0.00    +0.000 C 
ATOM     37  O   UNL     1       1.829   2.393  17.503  0.00  0.00    +0.000 OA
BRANCH  36  38
ATOM     38  O   UNL     1       0.601   2.766  19.357  0.00  0.00    +0.000 OA
ATOM     39  H   UNL     1       0.867   3.179  20.203  0.00  0.00    +0.000 HD
ENDBRANCH  36  38
ENDBRANCH  35  36
ENDBRANCH  23  35
ENDBRANCH   3  23
TORSDOF 12
ENDMDL
