MODEL 1
REMARK VINA RESULT:      -6.8      0.000      0.000
REMARK  Name = 
REMARK  9 active torsions:
REMARK  status: ('A' for Active; 'I' for Inactive)
REMARK    1  A    between atoms: C_1  and  O_2
REMARK    2  A    between atoms: O_2  and  C_3
REMARK    3  A    between atoms: C_6  and  O_7
REMARK    4  A    between atoms: O_7  and  C_8
REMARK    5  A    between atoms: C_8  and  C_9
REMARK    6  A    between atoms: C_9  and  C_10
REMARK    7  A    between atoms: C_10  and  C_11
REMARK    8  A    between atoms: C_12  and  C_13
REMARK    9  A    between atoms: C_16  and  C_17
REMARK                            x       y       z     vdW  Elec       q    Type
REMARK                         _______ _______ _______ _____ _____    ______ ____
ROOT
ATOM      1  C   UNL     1       3.947   2.746  17.876  0.00  0.00    +0.000 C 
ENDROOT
BRANCH   1   2
ATOM      2  O   UNL     1       4.569   3.501  16.836  0.00  0.00    +0.000 OA
BRANCH   2   6
ATOM      3  C   UNL     1       7.332   6.418  18.000  0.00  0.00    +0.000 A 
ATOM      4  C   UNL     1       6.831   5.543  18.959  0.00  0.00    +0.000 A 
ATOM      5  C   UNL     1       5.918   4.552  18.603  0.00  0.00    +0.000 A 
ATOM      6  C   UNL     1       5.475   4.433  17.282  0.00  0.00    +0.000 A 
ATOM      7  C   UNL     1       5.968   5.321  16.324  0.00  0.00    +0.000 A 
ATOM      8  C   UNL     1       6.894   6.312  16.680  0.00  0.00    +0.000 A 
BRANCH   3  10
ATOM      9  C   UNL     1       8.081   8.652  17.909  0.00  0.00    +0.000 C 
ATOM     10  O   UNL     1       8.196   7.358  18.485  0.00  0.00    +0.000 OA
ENDBRANCH   3  10
ENDBRANCH   2   6
ENDBRANCH   1   2
BRANCH   1  11
ATOM     11  C   UNL     1       2.435   2.732  17.724  0.00  0.00    +0.000 C 
BRANCH  11  12
ATOM     12  C   UNL     1       1.949   4.171  17.543  0.00  0.00    +0.000 C 
BRANCH  12  13
ATOM     13  C   UNL     1       2.047   4.969  18.790  0.00  0.00    +0.000 A 
ATOM     14  C   UNL     1       1.627   4.607  20.100  0.00  0.00    +0.000 A 
ATOM     15  C   UNL     1       0.994   3.346  20.560  0.00  0.00    +0.000 C 
ATOM     16  N   UNL     1       1.867   5.585  20.981  0.00  0.00    +0.000 NA
ATOM     17  N   UNL     1       2.431   6.558  20.252  0.00  0.00    +0.000 N 
ATOM     18  C   UNL     1       2.560   6.247  18.929  0.00  0.00    +0.000 A 
ATOM     19  C   UNL     1       3.151   7.179  17.942  0.00  0.00    +0.000 C 
ATOM     20  H   UNL     1       2.702   7.413  20.725  0.00  0.00    +0.000 HD
ENDBRANCH  12  13
ENDBRANCH  11  12
ENDBRANCH   1  11
TORSDOF 6
ENDMDL
MODEL 2
REMARK VINA RESULT:      -6.6      0.383      2.182
REMARK  Name = 
REMARK  9 active torsions:
REMARK  status: ('A' for Active; 'I' for Inactive)
REMARK    1  A    between atoms: C_1  and  O_2
REMARK    2  A    between atoms: O_2  and  C_3
REMARK    3  A    between atoms: C_6  and  O_7
REMARK    4  A    between atoms: O_7  and  C_8
REMARK    5  A    between atoms: C_8  and  C_9
REMARK    6  A    between atoms: C_9  and  C_10
REMARK    7  A    between atoms: C_10  and  C_11
REMARK    8  A    between atoms: C_12  and  C_13
REMARK    9  A    between atoms: C_16  and  C_17
REMARK                            x       y       z     vdW  Elec       q    Type
REMARK                         _______ _______ _______ _____ _____    ______ ____
ROOT
ATOM      1  C   UNL     1       3.818   2.726  17.913  0.00  0.00    +0.000 C 
ENDROOT
BRANCH   1   2
ATOM      2  O   UNL     1       4.169   3.668  16.899  0.00  0.00    +0.000 OA
BRANCH   2   6
ATOM      3  C   UNL     1       7.191   6.251  18.199  0.00  0.00    +0.000 A 
ATOM      4  C   UNL     1       6.872   6.213  16.844  0.00  0.00    +0.000 A 
ATOM      5  C   UNL     1       5.863   5.372  16.379  0.00  0.00    +0.000 A 
ATOM      6  C   UNL     1       5.168   4.540  17.261  0.00  0.00    +0.000 A 
ATOM      7  C   UNL     1       5.497   4.569  18.617  0.00  0.00    +0.000 A 
ATOM      8  C   UNL     1       6.507   5.422  19.087  0.00  0.00    +0.000 A 
BRANCH   3  10
ATOM      9  C   UNL     1       8.128   8.402  17.969  0.00  0.00    +0.000 C 
ATOM     10  O   UNL     1       8.216   7.095  18.518  0.00  0.00    +0.000 OA
ENDBRANCH   3  10
ENDBRANCH   2   6
ENDBRANCH   1   2
BRANCH   1  11
ATOM     11  C   UNL     1       2.322   2.462  17.933  0.00  0.00    +0.000 C 
BRANCH  11  12
ATOM     12  C   UNL     1       1.588   3.801  17.838  0.00  0.00    +0.000 C 
BRANCH  12  13
ATOM     13  C   UNL     1       1.808   4.659  19.028  0.00  0.00    +0.000 A 
ATOM     14  C   UNL     1       2.233   6.016  19.066  0.00  0.00    +0.000 A 
ATOM     15  C   UNL     1       2.556   6.923  17.936  0.00  0.00    +0.000 C 
ATOM     16  N   UNL     1       2.331   6.466  20.322  0.00  0.00    +0.000 NA
ATOM     17  N   UNL     1       1.977   5.417  21.078  0.00  0.00    +0.000 N 
ATOM     18  C   UNL     1       1.657   4.303  20.357  0.00  0.00    +0.000 A 
ATOM     19  C   UNL     1       1.244   3.031  20.991  0.00  0.00    +0.000 C 
ATOM     20  H   UNL     1       1.977   5.533  22.086  0.00  0.00    +0.000 HD
ENDBRANCH  12  13
ENDBRANCH  11  12
ENDBRANCH   1  11
TORSDOF 6
ENDMDL
MODEL 3
REMARK VINA RESULT:      -6.5      0.577      1.142
REMARK  Name = 
REMARK  9 active torsions:
REMARK  status: ('A' for Active; 'I' for Inactive)
REMARK    1  A    between atoms: C_1  and  O_2
REMARK    2  A    between atoms: O_2  and  C_3
REMARK    3  A    between atoms: C_6  and  O_7
REMARK    4  A    between atoms: O_7  and  C_8
REMARK    5  A    between atoms: C_8  and  C_9
REMARK    6  A    between atoms: C_9  and  C_10
REMARK    7  A    between atoms: C_10  and  C_11
REMARK    8  A    between atoms: C_12  and  C_13
REMARK    9  A    between atoms: C_16  and  C_17
REMARK                            x       y       z     vdW  Elec       q    Type
REMARK                         _______ _______ _______ _____ _____    ______ ____
ROOT
ATOM      1  C   UNL     1       4.136   3.110  17.277  0.00  0.00    +0.000 C 
ENDROOT
BRANCH   1   2
ATOM      2  O   UNL     1       4.442   4.205  16.414  0.00  0.00    +0.000 OA
BRANCH   2   6
ATOM      3  C   UNL     1       7.379   6.685  18.063  0.00  0.00    +0.000 A 
ATOM      4  C   UNL     1       6.559   7.188  17.057  0.00  0.00    +0.000 A 
ATOM      5  C   UNL     1       5.563   6.392  16.494  0.00  0.00    +0.000 A 
ATOM      6  C   UNL     1       5.384   5.071  16.916  0.00  0.00    +0.000 A 
ATOM      7  C   UNL     1       6.216   4.564  17.915  0.00  0.00    +0.000 A 
ATOM      8  C   UNL     1       7.213   5.368  18.488  0.00  0.00    +0.000 A 
BRANCH   3  10
ATOM      9  C   UNL     1       8.233   8.882  18.005  0.00  0.00    +0.000 C 
ATOM     10  O   UNL     1       8.331   7.558  18.508  0.00  0.00    +0.000 OA
ENDBRANCH   3  10
ENDBRANCH   2   6
ENDBRANCH   1   2
BRANCH   1  11
ATOM     11  C   UNL     1       2.636   2.941  17.450  0.00  0.00    +0.000 C 
BRANCH  11  12
ATOM     12  C   UNL     1       1.987   4.326  17.474  0.00  0.00    +0.000 C 
BRANCH  12  13
ATOM     13  C   UNL     1       2.024   4.951  18.819  0.00  0.00    +0.000 A 
ATOM     14  C   UNL     1       1.678   4.367  20.069  0.00  0.00    +0.000 A 
ATOM     15  C   UNL     1       1.201   2.991  20.354  0.00  0.00    +0.000 C 
ATOM     16  N   UNL     1       1.827   5.237  21.076  0.00  0.00    +0.000 NA
ATOM     17  N   UNL     1       2.261   6.358  20.484  0.00  0.00    +0.000 N 
ATOM     18  C   UNL     1       2.394   6.248  19.130  0.00  0.00    +0.000 A 
ATOM     19  C   UNL     1       2.853   7.368  18.278  0.00  0.00    +0.000 C 
ATOM     20  H   UNL     1       2.446   7.165  21.069  0.00  0.00    +0.000 HD
ENDBRANCH  12  13
ENDBRANCH  11  12
ENDBRANCH   1  11
TORSDOF 6
ENDMDL
MODEL 4
REMARK VINA RESULT:      -6.5      0.868      1.012
REMARK  Name = 
REMARK  9 active torsions:
REMARK  status: ('A' for Active; 'I' for Inactive)
REMARK    1  A    between atoms: C_1  and  O_2
REMARK    2  A    between atoms: O_2  and  C_3
REMARK    3  A    between atoms: C_6  and  O_7
REMARK    4  A    between atoms: O_7  and  C_8
REMARK    5  A    between atoms: C_8  and  C_9
REMARK    6  A    between atoms: C_9  and  C_10
REMARK    7  A    between atoms: C_10  and  C_11
REMARK    8  A    between atoms: C_12  and  C_13
REMARK    9  A    between atoms: C_16  and  C_17
REMARK                            x       y       z     vdW  Elec       q    Type
REMARK                         _______ _______ _______ _____ _____    ______ ____
ROOT
ATOM      1  C   UNL     1       4.580   3.919  16.206  0.00  0.00    +0.000 C 
ENDROOT
BRANCH   1   2
ATOM      2  O   UNL     1       5.999   3.779  16.287  0.00  0.00    +0.000 OA
BRANCH   2   6
ATOM      3  C   UNL     1       7.875   7.048  18.098  0.00  0.00    +0.000 A 
ATOM      4  C   UNL     1       7.812   5.840  18.786  0.00  0.00    +0.000 A 
ATOM      5  C   UNL     1       7.205   4.729  18.207  0.00  0.00    +0.000 A 
ATOM      6  C   UNL     1       6.631   4.812  16.935  0.00  0.00    +0.000 A 
ATOM      7  C   UNL     1       6.683   6.028  16.251  0.00  0.00    +0.000 A 
ATOM      8  C   UNL     1       7.303   7.145  16.830  0.00  0.00    +0.000 A 
BRANCH   3  10
ATOM      9  C   UNL     1       8.363   9.353  18.199  0.00  0.00    +0.000 C 
ATOM     10  O   UNL     1       8.472   8.065  18.788  0.00  0.00    +0.000 OA
ENDBRANCH   3  10
ENDBRANCH   2   6
ENDBRANCH   1   2
BRANCH   1  11
ATOM     11  C   UNL     1       3.908   3.536  17.514  0.00  0.00    +0.000 C 
BRANCH  11  12
ATOM     12  C   UNL     1       2.515   4.166  17.551  0.00  0.00    +0.000 C 
BRANCH  12  13
ATOM     13  C   UNL     1       2.337   5.096  18.693  0.00  0.00    +0.000 A 
ATOM     14  C   UNL     1       1.712   4.841  19.945  0.00  0.00    +0.000 A 
ATOM     15  C   UNL     1       1.085   3.588  20.435  0.00  0.00    +0.000 C 
ATOM     16  N   UNL     1       1.728   5.923  20.732  0.00  0.00    +0.000 NA
ATOM     17  N   UNL     1       2.352   6.856  20.000  0.00  0.00    +0.000 N 
ATOM     18  C   UNL     1       2.736   6.419  18.765  0.00  0.00    +0.000 A 
ATOM     19  C   UNL     1       3.436   7.288  17.792  0.00  0.00    +0.000 C 
ATOM     20  H   UNL     1       2.481   7.776  20.408  0.00  0.00    +0.000 HD
ENDBRANCH  12  13
ENDBRANCH  11  12
ENDBRANCH   1  11
TORSDOF 6
ENDMDL
MODEL 5
REMARK VINA RESULT:      -6.3      1.020      1.349
REMARK  Name = 
REMARK  9 active torsions:
REMARK  status: ('A' for Active; 'I' for Inactive)
REMARK    1  A    between atoms: C_1  and  O_2
REMARK    2  A    between atoms: O_2  and  C_3
REMARK    3  A    between atoms: C_6  and  O_7
REMARK    4  A    between atoms: O_7  and  C_8
REMARK    5  A    between atoms: C_8  and  C_9
REMARK    6  A    between atoms: C_9  and  C_10
REMARK    7  A    between atoms: C_10  and  C_11
REMARK    8  A    between atoms: C_12  and  C_13
REMARK    9  A    between atoms: C_16  and  C_17
REMARK                            x       y       z     vdW  Elec       q    Type
REMARK                         _______ _______ _______ _____ _____    ______ ____
ROOT
ATOM      1  C   UNL     1       4.964   3.844  17.570  0.00  0.00    +0.000 C 
ENDROOT
BRANCH   1   2
ATOM      2  O   UNL     1       5.863   4.203  18.620  0.00  0.00    +0.000 OA
BRANCH   2   6
ATOM      3  C   UNL     1       7.779   7.832  17.817  0.00  0.00    +0.000 A 
ATOM      4  C   UNL     1       8.253   7.034  18.854  0.00  0.00    +0.000 A 
ATOM      5  C   UNL     1       7.645   5.814  19.141  0.00  0.00    +0.000 A 
ATOM      6  C   UNL     1       6.538   5.380  18.405  0.00  0.00    +0.000 A 
ATOM      7  C   UNL     1       6.056   6.187  17.374  0.00  0.00    +0.000 A 
ATOM      8  C   UNL     1       6.673   7.411  17.079  0.00  0.00    +0.000 A 
BRANCH   3  10
ATOM      9  C   UNL     1       8.857   9.652  18.860  0.00  0.00    +0.000 C 
ATOM     10  O   UNL     1       8.446   9.014  17.659  0.00  0.00    +0.000 OA
ENDBRANCH   3  10
ENDBRANCH   2   6
ENDBRANCH   1   2
BRANCH   1  11
ATOM     11  C   UNL     1       3.739   3.123  18.108  0.00  0.00    +0.000 C 
BRANCH  11  12
ATOM     12  C   UNL     1       2.512   4.004  17.873  0.00  0.00    +0.000 C 
BRANCH  12  13
ATOM     13  C   UNL     1       2.243   4.925  19.005  0.00  0.00    +0.000 A 
ATOM     14  C   UNL     1       1.676   4.616  20.273  0.00  0.00    +0.000 A 
ATOM     15  C   UNL     1       1.216   3.305  20.793  0.00  0.00    +0.000 C 
ATOM     16  N   UNL     1       1.576   5.705  21.045  0.00  0.00    +0.000 NA
ATOM     17  N   UNL     1       2.069   6.695  20.288  0.00  0.00    +0.000 N 
ATOM     18  C   UNL     1       2.480   6.288  19.052  0.00  0.00    +0.000 A 
ATOM     19  C   UNL     1       3.051   7.218  18.052  0.00  0.00    +0.000 C 
ATOM     20  H   UNL     1       2.092   7.630  20.680  0.00  0.00    +0.000 HD
ENDBRANCH  12  13
ENDBRANCH  11  12
ENDBRANCH   1  11
TORSDOF 6
ENDMDL
MODEL 6
REMARK VINA RESULT:      -6.2      1.032      2.148
REMARK  Name = 
REMARK  9 active torsions:
REMARK  status: ('A' for Active; 'I' for Inactive)
REMARK    1  A    between atoms: C_1  and  O_2
REMARK    2  A    between atoms: O_2  and  C_3
REMARK    3  A    between atoms: C_6  and  O_7
REMARK    4  A    between atoms: O_7  and  C_8
REMARK    5  A    between atoms: C_8  and  C_9
REMARK    6  A    between atoms: C_9  and  C_10
REMARK    7  A    between atoms: C_10  and  C_11
REMARK    8  A    between atoms: C_12  and  C_13
REMARK    9  A    between atoms: C_16  and  C_17
REMARK                            x       y       z     vdW  Elec       q    Type
REMARK                         _______ _______ _______ _____ _____    ______ ____
ROOT
ATOM      1  C   UNL     1       3.503   2.573  18.373  0.00  0.00    +0.000 C 
ENDROOT
BRANCH   1   2
ATOM      2  O   UNL     1       4.540   2.654  17.395  0.00  0.00    +0.000 OA
BRANCH   2   6
ATOM      3  C   UNL     1       6.253   6.438  16.900  0.00  0.00    +0.000 A 
ATOM      4  C   UNL     1       6.347   5.811  18.139  0.00  0.00    +0.000 A 
ATOM      5  C   UNL     1       5.798   4.546  18.335  0.00  0.00    +0.000 A 
ATOM      6  C   UNL     1       5.126   3.893  17.297  0.00  0.00    +0.000 A 
ATOM      7  C   UNL     1       5.020   4.528  16.059  0.00  0.00    +0.000 A 
ATOM      8  C   UNL     1       5.581   5.798  15.858  0.00  0.00    +0.000 A 
BRANCH   3  10
ATOM      9  C   UNL     1       7.848   7.931  17.785  0.00  0.00    +0.000 C 
ATOM     10  O   UNL     1       6.808   7.685  16.850  0.00  0.00    +0.000 OA
ENDBRANCH   3  10
ENDBRANCH   2   6
ENDBRANCH   1   2
BRANCH   1  11
ATOM     11  C   UNL     1       2.147   2.340  17.728  0.00  0.00    +0.000 C 
BRANCH  11  12
ATOM     12  C   UNL     1       1.089   3.107  18.524  0.00  0.00    +0.000 C 
BRANCH  12  13
ATOM     13  C   UNL     1       1.682   4.078  19.475  0.00  0.00    +0.000 A 
ATOM     14  C   UNL     1       2.184   5.381  19.202  0.00  0.00    +0.000 A 
ATOM     15  C   UNL     1       2.239   6.106  17.908  0.00  0.00    +0.000 C 
ATOM     16  N   UNL     1       2.653   5.970  20.309  0.00  0.00    +0.000 NA
ATOM     17  N   UNL     1       2.456   5.062  21.275  0.00  0.00    +0.000 N 
ATOM     18  C   UNL     1       1.882   3.906  20.834  0.00  0.00    +0.000 A 
ATOM     19  C   UNL     1       1.581   2.768  21.732  0.00  0.00    +0.000 C 
ATOM     20  H   UNL     1       2.742   5.300  22.219  0.00  0.00    +0.000 HD
ENDBRANCH  12  13
ENDBRANCH  11  12
ENDBRANCH   1  11
TORSDOF 6
ENDMDL
MODEL 7
REMARK VINA RESULT:      -6.2      2.221      4.112
REMARK  Name = 
REMARK  9 active torsions:
REMARK  status: ('A' for Active; 'I' for Inactive)
REMARK    1  A    between atoms: C_1  and  O_2
REMARK    2  A    between atoms: O_2  and  C_3
REMARK    3  A    between atoms: C_6  and  O_7
REMARK    4  A    between atoms: O_7  and  C_8
REMARK    5  A    between atoms: C_8  and  C_9
REMARK    6  A    between atoms: C_9  and  C_10
REMARK    7  A    between atoms: C_10  and  C_11
REMARK    8  A    between atoms: C_12  and  C_13
REMARK    9  A    between atoms: C_16  and  C_17
REMARK                            x       y       z     vdW  Elec       q    Type
REMARK                         _______ _______ _______ _____ _____    ______ ____
ROOT
ATOM      1  C   UNL     1       6.301   5.275  19.389  0.00  0.00    +0.000 C 
ENDROOT
BRANCH   1   2
ATOM      2  O   UNL     1       6.713   6.119  18.314  0.00  0.00    +0.000 OA
BRANCH   2   6
ATOM      3  C   UNL     1       5.778   4.536  14.557  0.00  0.00    +0.000 A 
ATOM      4  C   UNL     1       5.175   5.725  14.957  0.00  0.00    +0.000 A 
ATOM      5  C   UNL     1       5.473   6.286  16.197  0.00  0.00    +0.000 A 
ATOM      6  C   UNL     1       6.366   5.655  17.068  0.00  0.00    +0.000 A 
ATOM      7  C   UNL     1       6.959   4.455  16.671  0.00  0.00    +0.000 A 
ATOM      8  C   UNL     1       6.667   3.895  15.419  0.00  0.00    +0.000 A 
BRANCH   3  10
ATOM      9  C   UNL     1       6.398   3.503  12.531  0.00  0.00    +0.000 C 
ATOM     10  O   UNL     1       5.378   4.081  13.333  0.00  0.00    +0.000 OA
ENDBRANCH   3  10
ENDBRANCH   2   6
ENDBRANCH   1   2
BRANCH   1  11
ATOM     11  C   UNL     1       4.792   5.096  19.409  0.00  0.00    +0.000 C 
BRANCH  11  12
ATOM     12  C   UNL     1       4.478   3.611  19.593  0.00  0.00    +0.000 C 
BRANCH  12  13
ATOM     13  C   UNL     1       3.051   3.292  19.343  0.00  0.00    +0.000 A 
ATOM     14  C   UNL     1       2.366   3.250  18.097  0.00  0.00    +0.000 A 
ATOM     15  C   UNL     1       2.894   3.504  16.734  0.00  0.00    +0.000 C 
ATOM     16  N   UNL     1       1.075   2.934  18.256  0.00  0.00    +0.000 NA
ATOM     17  N   UNL     1       0.934   2.775  19.580  0.00  0.00    +0.000 N 
ATOM     18  C   UNL     1       2.085   2.982  20.284  0.00  0.00    +0.000 A 
ATOM     19  C   UNL     1       2.153   2.865  21.758  0.00  0.00    +0.000 C 
ATOM     20  H   UNL     1       0.017   2.525  19.935  0.00  0.00    +0.000 HD
ENDBRANCH  12  13
ENDBRANCH  11  12
ENDBRANCH   1  11
TORSDOF 6
ENDMDL
MODEL 8
REMARK VINA RESULT:      -6.2      2.642      3.935
REMARK  Name = 
REMARK  9 active torsions:
REMARK  status: ('A' for Active; 'I' for Inactive)
REMARK    1  A    between atoms: C_1  and  O_2
REMARK    2  A    between atoms: O_2  and  C_3
REMARK    3  A    between atoms: C_6  and  O_7
REMARK    4  A    between atoms: O_7  and  C_8
REMARK    5  A    between atoms: C_8  and  C_9
REMARK    6  A    between atoms: C_9  and  C_10
REMARK    7  A    between atoms: C_10  and  C_11
REMARK    8  A    between atoms: C_12  and  C_13
REMARK    9  A    between atoms: C_16  and  C_17
REMARK                            x       y       z     vdW  Elec       q    Type
REMARK                         _______ _______ _______ _____ _____    ______ ____
ROOT
ATOM      1  C   UNL     1       2.434   5.060  19.982  0.00  0.00    +0.000 C 
ENDROOT
BRANCH   1   2
ATOM      2  O   UNL     1       3.670   5.759  19.832  0.00  0.00    +0.000 OA
BRANCH   2   6
ATOM      3  C   UNL     1       6.170   4.454  16.743  0.00  0.00    +0.000 A 
ATOM      4  C   UNL     1       4.803   4.561  16.505  0.00  0.00    +0.000 A 
ATOM      5  C   UNL     1       3.944   5.003  17.508  0.00  0.00    +0.000 A 
ATOM      6  C   UNL     1       4.436   5.328  18.776  0.00  0.00    +0.000 A 
ATOM      7  C   UNL     1       5.806   5.208  19.017  0.00  0.00    +0.000 A 
ATOM      8  C   UNL     1       6.673   4.772  18.004  0.00  0.00    +0.000 A 
BRANCH   3  10
ATOM      9  C   UNL     1       6.375   4.286  14.400  0.00  0.00    +0.000 C 
ATOM     10  O   UNL     1       6.896   3.982  15.686  0.00  0.00    +0.000 OA
ENDBRANCH   3  10
ENDBRANCH   2   6
ENDBRANCH   1   2
BRANCH   1  11
ATOM     11  C   UNL     1       2.277   4.502  21.386  0.00  0.00    +0.000 C 
BRANCH  11  12
ATOM     12  C   UNL     1       1.987   3.004  21.287  0.00  0.00    +0.000 C 
BRANCH  12  13
ATOM     13  C   UNL     1       2.441   2.417  20.002  0.00  0.00    +0.000 A 
ATOM     14  C   UNL     1       3.736   1.935  19.665  0.00  0.00    +0.000 A 
ATOM     15  C   UNL     1       4.959   1.887  20.504  0.00  0.00    +0.000 C 
ATOM     16  N   UNL     1       3.780   1.482  18.407  0.00  0.00    +0.000 NA
ATOM     17  N   UNL     1       2.536   1.669  17.943  0.00  0.00    +0.000 N 
ATOM     18  C   UNL     1       1.690   2.232  18.854  0.00  0.00    +0.000 A 
ATOM     19  C   UNL     1       0.272   2.531  18.551  0.00  0.00    +0.000 C 
ATOM     20  H   UNL     1       2.335   1.389  16.990  0.00  0.00    +0.000 HD
ENDBRANCH  12  13
ENDBRANCH  11  12
ENDBRANCH   1  11
TORSDOF 6
ENDMDL
MODEL 9
REMARK VINA RESULT:      -6.2      3.854      6.055
REMARK  Name = 
REMARK  9 active torsions:
REMARK  status: ('A' for Active; 'I' for Inactive)
REMARK    1  A    between atoms: C_1  and  O_2
REMARK    2  A    between atoms: O_2  and  C_3
REMARK    3  A    between atoms: C_6  and  O_7
REMARK    4  A    between atoms: O_7  and  C_8
REMARK    5  A    between atoms: C_8  and  C_9
REMARK    6  A    between atoms: C_9  and  C_10
REMARK    7  A    between atoms: C_10  and  C_11
REMARK    8  A    between atoms: C_12  and  C_13
REMARK    9  A    between atoms: C_16  and  C_17
REMARK                            x       y       z     vdW  Elec       q    Type
REMARK                         _______ _______ _______ _____ _____    ______ ____
ROOT
ATOM      1  C   UNL     1       2.454   5.240  18.590  0.00  0.00    +0.000 C 
ENDROOT
BRANCH   1   2
ATOM      2  O   UNL     1       3.104   6.365  19.182  0.00  0.00    +0.000 OA
BRANCH   2   6
ATOM      3  C   UNL     1       0.624   9.674  19.811  0.00  0.00    +0.000 A 
ATOM      4  C   UNL     1       1.246   9.522  18.575  0.00  0.00    +0.000 A 
ATOM      5  C   UNL     1       2.069   8.426  18.328  0.00  0.00    +0.000 A 
ATOM      6  C   UNL     1       2.300   7.471  19.323  0.00  0.00    +0.000 A 
ATOM      7  C   UNL     1       1.686   7.631  20.566  0.00  0.00    +0.000 A 
ATOM      8  C   UNL     1       0.850   8.729  20.812  0.00  0.00    +0.000 A 
BRANCH   3  10
ATOM      9  C   UNL     1      -0.196  11.626  18.775  0.00  0.00    +0.000 C 
ATOM     10  O   UNL     1      -0.133  10.804  19.931  0.00  0.00    +0.000 OA
ENDBRANCH   3  10
ENDBRANCH   2   6
ENDBRANCH   1   2
BRANCH   1  11
ATOM     11  C   UNL     1       3.398   4.463  17.689  0.00  0.00    +0.000 C 
BRANCH  11  12
ATOM     12  C   UNL     1       4.283   5.457  16.935  0.00  0.00    +0.000 C 
BRANCH  12  13
ATOM     13  C   UNL     1       5.698   5.020  16.860  0.00  0.00    +0.000 A 
ATOM     14  C   UNL     1       6.670   5.010  17.899  0.00  0.00    +0.000 A 
ATOM     15  C   UNL     1       6.523   5.421  19.317  0.00  0.00    +0.000 C 
ATOM     16  N   UNL     1       7.851   4.556  17.462  0.00  0.00    +0.000 NA
ATOM     17  N   UNL     1       7.643   4.280  16.167  0.00  0.00    +0.000 N 
ATOM     18  C   UNL     1       6.371   4.543  15.748  0.00  0.00    +0.000 A 
ATOM     19  C   UNL     1       5.925   4.318  14.355  0.00  0.00    +0.000 C 
ATOM     20  H   UNL     1       8.418   3.914  15.626  0.00  0.00    +0.000 HD
ENDBRANCH  12  13
ENDBRANCH  11  12
ENDBRANCH   1  11
TORSDOF 6
ENDMDL
