MODEL 1
REMARK VINA RESULT:      -6.1      0.000      0.000
REMARK  Name = 
REMARK  4 active torsions:
REMARK  status: ('A' for Active; 'I' for Inactive)
REMARK    1  A    between atoms: C_1  and  N_2
REMARK    2  A    between atoms: N_5  and  C_6
REMARK    3  A    between atoms: C_6  and  C_7
REMARK    4  A    between atoms: C_7  and  C_9
REMARK                            x       y       z     vdW  Elec       q    Type
REMARK                         _______ _______ _______ _____ _____    ______ ____
ROOT
ATOM      1  C   UNL     1       4.436   5.072  17.317  0.00  0.00    +0.000 C 
ATOM      2  O   UNL     1       4.467   4.111  16.547  0.00  0.00    +0.000 OA
ENDROOT
BRANCH   1   3
ATOM      3  C   UNL     1       5.718   5.729  17.701  0.00  0.00    +0.000 A 
ATOM      4  C   UNL     1       6.449   5.162  18.752  0.00  0.00    +0.000 A 
ATOM      5  C   UNL     1       7.624   5.766  19.199  0.00  0.00    +0.000 A 
ATOM      6  C   UNL     1       8.085   6.926  18.584  0.00  0.00    +0.000 A 
ATOM      7  C   UNL     1       7.382   7.474  17.510  0.00  0.00    +0.000 A 
ATOM      8  C   UNL     1       6.197   6.881  17.065  0.00  0.00    +0.000 A 
ENDBRANCH   1   3
BRANCH   1   9
ATOM      9  C   UNL     1       3.138   5.590  17.930  0.00  0.00    +0.000 C 
BRANCH   9  14
ATOM     10  C   UNL     1       1.647   2.694  21.655  0.00  0.00    +0.000 C 
ATOM     11  N   UNL     1       1.734   3.278  20.323  0.00  0.00    +0.000 N 
ATOM     12  C   UNL     1       0.987   2.929  19.219  0.00  0.00    +0.000 A 
ATOM     13  C   UNL     1       1.401   3.730  18.191  0.00  0.00    +0.000 A 
ATOM     14  N   UNL     1       2.389   4.560  18.700  0.00  0.00    +0.000 N 
ATOM     15  C   UNL     1       2.581   4.275  19.998  0.00  0.00    +0.000 A 
ENDBRANCH   9  14
ENDBRANCH   1   9
TORSDOF 3
ENDMDL
MODEL 2
REMARK VINA RESULT:      -6.1      2.095      2.884
REMARK  Name = 
REMARK  4 active torsions:
REMARK  status: ('A' for Active; 'I' for Inactive)
REMARK    1  A    between atoms: C_1  and  N_2
REMARK    2  A    between atoms: N_5  and  C_6
REMARK    3  A    between atoms: C_6  and  C_7
REMARK    4  A    between atoms: C_7  and  C_9
REMARK                            x       y       z     vdW  Elec       q    Type
REMARK                         _______ _______ _______ _____ _____    ______ ____
ROOT
ATOM      1  C   UNL     1       5.874   5.335  19.046  0.00  0.00    +0.000 C 
ATOM      2  O   UNL     1       6.863   5.376  19.778  0.00  0.00    +0.000 OA
ENDROOT
BRANCH   1   3
ATOM      3  C   UNL     1       6.072   5.280  17.569  0.00  0.00    +0.000 A 
ATOM      4  C   UNL     1       5.188   6.015  16.768  0.00  0.00    +0.000 A 
ATOM      5  C   UNL     1       5.283   5.954  15.378  0.00  0.00    +0.000 A 
ATOM      6  C   UNL     1       6.273   5.178  14.782  0.00  0.00    +0.000 A 
ATOM      7  C   UNL     1       7.180   4.474  15.576  0.00  0.00    +0.000 A 
ATOM      8  C   UNL     1       7.083   4.521  16.970  0.00  0.00    +0.000 A 
ENDBRANCH   1   3
BRANCH   1   9
ATOM      9  C   UNL     1       4.448   5.384  19.590  0.00  0.00    +0.000 C 
BRANCH   9  14
ATOM     10  C   UNL     1       0.699   2.265  18.752  0.00  0.00    +0.000 C 
ATOM     11  N   UNL     1       2.048   2.746  19.022  0.00  0.00    +0.000 N 
ATOM     12  C   UNL     1       3.179   1.978  19.195  0.00  0.00    +0.000 A 
ATOM     13  C   UNL     1       4.213   2.842  19.426  0.00  0.00    +0.000 A 
ATOM     14  N   UNL     1       3.685   4.124  19.379  0.00  0.00    +0.000 N 
ATOM     15  C   UNL     1       2.367   4.051  19.131  0.00  0.00    +0.000 A 
ENDBRANCH   9  14
ENDBRANCH   1   9
TORSDOF 3
ENDMDL
MODEL 3
REMARK VINA RESULT:      -6.1      2.555      5.952
REMARK  Name = 
REMARK  4 active torsions:
REMARK  status: ('A' for Active; 'I' for Inactive)
REMARK    1  A    between atoms: C_1  and  N_2
REMARK    2  A    between atoms: N_5  and  C_6
REMARK    3  A    between atoms: C_6  and  C_7
REMARK    4  A    between atoms: C_7  and  C_9
REMARK                            x       y       z     vdW  Elec       q    Type
REMARK                         _______ _______ _______ _____ _____    ______ ____
ROOT
ATOM      1  C   UNL     1       4.629   4.439  18.871  0.00  0.00    +0.000 C 
ATOM      2  O   UNL     1       5.621   3.893  19.356  0.00  0.00    +0.000 OA
ENDROOT
BRANCH   1   3
ATOM      3  C   UNL     1       3.275   3.962  19.274  0.00  0.00    +0.000 A 
ATOM      4  C   UNL     1       2.650   3.014  18.454  0.00  0.00    +0.000 A 
ATOM      5  C   UNL     1       1.359   2.575  18.743  0.00  0.00    +0.000 A 
ATOM      6  C   UNL     1       0.694   3.064  19.864  0.00  0.00    +0.000 A 
ATOM      7  C   UNL     1       1.326   3.979  20.707  0.00  0.00    +0.000 A 
ATOM      8  C   UNL     1       2.616   4.433  20.416  0.00  0.00    +0.000 A 
ENDBRANCH   1   3
BRANCH   1   9
ATOM      9  C   UNL     1       4.731   5.559  17.838  0.00  0.00    +0.000 C 
BRANCH   9  14
ATOM     10  C   UNL     1       6.068   3.696  13.453  0.00  0.00    +0.000 C 
ATOM     11  N   UNL     1       6.157   4.382  14.736  0.00  0.00    +0.000 N 
ATOM     12  C   UNL     1       7.274   4.984  15.274  0.00  0.00    +0.000 A 
ATOM     13  C   UNL     1       6.901   5.497  16.486  0.00  0.00    +0.000 A 
ATOM     14  N   UNL     1       5.556   5.203  16.652  0.00  0.00    +0.000 N 
ATOM     15  C   UNL     1       5.116   4.525  15.580  0.00  0.00    +0.000 A 
ENDBRANCH   9  14
ENDBRANCH   1   9
TORSDOF 3
ENDMDL
MODEL 4
REMARK VINA RESULT:      -6.1      2.508      5.950
REMARK  Name = 
REMARK  4 active torsions:
REMARK  status: ('A' for Active; 'I' for Inactive)
REMARK    1  A    between atoms: C_1  and  N_2
REMARK    2  A    between atoms: N_5  and  C_6
REMARK    3  A    between atoms: C_6  and  C_7
REMARK    4  A    between atoms: C_7  and  C_9
REMARK                            x       y       z     vdW  Elec       q    Type
REMARK                         _______ _______ _______ _____ _____    ______ ____
ROOT
ATOM      1  C   UNL     1       4.553   4.290  18.948  0.00  0.00    +0.000 C 
ATOM      2  O   UNL     1       5.481   3.670  19.469  0.00  0.00    +0.000 OA
ENDROOT
BRANCH   1   3
ATOM      3  C   UNL     1       3.157   3.817  19.170  0.00  0.00    +0.000 A 
ATOM      4  C   UNL     1       2.435   4.396  20.222  0.00  0.00    +0.000 A 
ATOM      5  C   UNL     1       1.146   3.953  20.519  0.00  0.00    +0.000 A 
ATOM      6  C   UNL     1       0.565   2.945  19.755  0.00  0.00    +0.000 A 
ATOM      7  C   UNL     1       1.264   2.392  18.681  0.00  0.00    +0.000 A 
ATOM      8  C   UNL     1       2.561   2.823  18.385  0.00  0.00    +0.000 A 
ENDBRANCH   1   3
BRANCH   1   9
ATOM      9  C   UNL     1       4.779   5.500  18.045  0.00  0.00    +0.000 C 
BRANCH   9  14
ATOM     10  C   UNL     1       5.971   3.707  13.590  0.00  0.00    +0.000 C 
ATOM     11  N   UNL     1       6.093   4.400  14.866  0.00  0.00    +0.000 N 
ATOM     12  C   UNL     1       7.202   5.066  15.342  0.00  0.00    +0.000 A 
ATOM     13  C   UNL     1       6.869   5.560  16.573  0.00  0.00    +0.000 A 
ATOM     14  N   UNL     1       5.555   5.189  16.815  0.00  0.00    +0.000 N 
ATOM     15  C   UNL     1       5.094   4.485  15.768  0.00  0.00    +0.000 A 
ENDBRANCH   9  14
ENDBRANCH   1   9
TORSDOF 3
ENDMDL
MODEL 5
REMARK VINA RESULT:      -6.1      2.034      5.536
REMARK  Name = 
REMARK  4 active torsions:
REMARK  status: ('A' for Active; 'I' for Inactive)
REMARK    1  A    between atoms: C_1  and  N_2
REMARK    2  A    between atoms: N_5  and  C_6
REMARK    3  A    between atoms: C_6  and  C_7
REMARK    4  A    between atoms: C_7  and  C_9
REMARK                            x       y       z     vdW  Elec       q    Type
REMARK                         _______ _______ _______ _____ _____    ______ ____
ROOT
ATOM      1  C   UNL     1       2.892   5.140  17.939  0.00  0.00    +0.000 C 
ATOM      2  O   UNL     1       2.658   6.347  17.854  0.00  0.00    +0.000 OA
ENDROOT
BRANCH   1   3
ATOM      3  C   UNL     1       2.269   4.362  19.048  0.00  0.00    +0.000 A 
ATOM      4  C   UNL     1       2.653   4.677  20.358  0.00  0.00    +0.000 A 
ATOM      5  C   UNL     1       2.152   3.943  21.433  0.00  0.00    +0.000 A 
ATOM      6  C   UNL     1       1.250   2.907  21.208  0.00  0.00    +0.000 A 
ATOM      7  C   UNL     1       0.834   2.615  19.908  0.00  0.00    +0.000 A 
ATOM      8  C   UNL     1       1.341   3.338  18.824  0.00  0.00    +0.000 A 
ENDBRANCH   1   3
BRANCH   1   9
ATOM      9  C   UNL     1       3.833   4.417  16.979  0.00  0.00    +0.000 C 
BRANCH   9  14
ATOM     10  C   UNL     1       7.972   5.727  19.353  0.00  0.00    +0.000 C 
ATOM     11  N   UNL     1       7.095   5.198  18.316  0.00  0.00    +0.000 N 
ATOM     12  C   UNL     1       7.479   4.652  17.110  0.00  0.00    +0.000 A 
ATOM     13  C   UNL     1       6.333   4.291  16.456  0.00  0.00    +0.000 A 
ATOM     14  N   UNL     1       5.273   4.619  17.289  0.00  0.00    +0.000 N 
ATOM     15  C   UNL     1       5.752   5.169  18.418  0.00  0.00    +0.000 A 
ENDBRANCH   9  14
ENDBRANCH   1   9
TORSDOF 3
ENDMDL
MODEL 6
REMARK VINA RESULT:      -6.0      0.244      1.265
REMARK  Name = 
REMARK  4 active torsions:
REMARK  status: ('A' for Active; 'I' for Inactive)
REMARK    1  A    between atoms: C_1  and  N_2
REMARK    2  A    between atoms: N_5  and  C_6
REMARK    3  A    between atoms: C_6  and  C_7
REMARK    4  A    between atoms: C_7  and  C_9
REMARK                            x       y       z     vdW  Elec       q    Type
REMARK                         _______ _______ _______ _____ _____    ______ ____
ROOT
ATOM      1  C   UNL     1       4.640   4.864  17.405  0.00  0.00    +0.000 C 
ATOM      2  O   UNL     1       4.803   3.801  16.803  0.00  0.00    +0.000 OA
ENDROOT
BRANCH   1   3
ATOM      3  C   UNL     1       5.838   5.646  17.823  0.00  0.00    +0.000 A 
ATOM      4  C   UNL     1       6.103   6.842  17.142  0.00  0.00    +0.000 A 
ATOM      5  C   UNL     1       7.243   7.586  17.445  0.00  0.00    +0.000 A 
ATOM      6  C   UNL     1       8.111   7.152  18.443  0.00  0.00    +0.000 A 
ATOM      7  C   UNL     1       7.832   5.983  19.151  0.00  0.00    +0.000 A 
ATOM      8  C   UNL     1       6.698   5.225  18.844  0.00  0.00    +0.000 A 
ENDBRANCH   1   3
BRANCH   1   9
ATOM      9  C   UNL     1       3.257   5.390  17.779  0.00  0.00    +0.000 C 
BRANCH   9  14
ATOM     10  C   UNL     1       1.794   2.685  21.655  0.00  0.00    +0.000 C 
ATOM     11  N   UNL     1       1.825   3.254  20.314  0.00  0.00    +0.000 N 
ATOM     12  C   UNL     1       0.946   2.991  19.286  0.00  0.00    +0.000 A 
ATOM     13  C   UNL     1       1.353   3.740  18.216  0.00  0.00    +0.000 A 
ATOM     14  N   UNL     1       2.470   4.453  18.625  0.00  0.00    +0.000 N 
ATOM     15  C   UNL     1       2.746   4.148  19.904  0.00  0.00    +0.000 A 
ENDBRANCH   9  14
ENDBRANCH   1   9
TORSDOF 3
ENDMDL
MODEL 7
REMARK VINA RESULT:      -6.0      2.383      5.829
REMARK  Name = 
REMARK  4 active torsions:
REMARK  status: ('A' for Active; 'I' for Inactive)
REMARK    1  A    between atoms: C_1  and  N_2
REMARK    2  A    between atoms: N_5  and  C_6
REMARK    3  A    between atoms: C_6  and  C_7
REMARK    4  A    between atoms: C_7  and  C_9
REMARK                            x       y       z     vdW  Elec       q    Type
REMARK                         _______ _______ _______ _____ _____    ______ ____
ROOT
ATOM      1  C   UNL     1       3.712   5.765  18.770  0.00  0.00    +0.000 C 
ATOM      2  O   UNL     1       3.339   6.867  18.367  0.00  0.00    +0.000 OA
ENDROOT
BRANCH   1   3
ATOM      3  C   UNL     1       2.688   4.759  19.172  0.00  0.00    +0.000 A 
ATOM      4  C   UNL     1       2.170   3.926  18.171  0.00  0.00    +0.000 A 
ATOM      5  C   UNL     1       1.164   3.007  18.472  0.00  0.00    +0.000 A 
ATOM      6  C   UNL     1       0.687   2.901  19.775  0.00  0.00    +0.000 A 
ATOM      7  C   UNL     1       1.226   3.701  20.783  0.00  0.00    +0.000 A 
ATOM      8  C   UNL     1       2.226   4.633  20.487  0.00  0.00    +0.000 A 
ENDBRANCH   1   3
BRANCH   1   9
ATOM      9  C   UNL     1       5.188   5.402  18.918  0.00  0.00    +0.000 C 
BRANCH   9  14
ATOM     10  C   UNL     1       5.803   4.127  14.177  0.00  0.00    +0.000 C 
ATOM     11  N   UNL     1       6.120   4.447  15.562  0.00  0.00    +0.000 N 
ATOM     12  C   UNL     1       7.371   4.461  16.140  0.00  0.00    +0.000 A 
ATOM     13  C   UNL     1       7.198   4.814  17.451  0.00  0.00    +0.000 A 
ATOM     14  N   UNL     1       5.839   5.018  17.637  0.00  0.00    +0.000 N 
ATOM     15  C   UNL     1       5.195   4.792  16.480  0.00  0.00    +0.000 A 
ENDBRANCH   9  14
ENDBRANCH   1   9
TORSDOF 3
ENDMDL
MODEL 8
REMARK VINA RESULT:      -6.0      2.086      5.955
REMARK  Name = 
REMARK  4 active torsions:
REMARK  status: ('A' for Active; 'I' for Inactive)
REMARK    1  A    between atoms: C_1  and  N_2
REMARK    2  A    between atoms: N_5  and  C_6
REMARK    3  A    between atoms: C_6  and  C_7
REMARK    4  A    between atoms: C_7  and  C_9
REMARK                            x       y       z     vdW  Elec       q    Type
REMARK                         _______ _______ _______ _____ _____    ______ ____
ROOT
ATOM      1  C   UNL     1       3.067   5.621  17.887  0.00  0.00    +0.000 C 
ATOM      2  O   UNL     1       2.742   6.802  18.020  0.00  0.00    +0.000 OA
ENDROOT
BRANCH   1   3
ATOM      3  C   UNL     1       2.317   4.578  18.643  0.00  0.00    +0.000 A 
ATOM      4  C   UNL     1       2.047   3.369  17.987  0.00  0.00    +0.000 A 
ATOM      5  C   UNL     1       1.296   2.379  18.619  0.00  0.00    +0.000 A 
ATOM      6  C   UNL     1       0.830   2.580  19.915  0.00  0.00    +0.000 A 
ATOM      7  C   UNL     1       1.129   3.766  20.588  0.00  0.00    +0.000 A 
ATOM      8  C   UNL     1       1.871   4.769  19.956  0.00  0.00    +0.000 A 
ENDBRANCH   1   3
BRANCH   1   9
ATOM      9  C   UNL     1       4.240   5.187  17.012  0.00  0.00    +0.000 C 
BRANCH   9  14
ATOM     10  C   UNL     1       8.064   8.255  17.688  0.00  0.00    +0.000 C 
ATOM     11  N   UNL     1       7.239   7.055  17.759  0.00  0.00    +0.000 N 
ATOM     12  C   UNL     1       7.557   5.872  18.390  0.00  0.00    +0.000 A 
ATOM     13  C   UNL     1       6.499   5.026  18.201  0.00  0.00    +0.000 A 
ATOM     14  N   UNL     1       5.552   5.723  17.464  0.00  0.00    +0.000 N 
ATOM     15  C   UNL     1       6.016   6.956  17.203  0.00  0.00    +0.000 A 
ENDBRANCH   9  14
ENDBRANCH   1   9
TORSDOF 3
ENDMDL
MODEL 9
REMARK VINA RESULT:      -5.9      2.349      5.667
REMARK  Name = 
REMARK  4 active torsions:
REMARK  status: ('A' for Active; 'I' for Inactive)
REMARK    1  A    between atoms: C_1  and  N_2
REMARK    2  A    between atoms: N_5  and  C_6
REMARK    3  A    between atoms: C_6  and  C_7
REMARK    4  A    between atoms: C_7  and  C_9
REMARK                            x       y       z     vdW  Elec       q    Type
REMARK                         _______ _______ _______ _____ _____    ______ ____
ROOT
ATOM      1  C   UNL     1       3.088   6.296  18.365  0.00  0.00    +0.000 C 
ATOM      2  O   UNL     1       2.512   7.250  17.839  0.00  0.00    +0.000 OA
ENDROOT
BRANCH   1   3
ATOM      3  C   UNL     1       2.283   5.116  18.794  0.00  0.00    +0.000 A 
ATOM      4  C   UNL     1       1.925   5.032  20.146  0.00  0.00    +0.000 A 
ATOM      5  C   UNL     1       1.226   3.922  20.621  0.00  0.00    +0.000 A 
ATOM      6  C   UNL     1       0.864   2.903  19.745  0.00  0.00    +0.000 A 
ATOM      7  C   UNL     1       1.183   3.000  18.390  0.00  0.00    +0.000 A 
ATOM      8  C   UNL     1       1.894   4.104  17.909  0.00  0.00    +0.000 A 
ENDBRANCH   1   3
BRANCH   1   9
ATOM      9  C   UNL     1       4.590   6.293  18.635  0.00  0.00    +0.000 C 
BRANCH   9  14
ATOM     10  C   UNL     1       5.906   4.259  14.321  0.00  0.00    +0.000 C 
ATOM     11  N   UNL     1       5.964   4.666  15.719  0.00  0.00    +0.000 N 
ATOM     12  C   UNL     1       6.984   4.412  16.611  0.00  0.00    +0.000 A 
ATOM     13  C   UNL     1       6.617   4.975  17.802  0.00  0.00    +0.000 A 
ATOM     14  N   UNL     1       5.380   5.571  17.603  0.00  0.00    +0.000 N 
ATOM     15  C   UNL     1       4.996   5.376  16.331  0.00  0.00    +0.000 A 
ENDBRANCH   9  14
ENDBRANCH   1   9
TORSDOF 3
ENDMDL
