MODEL 1
REMARK VINA RESULT:      -7.9      0.000      0.000
REMARK  Name = 
REMARK  6 active torsions:
REMARK  status: ('A' for Active; 'I' for Inactive)
REMARK    1  A    between atoms: C_5  and  O_6
REMARK    2  A    between atoms: O_6  and  C_7
REMARK    3  A    between atoms: C_7  and  C_8
REMARK    4  A    between atoms: C_8  and  N_9
REMARK    5  A    between atoms: N_9  and  C_10
REMARK    6  A    between atoms: C_10  and  C_11
REMARK                            x       y       z     vdW  Elec       q    Type
REMARK                         _______ _______ _______ _____ _____    ______ ____
ROOT
ATOM      1  O   UNL     1       4.065   2.921  17.620  0.00  0.00    +0.000 OA
ENDROOT
BRANCH   1   6
ATOM      2  O   UNL     1       7.395   5.160  13.552  0.00  0.00    +0.000 OA
ATOM      3  C   UNL     1       6.998   5.048  14.699  0.00  0.00    +0.000 C 
ATOM      4  C   UNL     1       5.914   4.097  15.194  0.00  0.00    +0.000 C 
ATOM      5  C   UNL     1       5.829   4.396  16.668  0.00  0.00    +0.000 A 
ATOM      6  C   UNL     1       5.035   3.883  17.687  0.00  0.00    +0.000 A 
ATOM      7  C   UNL     1       5.226   4.400  18.982  0.00  0.00    +0.000 A 
ATOM      8  C   UNL     1       6.184   5.399  19.252  0.00  0.00    +0.000 A 
ATOM      9  C   UNL     1       6.972   5.903  18.226  0.00  0.00    +0.000 A 
ATOM     10 CL   UNL     1       8.148   7.115  18.541  0.00  0.00    +0.000 Cl
ATOM     11  C   UNL     1       6.777   5.392  16.955  0.00  0.00    +0.000 A 
ATOM     12  N   UNL     1       7.449   5.760  15.793  0.00  0.00    +0.000 N 
ATOM     13  H   UNL     1       8.173   6.462  15.739  0.00  0.00    +0.000 HD
ENDBRANCH   1   6
BRANCH   1  14
ATOM     14  C   UNL     1       3.917   2.063  18.748  0.00  0.00    +0.000 C 
BRANCH  14  15
ATOM     15  C   UNL     1       2.442   1.740  19.013  0.00  0.00    +0.000 C 
BRANCH  15  16
ATOM     16  N   UNL     1       2.038   2.376  20.272  0.00  0.00    +0.000 NA
ATOM     17  H   UNL     1       2.833   2.865  20.685  0.00  0.00    +0.000 HD
BRANCH  16  18
ATOM     18  C   UNL     1       0.956   3.337  20.081  0.00  0.00    +0.000 C 
BRANCH  18  19
ATOM     19  C   UNL     1       1.497   4.665  19.597  0.00  0.00    +0.000 A 
ATOM     20  C   UNL     1       1.875   5.658  20.516  0.00  0.00    +0.000 A 
ATOM     21  C   UNL     1       2.388   6.878  20.070  0.00  0.00    +0.000 A 
ATOM     22  C   UNL     1       2.523   7.109  18.706  0.00  0.00    +0.000 A 
ATOM     23  F   UNL     1       3.019   8.280  18.282  0.00  0.00    +0.000 F 
ATOM     24  C   UNL     1       2.152   6.145  17.778  0.00  0.00    +0.000 A 
ATOM     25  C   UNL     1       1.640   4.924  18.222  0.00  0.00    +0.000 A 
ENDBRANCH  18  19
ENDBRANCH  16  18
ENDBRANCH  15  16
ENDBRANCH  14  15
ENDBRANCH   1  14
TORSDOF 6
ENDMDL
MODEL 2
REMARK VINA RESULT:      -7.2      1.839      2.639
REMARK  Name = 
REMARK  6 active torsions:
REMARK  status: ('A' for Active; 'I' for Inactive)
REMARK    1  A    between atoms: C_5  and  O_6
REMARK    2  A    between atoms: O_6  and  C_7
REMARK    3  A    between atoms: C_7  and  C_8
REMARK    4  A    between atoms: C_8  and  N_9
REMARK    5  A    between atoms: N_9  and  C_10
REMARK    6  A    between atoms: C_10  and  C_11
REMARK                            x       y       z     vdW  Elec       q    Type
REMARK                         _______ _______ _______ _____ _____    ______ ____
ROOT
ATOM      1  O   UNL     1       5.047   3.467  19.728  0.00  0.00    +0.000 OA
ENDROOT
BRANCH   1   6
ATOM      2  O   UNL     1       8.462   7.847  18.384  0.00  0.00    +0.000 OA
ATOM      3  C   UNL     1       7.728   6.912  18.114  0.00  0.00    +0.000 C 
ATOM      4  C   UNL     1       7.006   6.011  19.109  0.00  0.00    +0.000 C 
ATOM      5  C   UNL     1       6.268   5.036  18.229  0.00  0.00    +0.000 A 
ATOM      6  C   UNL     1       5.436   3.958  18.512  0.00  0.00    +0.000 A 
ATOM      7  C   UNL     1       4.900   3.248  17.421  0.00  0.00    +0.000 A 
ATOM      8  C   UNL     1       5.184   3.605  16.087  0.00  0.00    +0.000 A 
ATOM      9  C   UNL     1       6.016   4.684  15.817  0.00  0.00    +0.000 A 
ATOM     10 CL   UNL     1       6.366   5.134  14.197  0.00  0.00    +0.000 Cl
ATOM     11  C   UNL     1       6.542   5.376  16.894  0.00  0.00    +0.000 A 
ATOM     12  N   UNL     1       7.396   6.473  16.848  0.00  0.00    +0.000 N 
ATOM     13  H   UNL     1       7.743   6.902  16.002  0.00  0.00    +0.000 HD
ENDBRANCH   1   6
BRANCH   1  14
ATOM     14  C   UNL     1       4.194   2.327  19.729  0.00  0.00    +0.000 C 
BRANCH  14  15
ATOM     15  C   UNL     1       3.122   2.433  20.821  0.00  0.00    +0.000 C 
BRANCH  15  16
ATOM     16  N   UNL     1       1.798   2.333  20.195  0.00  0.00    +0.000 NA
ATOM     17  H   UNL     1       1.311   1.509  20.546  0.00  0.00    +0.000 HD
BRANCH  16  18
ATOM     18  C   UNL     1       0.972   3.506  20.463  0.00  0.00    +0.000 C 
BRANCH  18  19
ATOM     19  C   UNL     1       1.549   4.733  19.788  0.00  0.00    +0.000 A 
ATOM     20  C   UNL     1       1.794   4.735  18.405  0.00  0.00    +0.000 A 
ATOM     21  C   UNL     1       2.312   5.871  17.779  0.00  0.00    +0.000 A 
ATOM     22  C   UNL     1       2.589   7.005  18.533  0.00  0.00    +0.000 A 
ATOM     23  F   UNL     1       3.082   8.094  17.929  0.00  0.00    +0.000 F 
ATOM     24  C   UNL     1       2.359   7.026  19.903  0.00  0.00    +0.000 A 
ATOM     25  C   UNL     1       1.840   5.891  20.531  0.00  0.00    +0.000 A 
ENDBRANCH  18  19
ENDBRANCH  16  18
ENDBRANCH  15  16
ENDBRANCH  14  15
ENDBRANCH   1  14
TORSDOF 6
ENDMDL
MODEL 3
REMARK VINA RESULT:      -6.9      2.022      2.769
REMARK  Name = 
REMARK  6 active torsions:
REMARK  status: ('A' for Active; 'I' for Inactive)
REMARK    1  A    between atoms: C_5  and  O_6
REMARK    2  A    between atoms: O_6  and  C_7
REMARK    3  A    between atoms: C_7  and  C_8
REMARK    4  A    between atoms: C_8  and  N_9
REMARK    5  A    between atoms: N_9  and  C_10
REMARK    6  A    between atoms: C_10  and  C_11
REMARK                            x       y       z     vdW  Elec       q    Type
REMARK                         _______ _______ _______ _____ _____    ______ ____
ROOT
ATOM      1  O   UNL     1       4.276   3.393  19.575  0.00  0.00    +0.000 OA
ENDROOT
BRANCH   1   6
ATOM      2  O   UNL     1       8.478   7.195  18.840  0.00  0.00    +0.000 OA
ATOM      3  C   UNL     1       7.653   6.390  18.445  0.00  0.00    +0.000 C 
ATOM      4  C   UNL     1       6.671   5.604  19.305  0.00  0.00    +0.000 C 
ATOM      5  C   UNL     1       5.920   4.765  18.304  0.00  0.00    +0.000 A 
ATOM      6  C   UNL     1       4.901   3.828  18.438  0.00  0.00    +0.000 A 
ATOM      7  C   UNL     1       4.417   3.221  17.263  0.00  0.00    +0.000 A 
ATOM      8  C   UNL     1       4.935   3.542  15.991  0.00  0.00    +0.000 A 
ATOM      9  C   UNL     1       5.952   4.479  15.870  0.00  0.00    +0.000 A 
ATOM     10 CL   UNL     1       6.587   4.885  14.327  0.00  0.00    +0.000 Cl
ATOM     11  C   UNL     1       6.425   5.070  17.029  0.00  0.00    +0.000 A 
ATOM     12  N   UNL     1       7.436   6.020  17.132  0.00  0.00    +0.000 N 
ATOM     13  H   UNL     1       7.959   6.398  16.354  0.00  0.00    +0.000 HD
ENDBRANCH   1   6
BRANCH   1  14
ATOM     14  C   UNL     1       3.001   2.778  19.424  0.00  0.00    +0.000 C 
BRANCH  14  15
ATOM     15  C   UNL     1       2.132   2.984  20.671  0.00  0.00    +0.000 C 
BRANCH  15  16
ATOM     16  N   UNL     1       1.403   4.250  20.536  0.00  0.00    +0.000 NA
ATOM     17  H   UNL     1       0.525   4.203  21.053  0.00  0.00    +0.000 HD
BRANCH  16  18
ATOM     18  C   UNL     1       2.172   5.385  21.035  0.00  0.00    +0.000 C 
BRANCH  18  19
ATOM     19  C   UNL     1       2.086   6.555  20.077  0.00  0.00    +0.000 A 
ATOM     20  C   UNL     1       1.555   7.785  20.500  0.00  0.00    +0.000 A 
ATOM     21  C   UNL     1       1.489   8.867  19.621  0.00  0.00    +0.000 A 
ATOM     22  C   UNL     1       1.950   8.724  18.318  0.00  0.00    +0.000 A 
ATOM     23  F   UNL     1       1.888   9.766  17.478  0.00  0.00    +0.000 F 
ATOM     24  C   UNL     1       2.476   7.517  17.875  0.00  0.00    +0.000 A 
ATOM     25  C   UNL     1       2.544   6.432  18.753  0.00  0.00    +0.000 A 
ENDBRANCH  18  19
ENDBRANCH  16  18
ENDBRANCH  15  16
ENDBRANCH  14  15
ENDBRANCH   1  14
TORSDOF 6
ENDMDL
MODEL 4
REMARK VINA RESULT:      -6.9      4.697      5.769
REMARK  Name = 
REMARK  6 active torsions:
REMARK  status: ('A' for Active; 'I' for Inactive)
REMARK    1  A    between atoms: C_5  and  O_6
REMARK    2  A    between atoms: O_6  and  C_7
REMARK    3  A    between atoms: C_7  and  C_8
REMARK    4  A    between atoms: C_8  and  N_9
REMARK    5  A    between atoms: N_9  and  C_10
REMARK    6  A    between atoms: C_10  and  C_11
REMARK                            x       y       z     vdW  Elec       q    Type
REMARK                         _______ _______ _______ _____ _____    ______ ____
ROOT
ATOM      1  O   UNL     1       3.367   7.789  17.705  0.00  0.00    +0.000 OA
ENDROOT
BRANCH   1   6
ATOM      2  O   UNL     1       7.918   4.466  16.751  0.00  0.00    +0.000 OA
ATOM      3  C   UNL     1       6.744   4.661  17.017  0.00  0.00    +0.000 C 
ATOM      4  C   UNL     1       6.050   6.014  17.117  0.00  0.00    +0.000 C 
ATOM      5  C   UNL     1       4.632   5.656  17.482  0.00  0.00    +0.000 A 
ATOM      6  C   UNL     1       3.502   6.427  17.727  0.00  0.00    +0.000 A 
ATOM      7  C   UNL     1       2.310   5.749  18.047  0.00  0.00    +0.000 A 
ATOM      8  C   UNL     1       2.249   4.342  18.116  0.00  0.00    +0.000 A 
ATOM      9  C   UNL     1       3.384   3.583  17.867  0.00  0.00    +0.000 A 
ATOM     10 CL   UNL     1       3.323   1.868  17.942  0.00  0.00    +0.000 Cl
ATOM     11  C   UNL     1       4.553   4.256  17.557  0.00  0.00    +0.000 A 
ATOM     12  N   UNL     1       5.796   3.693  17.283  0.00  0.00    +0.000 N 
ATOM     13  H   UNL     1       5.996   2.702  17.281  0.00  0.00    +0.000 HD
ENDBRANCH   1   6
BRANCH   1  14
ATOM     14  C   UNL     1       2.196   8.338  18.299  0.00  0.00    +0.000 C 
BRANCH  14  15
ATOM     15  C   UNL     1       1.985   9.796  17.873  0.00  0.00    +0.000 C 
BRANCH  15  16
ATOM     16  N   UNL     1       1.303  10.512  18.958  0.00  0.00    +0.000 NA
ATOM     17  H   UNL     1       1.049  11.450  18.648  0.00  0.00    +0.000 HD
BRANCH  16  18
ATOM     18  C   UNL     1       0.091   9.826  19.393  0.00  0.00    +0.000 C 
BRANCH  18  19
ATOM     19  C   UNL     1      -1.124  10.380  18.680  0.00  0.00    +0.000 A 
ATOM     20  C   UNL     1      -1.521   9.858  17.438  0.00  0.00    +0.000 A 
ATOM     21  C   UNL     1      -2.649  10.359  16.787  0.00  0.00    +0.000 A 
ATOM     22  C   UNL     1      -3.383  11.384  17.373  0.00  0.00    +0.000 A 
ATOM     23  F   UNL     1      -4.468  11.860  16.747  0.00  0.00    +0.000 F 
ATOM     24  C   UNL     1      -3.009  11.919  18.598  0.00  0.00    +0.000 A 
ATOM     25  C   UNL     1      -1.880  11.419  19.252  0.00  0.00    +0.000 A 
ENDBRANCH  18  19
ENDBRANCH  16  18
ENDBRANCH  15  16
ENDBRANCH  14  15
ENDBRANCH   1  14
TORSDOF 6
ENDMDL
MODEL 5
REMARK VINA RESULT:      -6.8      4.085      6.824
REMARK  Name = 
REMARK  6 active torsions:
REMARK  status: ('A' for Active; 'I' for Inactive)
REMARK    1  A    between atoms: C_5  and  O_6
REMARK    2  A    between atoms: O_6  and  C_7
REMARK    3  A    between atoms: C_7  and  C_8
REMARK    4  A    between atoms: C_8  and  N_9
REMARK    5  A    between atoms: N_9  and  C_10
REMARK    6  A    between atoms: C_10  and  C_11
REMARK                            x       y       z     vdW  Elec       q    Type
REMARK                         _______ _______ _______ _____ _____    ______ ____
ROOT
ATOM      1  O   UNL     1       2.732   6.585  19.768  0.00  0.00    +0.000 OA
ENDROOT
BRANCH   1   6
ATOM      2  O   UNL     1       0.064   9.973  23.517  0.00  0.00    +0.000 OA
ATOM      3  C   UNL     1       0.432   9.659  22.398  0.00  0.00    +0.000 C 
ATOM      4  C   UNL     1       1.231   8.417  22.022  0.00  0.00    +0.000 C 
ATOM      5  C   UNL     1       1.411   8.552  20.533  0.00  0.00    +0.000 A 
ATOM      6  C   UNL     1       2.053   7.760  19.588  0.00  0.00    +0.000 A 
ATOM      7  C   UNL     1       2.024   8.193  18.249  0.00  0.00    +0.000 A 
ATOM      8  C   UNL     1       1.369   9.380  17.864  0.00  0.00    +0.000 A 
ATOM      9  C   UNL     1       0.730  10.163  18.816  0.00  0.00    +0.000 A 
ATOM     10 CL   UNL     1      -0.077  11.609  18.362  0.00  0.00    +0.000 Cl
ATOM     11  C   UNL     1       0.766   9.733  20.131  0.00  0.00    +0.000 A 
ATOM     12  N   UNL     1       0.201  10.366  21.234  0.00  0.00    +0.000 N 
ATOM     13  H   UNL     1      -0.312  11.236  21.205  0.00  0.00    +0.000 HD
ENDBRANCH   1   6
BRANCH   1  14
ATOM     14  C   UNL     1       1.972   5.444  20.149  0.00  0.00    +0.000 C 
BRANCH  14  15
ATOM     15  C   UNL     1       2.096   4.319  19.114  0.00  0.00    +0.000 C 
BRANCH  15  16
ATOM     16  N   UNL     1       3.476   3.818  19.124  0.00  0.00    +0.000 NA
ATOM     17  H   UNL     1       3.495   2.862  19.478  0.00  0.00    +0.000 HD
BRANCH  16  18
ATOM     18  C   UNL     1       4.077   3.831  17.794  0.00  0.00    +0.000 C 
BRANCH  18  19
ATOM     19  C   UNL     1       5.155   4.889  17.703  0.00  0.00    +0.000 A 
ATOM     20  C   UNL     1       4.899   6.115  17.066  0.00  0.00    +0.000 A 
ATOM     21  C   UNL     1       5.888   7.097  16.995  0.00  0.00    +0.000 A 
ATOM     22  C   UNL     1       7.136   6.857  17.556  0.00  0.00    +0.000 A 
ATOM     23  F   UNL     1       8.083   7.803  17.489  0.00  0.00    +0.000 F 
ATOM     24  C   UNL     1       7.416   5.652  18.187  0.00  0.00    +0.000 A 
ATOM     25  C   UNL     1       6.427   4.668  18.261  0.00  0.00    +0.000 A 
ENDBRANCH  18  19
ENDBRANCH  16  18
ENDBRANCH  15  16
ENDBRANCH  14  15
ENDBRANCH   1  14
TORSDOF 6
ENDMDL
MODEL 6
REMARK VINA RESULT:      -6.8      0.889      1.420
REMARK  Name = 
REMARK  6 active torsions:
REMARK  status: ('A' for Active; 'I' for Inactive)
REMARK    1  A    between atoms: C_5  and  O_6
REMARK    2  A    between atoms: O_6  and  C_7
REMARK    3  A    between atoms: C_7  and  C_8
REMARK    4  A    between atoms: C_8  and  N_9
REMARK    5  A    between atoms: N_9  and  C_10
REMARK    6  A    between atoms: C_10  and  C_11
REMARK                            x       y       z     vdW  Elec       q    Type
REMARK                         _______ _______ _______ _____ _____    ______ ____
ROOT
ATOM      1  O   UNL     1       3.733   3.282  17.751  0.00  0.00    +0.000 OA
ENDROOT
BRANCH   1   6
ATOM      2  O   UNL     1       7.260   5.133  13.653  0.00  0.00    +0.000 OA
ATOM      3  C   UNL     1       6.872   5.052  14.806  0.00  0.00    +0.000 C 
ATOM      4  C   UNL     1       5.680   4.246  15.307  0.00  0.00    +0.000 C 
ATOM      5  C   UNL     1       5.662   4.525  16.787  0.00  0.00    +0.000 A 
ATOM      6  C   UNL     1       4.825   4.104  17.814  0.00  0.00    +0.000 A 
ATOM      7  C   UNL     1       5.107   4.566  19.113  0.00  0.00    +0.000 A 
ATOM      8  C   UNL     1       6.196   5.421  19.380  0.00  0.00    +0.000 A 
ATOM      9  C   UNL     1       7.025   5.835  18.347  0.00  0.00    +0.000 A 
ATOM     10 CL   UNL     1       8.359   6.872  18.658  0.00  0.00    +0.000 Cl
ATOM     11  C   UNL     1       6.741   5.380  17.071  0.00  0.00    +0.000 A 
ATOM     12  N   UNL     1       7.434   5.676  15.903  0.00  0.00    +0.000 N 
ATOM     13  H   UNL     1       8.246   6.276  15.845  0.00  0.00    +0.000 HD
ENDBRANCH   1   6
BRANCH   1  14
ATOM     14  C   UNL     1       3.677   2.199  18.673  0.00  0.00    +0.000 C 
BRANCH  14  15
ATOM     15  C   UNL     1       2.936   2.596  19.956  0.00  0.00    +0.000 C 
BRANCH  15  16
ATOM     16  N   UNL     1       1.920   3.601  19.622  0.00  0.00    +0.000 NA
ATOM     17  H   UNL     1       1.014   3.149  19.497  0.00  0.00    +0.000 HD
BRANCH  16  18
ATOM     18  C   UNL     1       1.789   4.618  20.660  0.00  0.00    +0.000 C 
BRANCH  18  19
ATOM     19  C   UNL     1       1.842   6.007  20.059  0.00  0.00    +0.000 A 
ATOM     20  C   UNL     1       2.268   6.194  18.734  0.00  0.00    +0.000 A 
ATOM     21  C   UNL     1       2.304   7.473  18.175  0.00  0.00    +0.000 A 
ATOM     22  C   UNL     1       1.916   8.567  18.938  0.00  0.00    +0.000 A 
ATOM     23  F   UNL     1       1.948   9.793  18.397  0.00  0.00    +0.000 F 
ATOM     24  C   UNL     1       1.495   8.409  20.252  0.00  0.00    +0.000 A 
ATOM     25  C   UNL     1       1.458   7.130  20.813  0.00  0.00    +0.000 A 
ENDBRANCH  18  19
ENDBRANCH  16  18
ENDBRANCH  15  16
ENDBRANCH  14  15
ENDBRANCH   1  14
TORSDOF 6
ENDMDL
MODEL 7
REMARK VINA RESULT:      -6.8      0.959      1.400
REMARK  Name = 
REMARK  6 active torsions:
REMARK  status: ('A' for Active; 'I' for Inactive)
REMARK    1  A    between atoms: C_5  and  O_6
REMARK    2  A    between atoms: O_6  and  C_7
REMARK    3  A    between atoms: C_7  and  C_8
REMARK    4  A    between atoms: C_8  and  N_9
REMARK    5  A    between atoms: N_9  and  C_10
REMARK    6  A    between atoms: C_10  and  C_11
REMARK                            x       y       z     vdW  Elec       q    Type
REMARK                         _______ _______ _______ _____ _____    ______ ____
ROOT
ATOM      1  O   UNL     1       4.454   3.052  18.690  0.00  0.00    +0.000 OA
ENDROOT
BRANCH   1   6
ATOM      2  O   UNL     1       6.664   4.264  13.561  0.00  0.00    +0.000 OA
ATOM      3  C   UNL     1       6.488   4.467  14.750  0.00  0.00    +0.000 C 
ATOM      4  C   UNL     1       5.664   3.610  15.703  0.00  0.00    +0.000 C 
ATOM      5  C   UNL     1       5.783   4.334  17.020  0.00  0.00    +0.000 A 
ATOM      6  C   UNL     1       5.261   4.080  18.283  0.00  0.00    +0.000 A 
ATOM      7  C   UNL     1       5.584   4.983  19.313  0.00  0.00    +0.000 A 
ATOM      8  C   UNL     1       6.407   6.106  19.089  0.00  0.00    +0.000 A 
ATOM      9  C   UNL     1       6.923   6.349  17.823  0.00  0.00    +0.000 A 
ATOM     10 CL   UNL     1       7.932   7.709  17.536  0.00  0.00    +0.000 Cl
ATOM     11  C   UNL     1       6.599   5.459  16.814  0.00  0.00    +0.000 A 
ATOM     12  N   UNL     1       7.000   5.520  15.483  0.00  0.00    +0.000 N 
ATOM     13  H   UNL     1       7.587   6.240  15.087  0.00  0.00    +0.000 HD
ENDBRANCH   1   6
BRANCH   1  14
ATOM     14  C   UNL     1       4.232   1.992  17.766  0.00  0.00    +0.000 C 
BRANCH  14  15
ATOM     15  C   UNL     1       2.741   1.837  17.443  0.00  0.00    +0.000 C 
BRANCH  15  16
ATOM     16  N   UNL     1       2.001   1.666  18.699  0.00  0.00    +0.000 NA
ATOM     17  H   UNL     1       2.622   1.827  19.492  0.00  0.00    +0.000 HD
BRANCH  16  18
ATOM     18  C   UNL     1       0.872   2.585  18.802  0.00  0.00    +0.000 C 
BRANCH  18  19
ATOM     19  C   UNL     1       1.353   3.997  19.067  0.00  0.00    +0.000 A 
ATOM     20  C   UNL     1       1.692   4.846  18.001  0.00  0.00    +0.000 A 
ATOM     21  C   UNL     1       2.121   6.152  18.244  0.00  0.00    +0.000 A 
ATOM     22  C   UNL     1       2.217   6.611  19.552  0.00  0.00    +0.000 A 
ATOM     23  F   UNL     1       2.626   7.867  19.782  0.00  0.00    +0.000 F 
ATOM     24  C   UNL     1       1.892   5.790  20.623  0.00  0.00    +0.000 A 
ATOM     25  C   UNL     1       1.460   4.483  20.382  0.00  0.00    +0.000 A 
ENDBRANCH  18  19
ENDBRANCH  16  18
ENDBRANCH  15  16
ENDBRANCH  14  15
ENDBRANCH   1  14
TORSDOF 6
ENDMDL
MODEL 8
REMARK VINA RESULT:      -6.8      4.481      7.056
REMARK  Name = 
REMARK  6 active torsions:
REMARK  status: ('A' for Active; 'I' for Inactive)
REMARK    1  A    between atoms: C_5  and  O_6
REMARK    2  A    between atoms: O_6  and  C_7
REMARK    3  A    between atoms: C_7  and  C_8
REMARK    4  A    between atoms: C_8  and  N_9
REMARK    5  A    between atoms: N_9  and  C_10
REMARK    6  A    between atoms: C_10  and  C_11
REMARK                            x       y       z     vdW  Elec       q    Type
REMARK                         _______ _______ _______ _____ _____    ______ ____
ROOT
ATOM      1  O   UNL     1       2.611   7.163  19.062  0.00  0.00    +0.000 OA
ENDROOT
BRANCH   1   6
ATOM      2  O   UNL     1       0.427   9.613  23.739  0.00  0.00    +0.000 OA
ATOM      3  C   UNL     1       0.604   9.520  22.537  0.00  0.00    +0.000 C 
ATOM      4  C   UNL     1       1.414   8.445  21.822  0.00  0.00    +0.000 C 
ATOM      5  C   UNL     1       1.304   8.830  20.369  0.00  0.00    +0.000 A 
ATOM      6  C   UNL     1       1.821   8.270  19.206  0.00  0.00    +0.000 A 
ATOM      7  C   UNL     1       1.509   8.901  17.987  0.00  0.00    +0.000 A 
ATOM      8  C   UNL     1       0.703  10.057  17.931  0.00  0.00    +0.000 A 
ATOM      9  C   UNL     1       0.192  10.607  19.099  0.00  0.00    +0.000 A 
ATOM     10 CL   UNL     1      -0.797  12.010  19.045  0.00  0.00    +0.000 Cl
ATOM     11  C   UNL     1       0.505   9.983  20.294  0.00  0.00    +0.000 A 
ATOM     12  N   UNL     1       0.106  10.370  21.570  0.00  0.00    +0.000 N 
ATOM     13  H   UNL     1      -0.470  11.174  21.779  0.00  0.00    +0.000 HD
ENDBRANCH   1   6
BRANCH   1  14
ATOM     14  C   UNL     1       3.593   7.192  18.031  0.00  0.00    +0.000 C 
BRANCH  14  15
ATOM     15  C   UNL     1       4.411   5.894  18.003  0.00  0.00    +0.000 C 
BRANCH  15  16
ATOM     16  N   UNL     1       3.695   4.902  17.193  0.00  0.00    +0.000 NA
ATOM     17  H   UNL     1       3.996   4.965  16.221  0.00  0.00    +0.000 HD
BRANCH  16  18
ATOM     18  C   UNL     1       3.926   3.539  17.661  0.00  0.00    +0.000 C 
BRANCH  18  19
ATOM     19  C   UNL     1       3.089   3.244  18.888  0.00  0.00    +0.000 A 
ATOM     20  C   UNL     1       3.701   2.847  20.089  0.00  0.00    +0.000 A 
ATOM     21  C   UNL     1       2.931   2.589  21.224  0.00  0.00    +0.000 A 
ATOM     22  C   UNL     1       1.549   2.723  21.163  0.00  0.00    +0.000 A 
ATOM     23  F   UNL     1       0.814   2.478  22.256  0.00  0.00    +0.000 F 
ATOM     24  C   UNL     1       0.921   3.109  19.986  0.00  0.00    +0.000 A 
ATOM     25  C   UNL     1       1.689   3.369  18.849  0.00  0.00    +0.000 A 
ENDBRANCH  18  19
ENDBRANCH  16  18
ENDBRANCH  15  16
ENDBRANCH  14  15
ENDBRANCH   1  14
TORSDOF 6
ENDMDL
MODEL 9
REMARK VINA RESULT:      -6.8      1.816      2.433
REMARK  Name = 
REMARK  6 active torsions:
REMARK  status: ('A' for Active; 'I' for Inactive)
REMARK    1  A    between atoms: C_5  and  O_6
REMARK    2  A    between atoms: O_6  and  C_7
REMARK    3  A    between atoms: C_7  and  C_8
REMARK    4  A    between atoms: C_8  and  N_9
REMARK    5  A    between atoms: N_9  and  C_10
REMARK    6  A    between atoms: C_10  and  C_11
REMARK                            x       y       z     vdW  Elec       q    Type
REMARK                         _______ _______ _______ _____ _____    ______ ____
ROOT
ATOM      1  O   UNL     1       4.779   3.483  19.667  0.00  0.00    +0.000 OA
ENDROOT
BRANCH   1   6
ATOM      2  O   UNL     1       8.503   7.673  18.559  0.00  0.00    +0.000 OA
ATOM      3  C   UNL     1       7.743   6.776  18.240  0.00  0.00    +0.000 C 
ATOM      4  C   UNL     1       6.907   5.919  19.183  0.00  0.00    +0.000 C 
ATOM      5  C   UNL     1       6.183   4.977  18.255  0.00  0.00    +0.000 A 
ATOM      6  C   UNL     1       5.279   3.946  18.480  0.00  0.00    +0.000 A 
ATOM      7  C   UNL     1       4.786   3.258  17.355  0.00  0.00    +0.000 A 
ATOM      8  C   UNL     1       5.182   3.592  16.044  0.00  0.00    +0.000 A 
ATOM      9  C   UNL     1       6.085   4.625  15.832  0.00  0.00    +0.000 A 
ATOM     10 CL   UNL     1       6.573   5.048  14.240  0.00  0.00    +0.000 Cl
ATOM     11  C   UNL     1       6.569   5.295  16.942  0.00  0.00    +0.000 A 
ATOM     12  N   UNL     1       7.480   6.347  16.954  0.00  0.00    +0.000 N 
ATOM     13  H   UNL     1       7.908   6.753  16.134  0.00  0.00    +0.000 HD
ENDBRANCH   1   6
BRANCH   1  14
ATOM     14  C   UNL     1       4.367   2.120  19.714  0.00  0.00    +0.000 C 
BRANCH  14  15
ATOM     15  C   UNL     1       2.846   2.003  19.873  0.00  0.00    +0.000 C 
BRANCH  15  16
ATOM     16  N   UNL     1       2.427   2.820  21.018  0.00  0.00    +0.000 NA
ATOM     17  H   UNL     1       3.189   3.434  21.304  0.00  0.00    +0.000 HD
BRANCH  16  18
ATOM     18  C   UNL     1       1.262   3.644  20.710  0.00  0.00    +0.000 C 
BRANCH  18  19
ATOM     19  C   UNL     1       1.669   4.876  19.929  0.00  0.00    +0.000 A 
ATOM     20  C   UNL     1       1.899   6.094  20.590  0.00  0.00    +0.000 A 
ATOM     21  C   UNL     1       2.289   7.226  19.873  0.00  0.00    +0.000 A 
ATOM     22  C   UNL     1       2.445   7.146  18.494  0.00  0.00    +0.000 A 
ATOM     23  F   UNL     1       2.822   8.235  17.809  0.00  0.00    +0.000 F 
ATOM     24  C   UNL     1       2.219   5.955  17.817  0.00  0.00    +0.000 A 
ATOM     25  C   UNL     1       1.831   4.820  18.533  0.00  0.00    +0.000 A 
ENDBRANCH  18  19
ENDBRANCH  16  18
ENDBRANCH  15  16
ENDBRANCH  14  15
ENDBRANCH   1  14
TORSDOF 6
ENDMDL
