MODEL 1
REMARK VINA RESULT:      -8.1      0.000      0.000
REMARK  Name = 
REMARK  7 active torsions:
REMARK  status: ('A' for Active; 'I' for Inactive)
REMARK    1  A    between atoms: C_1  and  O_2
REMARK    2  A    between atoms: O_2  and  C_3
REMARK    3  A    between atoms: C_8  and  O_9
REMARK    4  A    between atoms: O_9  and  C_10
REMARK    5  A    between atoms: N_17  and  C_18
REMARK    6  A    between atoms: C_18  and  C_19
REMARK    7  A    between atoms: C_18  and  C_20
REMARK                            x       y       z     vdW  Elec       q    Type
REMARK                         _______ _______ _______ _____ _____    ______ ____
ROOT
ATOM      1  C   UNL     1       1.809   4.013  18.337  0.00  0.00    +0.000 A 
ATOM      2  C   UNL     1       2.099   5.310  17.890  0.00  0.00    +0.000 A 
ATOM      3  C   UNL     1       2.263   6.370  18.791  0.00  0.00    +0.000 A 
ATOM      4  C   UNL     1       2.035   6.164  20.152  0.00  0.00    +0.000 A 
ATOM      5  C   UNL     1       1.661   4.887  20.587  0.00  0.00    +0.000 A 
ATOM      6  C   UNL     1       1.548   3.803  19.698  0.00  0.00    +0.000 A 
ATOM      7  N   UNL     1       2.144   7.226  21.070  0.00  0.00    +0.000 N 
ATOM      8  C   UNL     1       1.513   8.479  20.934  0.00  0.00    +0.000 A 
ATOM      9  N   UNL     1       1.082   8.983  22.108  0.00  0.00    +0.000 NA
ATOM     10  C   UNL     1       0.290  10.057  22.038  0.00  0.00    +0.000 A 
ATOM     11  N   UNL     1      -0.145  10.648  20.924  0.00  0.00    +0.000 NA
ATOM     12  C   UNL     1       0.326  10.153  19.766  0.00  0.00    +0.000 A 
ATOM     13  N   UNL     1      -0.114  10.707  18.535  0.00  0.00    +0.000 N 
ATOM     14  C   UNL     1       1.241   9.086  19.701  0.00  0.00    +0.000 A 
ATOM     15  N   UNL     1       1.762   8.733  18.443  0.00  0.00    +0.000 N 
ATOM     16  C   UNL     1       2.765   7.704  18.328  0.00  0.00    +0.000 C 
ATOM     17  H   UNL     1       2.056   6.958  22.044  0.00  0.00    +0.000 HD
ATOM     18  H   UNL     1       0.621  11.316  18.188  0.00  0.00    +0.000 HD
ATOM     19  H   UNL     1       1.000   8.686  17.766  0.00  0.00    +0.000 HD
ENDROOT
BRANCH   1  21
ATOM     20  C   UNL     1       2.896   2.081  17.504  0.00  0.00    +0.000 C 
ATOM     21  O   UNL     1       1.772   2.964  17.456  0.00  0.00    +0.000 OA
ENDBRANCH   1  21
BRANCH   6  22
ATOM     22  O   UNL     1       1.210   2.646  20.346  0.00  0.00    +0.000 OA
ATOM     23  C   UNL     1       1.445   2.535  21.740  0.00  0.00    +0.000 C 
ENDBRANCH   6  22
BRANCH  13  24
ATOM     24  C   UNL     1      -1.442  11.310  18.574  0.00  0.00    +0.000 C 
ATOM     25  C   UNL     1      -2.041  11.241  17.163  0.00  0.00    +0.000 C 
BRANCH  24  26
ATOM     26  C   UNL     1      -1.349  12.746  19.079  0.00  0.00    +0.000 A 
ATOM     27  C   UNL     1      -0.410  13.617  18.495  0.00  0.00    +0.000 A 
ATOM     28  C   UNL     1      -0.284  14.929  18.944  0.00  0.00    +0.000 A 
ATOM     29  C   UNL     1      -1.091  15.398  19.976  0.00  0.00    +0.000 A 
ATOM     30  C   UNL     1      -2.031  14.553  20.556  0.00  0.00    +0.000 A 
ATOM     31  C   UNL     1      -2.163  13.234  20.109  0.00  0.00    +0.000 A 
ENDBRANCH  24  26
ENDBRANCH  13  24
TORSDOF 4
ENDMDL
MODEL 2
REMARK VINA RESULT:      -7.5      4.337      6.450
REMARK  Name = 
REMARK  7 active torsions:
REMARK  status: ('A' for Active; 'I' for Inactive)
REMARK    1  A    between atoms: C_1  and  O_2
REMARK    2  A    between atoms: O_2  and  C_3
REMARK    3  A    between atoms: C_8  and  O_9
REMARK    4  A    between atoms: O_9  and  C_10
REMARK    5  A    between atoms: N_17  and  C_18
REMARK    6  A    between atoms: C_18  and  C_19
REMARK    7  A    between atoms: C_18  and  C_20
REMARK                            x       y       z     vdW  Elec       q    Type
REMARK                         _______ _______ _______ _____ _____    ______ ____
ROOT
ATOM      1  C   UNL     1       7.527   5.121  14.092  0.00  0.00    +0.000 A 
ATOM      2  C   UNL     1       7.343   5.616  15.392  0.00  0.00    +0.000 A 
ATOM      3  C   UNL     1       6.434   5.017  16.274  0.00  0.00    +0.000 A 
ATOM      4  C   UNL     1       5.619   3.976  15.830  0.00  0.00    +0.000 A 
ATOM      5  C   UNL     1       5.744   3.541  14.505  0.00  0.00    +0.000 A 
ATOM      6  C   UNL     1       6.692   4.097  13.627  0.00  0.00    +0.000 A 
ATOM      7  N   UNL     1       4.663   3.395  16.684  0.00  0.00    +0.000 N 
ATOM      8  C   UNL     1       3.707   4.110  17.434  0.00  0.00    +0.000 A 
ATOM      9  N   UNL     1       2.516   3.483  17.506  0.00  0.00    +0.000 NA
ATOM     10  C   UNL     1       1.502   4.191  18.012  0.00  0.00    +0.000 A 
ATOM     11  N   UNL     1       1.548   5.464  18.411  0.00  0.00    +0.000 NA
ATOM     12  C   UNL     1       2.752   6.058  18.366  0.00  0.00    +0.000 A 
ATOM     13  N   UNL     1       2.877   7.421  18.744  0.00  0.00    +0.000 N 
ATOM     14  C   UNL     1       3.921   5.398  17.944  0.00  0.00    +0.000 A 
ATOM     15  N   UNL     1       5.146   6.079  18.055  0.00  0.00    +0.000 N 
ATOM     16  C   UNL     1       6.384   5.420  17.717  0.00  0.00    +0.000 C 
ATOM     17  H   UNL     1       4.188   2.584  16.302  0.00  0.00    +0.000 HD
ATOM     18  H   UNL     1       3.270   7.449  19.680  0.00  0.00    +0.000 HD
ATOM     19  H   UNL     1       5.037   7.027  17.695  0.00  0.00    +0.000 HD
ENDROOT
BRANCH   1  21
ATOM     20  C   UNL     1       8.058   6.135  12.019  0.00  0.00    +0.000 C 
ATOM     21  O   UNL     1       8.505   5.637  13.283  0.00  0.00    +0.000 OA
ENDBRANCH   1  21
BRANCH   6  22
ATOM     22  O   UNL     1       6.663   3.493  12.399  0.00  0.00    +0.000 OA
ATOM     23  C   UNL     1       5.504   2.779  12.002  0.00  0.00    +0.000 C 
ENDBRANCH   6  22
BRANCH  13  24
ATOM     24  C   UNL     1       1.672   8.221  18.561  0.00  0.00    +0.000 C 
ATOM     25  C   UNL     1       1.983   9.334  17.551  0.00  0.00    +0.000 C 
BRANCH  24  26
ATOM     26  C   UNL     1       1.211   8.786  19.901  0.00  0.00    +0.000 A 
ATOM     27  C   UNL     1       0.524  10.014  19.926  0.00  0.00    +0.000 A 
ATOM     28  C   UNL     1       0.106  10.569  21.132  0.00  0.00    +0.000 A 
ATOM     29  C   UNL     1       0.360   9.912  22.332  0.00  0.00    +0.000 A 
ATOM     30  C   UNL     1       1.028   8.693  22.324  0.00  0.00    +0.000 A 
ATOM     31  C   UNL     1       1.450   8.129  21.114  0.00  0.00    +0.000 A 
ENDBRANCH  24  26
ENDBRANCH  13  24
TORSDOF 4
ENDMDL
MODEL 3
REMARK VINA RESULT:      -7.4      4.062      8.651
REMARK  Name = 
REMARK  7 active torsions:
REMARK  status: ('A' for Active; 'I' for Inactive)
REMARK    1  A    between atoms: C_1  and  O_2
REMARK    2  A    between atoms: O_2  and  C_3
REMARK    3  A    between atoms: C_8  and  O_9
REMARK    4  A    between atoms: O_9  and  C_10
REMARK    5  A    between atoms: N_17  and  C_18
REMARK    6  A    between atoms: C_18  and  C_19
REMARK    7  A    between atoms: C_18  and  C_20
REMARK                            x       y       z     vdW  Elec       q    Type
REMARK                         _______ _______ _______ _____ _____    ______ ____
ROOT
ATOM      1  C   UNL     1       3.075  14.730  18.570  0.00  0.00    +0.000 A 
ATOM      2  C   UNL     1       2.389  13.645  18.004  0.00  0.00    +0.000 A 
ATOM      3  C   UNL     1       1.604  12.793  18.792  0.00  0.00    +0.000 A 
ATOM      4  C   UNL     1       1.579  12.956  20.177  0.00  0.00    +0.000 A 
ATOM      5  C   UNL     1       2.335  13.987  20.748  0.00  0.00    +0.000 A 
ATOM      6  C   UNL     1       3.082  14.883  19.962  0.00  0.00    +0.000 A 
ATOM      7  N   UNL     1       0.839  12.079  20.993  0.00  0.00    +0.000 N 
ATOM      8  C   UNL     1       0.912  10.673  20.943  0.00  0.00    +0.000 A 
ATOM      9  N   UNL     1       0.818  10.096  22.158  0.00  0.00    +0.000 NA
ATOM     10  C   UNL     1       1.093   8.790  22.218  0.00  0.00    +0.000 A 
ATOM     11  N   UNL     1       1.488   8.017  21.205  0.00  0.00    +0.000 NA
ATOM     12  C   UNL     1       1.539   8.602  19.996  0.00  0.00    +0.000 A 
ATOM     13  N   UNL     1       1.981   7.856  18.872  0.00  0.00    +0.000 N 
ATOM     14  C   UNL     1       1.185   9.946  19.776  0.00  0.00    +0.000 A 
ATOM     15  N   UNL     1       1.156  10.418  18.451  0.00  0.00    +0.000 N 
ATOM     16  C   UNL     1       0.719  11.761  18.161  0.00  0.00    +0.000 C 
ATOM     17  H   UNL     1       0.804  12.336  21.974  0.00  0.00    +0.000 HD
ATOM     18  H   UNL     1       1.161   7.585  18.337  0.00  0.00    +0.000 HD
ATOM     19  H   UNL     1       2.002  10.115  17.969  0.00  0.00    +0.000 HD
ENDROOT
BRANCH   1  21
ATOM     20  C   UNL     1       2.984  16.774  17.377  0.00  0.00    +0.000 C 
ATOM     21  O   UNL     1       3.739  15.626  17.773  0.00  0.00    +0.000 OA
ENDBRANCH   1  21
BRANCH   6  22
ATOM     22  O   UNL     1       3.708  15.830  20.727  0.00  0.00    +0.000 OA
ATOM     23  C   UNL     1       2.964  16.538  21.705  0.00  0.00    +0.000 C 
ENDBRANCH   6  22
BRANCH  13  24
ATOM     24  C   UNL     1       2.897   6.764  19.183  0.00  0.00    +0.000 C 
ATOM     25  C   UNL     1       4.040   6.791  18.159  0.00  0.00    +0.000 C 
BRANCH  24  26
ATOM     26  C   UNL     1       2.150   5.434  19.162  0.00  0.00    +0.000 A 
ATOM     27  C   UNL     1       1.694   4.888  20.376  0.00  0.00    +0.000 A 
ATOM     28  C   UNL     1       1.025   3.666  20.398  0.00  0.00    +0.000 A 
ATOM     29  C   UNL     1       0.797   2.971  19.214  0.00  0.00    +0.000 A 
ATOM     30  C   UNL     1       1.233   3.502  18.006  0.00  0.00    +0.000 A 
ATOM     31  C   UNL     1       1.904   4.730  17.978  0.00  0.00    +0.000 A 
ENDBRANCH  24  26
ENDBRANCH  13  24
TORSDOF 4
ENDMDL
MODEL 4
REMARK VINA RESULT:      -7.4      4.115      8.532
REMARK  Name = 
REMARK  7 active torsions:
REMARK  status: ('A' for Active; 'I' for Inactive)
REMARK    1  A    between atoms: C_1  and  O_2
REMARK    2  A    between atoms: O_2  and  C_3
REMARK    3  A    between atoms: C_8  and  O_9
REMARK    4  A    between atoms: O_9  and  C_10
REMARK    5  A    between atoms: N_17  and  C_18
REMARK    6  A    between atoms: C_18  and  C_19
REMARK    7  A    between atoms: C_18  and  C_20
REMARK                            x       y       z     vdW  Elec       q    Type
REMARK                         _______ _______ _______ _____ _____    ______ ____
ROOT
ATOM      1  C   UNL     1       3.278  14.422  18.545  0.00  0.00    +0.000 A 
ATOM      2  C   UNL     1       2.598  13.322  18.001  0.00  0.00    +0.000 A 
ATOM      3  C   UNL     1       1.740  12.539  18.784  0.00  0.00    +0.000 A 
ATOM      4  C   UNL     1       1.633  12.785  20.153  0.00  0.00    +0.000 A 
ATOM      5  C   UNL     1       2.380  13.829  20.710  0.00  0.00    +0.000 A 
ATOM      6  C   UNL     1       3.201  14.657  19.924  0.00  0.00    +0.000 A 
ATOM      7  N   UNL     1       0.817  11.979  20.968  0.00  0.00    +0.000 N 
ATOM      8  C   UNL     1       0.852  10.570  21.006  0.00  0.00    +0.000 A 
ATOM      9  N   UNL     1       0.665  10.070  22.244  0.00  0.00    +0.000 NA
ATOM     10  C   UNL     1       0.898   8.763  22.398  0.00  0.00    +0.000 A 
ATOM     11  N   UNL     1       1.334   7.922  21.459  0.00  0.00    +0.000 NA
ATOM     12  C   UNL     1       1.478   8.431  20.224  0.00  0.00    +0.000 A 
ATOM     13  N   UNL     1       1.968   7.608  19.177  0.00  0.00    +0.000 N 
ATOM     14  C   UNL     1       1.177   9.768  19.904  0.00  0.00    +0.000 A 
ATOM     15  N   UNL     1       1.246  10.160  18.554  0.00  0.00    +0.000 N 
ATOM     16  C   UNL     1       0.867  11.494  18.159  0.00  0.00    +0.000 C 
ATOM     17  H   UNL     1       0.728  12.295  21.929  0.00  0.00    +0.000 HD
ATOM     18  H   UNL     1       1.176   7.326  18.606  0.00  0.00    +0.000 HD
ATOM     19  H   UNL     1       2.112   9.807  18.147  0.00  0.00    +0.000 HD
ENDROOT
BRANCH   1  21
ATOM     20  C   UNL     1       5.428  15.027  17.759  0.00  0.00    +0.000 C 
ATOM     21  O   UNL     1       4.017  15.251  17.742  0.00  0.00    +0.000 OA
ENDBRANCH   1  21
BRANCH   6  22
ATOM     22  O   UNL     1       3.805  15.633  20.671  0.00  0.00    +0.000 OA
ATOM     23  C   UNL     1       3.053  16.765  21.075  0.00  0.00    +0.000 C 
ENDBRANCH   6  22
BRANCH  13  24
ATOM     24  C   UNL     1       2.830   6.514  19.610  0.00  0.00    +0.000 C 
ATOM     25  C   UNL     1       4.115   6.554  18.771  0.00  0.00    +0.000 C 
BRANCH  24  26
ATOM     26  C   UNL     1       2.100   5.182  19.462  0.00  0.00    +0.000 A 
ATOM     27  C   UNL     1       1.917   4.643  18.176  0.00  0.00    +0.000 A 
ATOM     28  C   UNL     1       1.239   3.439  18.000  0.00  0.00    +0.000 A 
ATOM     29  C   UNL     1       0.736   2.752  19.101  0.00  0.00    +0.000 A 
ATOM     30  C   UNL     1       0.919   3.266  20.379  0.00  0.00    +0.000 A 
ATOM     31  C   UNL     1       1.600   4.475  20.561  0.00  0.00    +0.000 A 
ENDBRANCH  24  26
ENDBRANCH  13  24
TORSDOF 4
ENDMDL
MODEL 5
REMARK VINA RESULT:      -7.3      3.951      8.655
REMARK  Name = 
REMARK  7 active torsions:
REMARK  status: ('A' for Active; 'I' for Inactive)
REMARK    1  A    between atoms: C_1  and  O_2
REMARK    2  A    between atoms: O_2  and  C_3
REMARK    3  A    between atoms: C_8  and  O_9
REMARK    4  A    between atoms: O_9  and  C_10
REMARK    5  A    between atoms: N_17  and  C_18
REMARK    6  A    between atoms: C_18  and  C_19
REMARK    7  A    between atoms: C_18  and  C_20
REMARK                            x       y       z     vdW  Elec       q    Type
REMARK                         _______ _______ _______ _____ _____    ______ ____
ROOT
ATOM      1  C   UNL     1       1.629  15.190  18.900  0.00  0.00    +0.000 A 
ATOM      2  C   UNL     1       1.026  14.041  18.369  0.00  0.00    +0.000 A 
ATOM      3  C   UNL     1       0.498  13.047  19.203  0.00  0.00    +0.000 A 
ATOM      4  C   UNL     1       0.661  13.142  20.585  0.00  0.00    +0.000 A 
ATOM      5  C   UNL     1       1.341  14.248  21.108  0.00  0.00    +0.000 A 
ATOM      6  C   UNL     1       1.826  15.279  20.284  0.00  0.00    +0.000 A 
ATOM      7  N   UNL     1       0.185  12.129  21.438  0.00  0.00    +0.000 N 
ATOM      8  C   UNL     1       0.447  10.752  21.285  0.00  0.00    +0.000 A 
ATOM      9  N   UNL     1       0.622  10.114  22.460  0.00  0.00    +0.000 NA
ATOM     10  C   UNL     1       1.085   8.863  22.393  0.00  0.00    +0.000 A 
ATOM     11  N   UNL     1       1.427   8.204  21.285  0.00  0.00    +0.000 NA
ATOM     12  C   UNL     1       1.210   8.844  20.122  0.00  0.00    +0.000 A 
ATOM     13  N   UNL     1       1.578   8.223  18.900  0.00  0.00    +0.000 N 
ATOM     14  C   UNL     1       0.640  10.128  20.045  0.00  0.00    +0.000 A 
ATOM     15  N   UNL     1       0.344  10.649  18.773  0.00  0.00    +0.000 N 
ATOM     16  C   UNL     1      -0.318  11.923  18.638  0.00  0.00    +0.000 C 
ATOM     17  H   UNL     1       0.264  12.334  22.429  0.00  0.00    +0.000 HD
ATOM     18  H   UNL     1       0.732   7.857  18.471  0.00  0.00    +0.000 HD
ATOM     19  H   UNL     1       1.142  10.497  18.155  0.00  0.00    +0.000 HD
ENDROOT
BRANCH   1  21
ATOM     20  C   UNL     1       3.386  16.140  17.629  0.00  0.00    +0.000 C 
ATOM     21  O   UNL     1       2.031  16.210  18.077  0.00  0.00    +0.000 OA
ENDBRANCH   1  21
BRANCH   6  22
ATOM     22  O   UNL     1       2.420  16.275  21.012  0.00  0.00    +0.000 OA
ATOM     23  C   UNL     1       1.638  17.368  21.465  0.00  0.00    +0.000 C 
ENDBRANCH   6  22
BRANCH  13  24
ATOM     24  C   UNL     1       2.675   7.267  19.003  0.00  0.00    +0.000 C 
ATOM     25  C   UNL     1       3.582   7.446  17.778  0.00  0.00    +0.000 C 
BRANCH  24  26
ATOM     26  C   UNL     1       2.125   5.848  19.097  0.00  0.00    +0.000 A 
ATOM     27  C   UNL     1       1.970   5.095  17.919  0.00  0.00    +0.000 A 
ATOM     28  C   UNL     1       1.454   3.802  17.965  0.00  0.00    +0.000 A 
ATOM     29  C   UNL     1       1.087   3.237  19.183  0.00  0.00    +0.000 A 
ATOM     30  C   UNL     1       1.245   3.964  20.357  0.00  0.00    +0.000 A 
ATOM     31  C   UNL     1       1.764   5.263  20.317  0.00  0.00    +0.000 A 
ENDBRANCH  24  26
ENDBRANCH  13  24
TORSDOF 4
ENDMDL
MODEL 6
REMARK VINA RESULT:      -7.1      3.915      8.779
REMARK  Name = 
REMARK  7 active torsions:
REMARK  status: ('A' for Active; 'I' for Inactive)
REMARK    1  A    between atoms: C_1  and  O_2
REMARK    2  A    between atoms: O_2  and  C_3
REMARK    3  A    between atoms: C_8  and  O_9
REMARK    4  A    between atoms: O_9  and  C_10
REMARK    5  A    between atoms: N_17  and  C_18
REMARK    6  A    between atoms: C_18  and  C_19
REMARK    7  A    between atoms: C_18  and  C_20
REMARK                            x       y       z     vdW  Elec       q    Type
REMARK                         _______ _______ _______ _____ _____    ______ ____
ROOT
ATOM      1  C   UNL     1       0.254  15.343  19.044  0.00  0.00    +0.000 A 
ATOM      2  C   UNL     1      -0.256  14.105  18.626  0.00  0.00    +0.000 A 
ATOM      3  C   UNL     1      -0.525  13.084  19.546  0.00  0.00    +0.000 A 
ATOM      4  C   UNL     1      -0.188  13.252  20.889  0.00  0.00    +0.000 A 
ATOM      5  C   UNL     1       0.401  14.457  21.289  0.00  0.00    +0.000 A 
ATOM      6  C   UNL     1       0.624  15.511  20.385  0.00  0.00    +0.000 A 
ATOM      7  N   UNL     1      -0.402  12.219  21.821  0.00  0.00    +0.000 N 
ATOM      8  C   UNL     1       0.021  10.884  21.659  0.00  0.00    +0.000 A 
ATOM      9  N   UNL     1       0.439  10.320  22.811  0.00  0.00    +0.000 NA
ATOM     10  C   UNL     1       1.053   9.138  22.704  0.00  0.00    +0.000 A 
ATOM     11  N   UNL     1       1.326   8.488  21.571  0.00  0.00    +0.000 NA
ATOM     12  C   UNL     1       0.868   9.048  20.439  0.00  0.00    +0.000 A 
ATOM     13  N   UNL     1       1.144   8.435  19.189  0.00  0.00    +0.000 N 
ATOM     14  C   UNL     1       0.124  10.243  20.418  0.00  0.00    +0.000 A 
ATOM     15  N   UNL     1      -0.412  10.671  19.189  0.00  0.00    +0.000 N 
ATOM     16  C   UNL     1      -1.251  11.842  19.124  0.00  0.00    +0.000 C 
ATOM     17  H   UNL     1      -0.216  12.471  22.786  0.00  0.00    +0.000 HD
ATOM     18  H   UNL     1       0.305   7.945  18.891  0.00  0.00    +0.000 HD
ATOM     19  H   UNL     1       0.307  10.602  18.469  0.00  0.00    +0.000 HD
ENDROOT
BRANCH   1  21
ATOM     20  C   UNL     1      -0.693  17.298  18.100  0.00  0.00    +0.000 C 
ATOM     21  O   UNL     1       0.397  16.374  18.153  0.00  0.00    +0.000 OA
ENDBRANCH   1  21
BRANCH   6  22
ATOM     22  O   UNL     1       1.173  16.603  21.002  0.00  0.00    +0.000 OA
ATOM     23  C   UNL     1       2.529  16.936  20.751  0.00  0.00    +0.000 C 
ENDBRANCH   6  22
BRANCH  13  24
ATOM     24  C   UNL     1       2.364   7.636  19.155  0.00  0.00    +0.000 C 
ATOM     25  C   UNL     1       3.131   7.987  17.873  0.00  0.00    +0.000 C 
BRANCH  24  26
ATOM     26  C   UNL     1       2.019   6.151  19.219  0.00  0.00    +0.000 A 
ATOM     27  C   UNL     1       1.973   5.408  18.026  0.00  0.00    +0.000 A 
ATOM     28  C   UNL     1       1.643   4.055  18.043  0.00  0.00    +0.000 A 
ATOM     29  C   UNL     1       1.358   3.419  19.248  0.00  0.00    +0.000 A 
ATOM     30  C   UNL     1       1.411   4.137  20.437  0.00  0.00    +0.000 A 
ATOM     31  C   UNL     1       1.743   5.497  20.425  0.00  0.00    +0.000 A 
ENDBRANCH  24  26
ENDBRANCH  13  24
TORSDOF 4
ENDMDL
MODEL 7
REMARK VINA RESULT:      -7.1      1.376      2.695
REMARK  Name = 
REMARK  7 active torsions:
REMARK  status: ('A' for Active; 'I' for Inactive)
REMARK    1  A    between atoms: C_1  and  O_2
REMARK    2  A    between atoms: O_2  and  C_3
REMARK    3  A    between atoms: C_8  and  O_9
REMARK    4  A    between atoms: O_9  and  C_10
REMARK    5  A    between atoms: N_17  and  C_18
REMARK    6  A    between atoms: C_18  and  C_19
REMARK    7  A    between atoms: C_18  and  C_20
REMARK                            x       y       z     vdW  Elec       q    Type
REMARK                         _______ _______ _______ _____ _____    ______ ____
ROOT
ATOM      1  C   UNL     1       1.562   4.193  18.479  0.00  0.00    +0.000 A 
ATOM      2  C   UNL     1       1.883   5.458  17.964  0.00  0.00    +0.000 A 
ATOM      3  C   UNL     1       2.110   6.550  18.812  0.00  0.00    +0.000 A 
ATOM      4  C   UNL     1       1.914   6.414  20.186  0.00  0.00    +0.000 A 
ATOM      5  C   UNL     1       1.508   5.172  20.689  0.00  0.00    +0.000 A 
ATOM      6  C   UNL     1       1.333   4.054  19.854  0.00  0.00    +0.000 A 
ATOM      7  N   UNL     1       2.084   7.511  21.051  0.00  0.00    +0.000 N 
ATOM      8  C   UNL     1       1.494   8.779  20.874  0.00  0.00    +0.000 A 
ATOM      9  N   UNL     1       1.114   9.351  22.035  0.00  0.00    +0.000 NA
ATOM     10  C   UNL     1       0.357  10.447  21.937  0.00  0.00    +0.000 A 
ATOM     11  N   UNL     1      -0.088  11.003  20.809  0.00  0.00    +0.000 NA
ATOM     12  C   UNL     1       0.332  10.440  19.663  0.00  0.00    +0.000 A 
ATOM     13  N   UNL     1      -0.123  10.953  18.420  0.00  0.00    +0.000 N 
ATOM     14  C   UNL     1       1.207   9.339  19.622  0.00  0.00    +0.000 A 
ATOM     15  N   UNL     1       1.680   8.912  18.368  0.00  0.00    +0.000 N 
ATOM     16  C   UNL     1       2.644   7.843  18.274  0.00  0.00    +0.000 C 
ATOM     17  H   UNL     1       2.015   7.291  22.039  0.00  0.00    +0.000 HD
ATOM     18  H   UNL     1       0.622  11.519  18.025  0.00  0.00    +0.000 HD
ATOM     19  H   UNL     1       0.898   8.861  17.715  0.00  0.00    +0.000 HD
ENDROOT
BRANCH   1  21
ATOM     20  C   UNL     1       2.619   2.266  17.598  0.00  0.00    +0.000 C 
ATOM     21  O   UNL     1       1.465   3.107  17.648  0.00  0.00    +0.000 OA
ENDBRANCH   1  21
BRANCH   6  22
ATOM     22  O   UNL     1       0.974   2.940  20.564  0.00  0.00    +0.000 OA
ATOM     23  C   UNL     1       1.778   2.519  21.653  0.00  0.00    +0.000 C 
ENDBRANCH   6  22
BRANCH  13  24
ATOM     24  C   UNL     1      -1.428  11.604  18.467  0.00  0.00    +0.000 C 
ATOM     25  C   UNL     1      -2.049  11.335  19.844  0.00  0.00    +0.000 C 
BRANCH  24  26
ATOM     26  C   UNL     1      -2.311  11.087  17.336  0.00  0.00    +0.000 A 
ATOM     27  C   UNL     1      -3.606  11.616  17.183  0.00  0.00    +0.000 A 
ATOM     28  C   UNL     1      -4.448  11.154  16.175  0.00  0.00    +0.000 A 
ATOM     29  C   UNL     1      -4.014  10.162  15.300  0.00  0.00    +0.000 A 
ATOM     30  C   UNL     1      -2.734   9.637  15.431  0.00  0.00    +0.000 A 
ATOM     31  C   UNL     1      -1.884  10.098  16.442  0.00  0.00    +0.000 A 
ENDBRANCH  24  26
ENDBRANCH  13  24
TORSDOF 4
ENDMDL
MODEL 8
REMARK VINA RESULT:      -7.0      3.495      8.507
REMARK  Name = 
REMARK  7 active torsions:
REMARK  status: ('A' for Active; 'I' for Inactive)
REMARK    1  A    between atoms: C_1  and  O_2
REMARK    2  A    between atoms: O_2  and  C_3
REMARK    3  A    between atoms: C_8  and  O_9
REMARK    4  A    between atoms: O_9  and  C_10
REMARK    5  A    between atoms: N_17  and  C_18
REMARK    6  A    between atoms: C_18  and  C_19
REMARK    7  A    between atoms: C_18  and  C_20
REMARK                            x       y       z     vdW  Elec       q    Type
REMARK                         _______ _______ _______ _____ _____    ______ ____
ROOT
ATOM      1  C   UNL     1      -2.276  11.550  22.749  0.00  0.00    +0.000 A 
ATOM      2  C   UNL     1      -1.133  10.784  23.022  0.00  0.00    +0.000 A 
ATOM      3  C   UNL     1      -0.074  10.710  22.107  0.00  0.00    +0.000 A 
ATOM      4  C   UNL     1      -0.192  11.319  20.858  0.00  0.00    +0.000 A 
ATOM      5  C   UNL     1      -1.371  12.010  20.555  0.00  0.00    +0.000 A 
ATOM      6  C   UNL     1      -2.417  12.139  21.486  0.00  0.00    +0.000 A 
ATOM      7  N   UNL     1       0.837  11.213  19.904  0.00  0.00    +0.000 N 
ATOM      8  C   UNL     1       1.442  10.007  19.497  0.00  0.00    +0.000 A 
ATOM      9  N   UNL     1       1.743   9.984  18.183  0.00  0.00    +0.000 NA
ATOM     10  C   UNL     1       2.118   8.804  17.681  0.00  0.00    +0.000 A 
ATOM     11  N   UNL     1       2.182   7.647  18.342  0.00  0.00    +0.000 NA
ATOM     12  C   UNL     1       1.915   7.699  19.658  0.00  0.00    +0.000 A 
ATOM     13  N   UNL     1       1.931   6.505  20.426  0.00  0.00    +0.000 N 
ATOM     14  C   UNL     1       1.600   8.893  20.333  0.00  0.00    +0.000 A 
ATOM     15  N   UNL     1       1.461   8.850  21.732  0.00  0.00    +0.000 N 
ATOM     16  C   UNL     1       1.222  10.058  22.482  0.00  0.00    +0.000 C 
ATOM     17  H   UNL     1       0.701  11.769  19.066  0.00  0.00    +0.000 HD
ATOM     18  H   UNL     1       2.805   6.481  20.944  0.00  0.00    +0.000 HD
ATOM     19  H   UNL     1       0.883   8.049  21.986  0.00  0.00    +0.000 HD
ENDROOT
BRANCH   1  21
ATOM     20  C   UNL     1      -3.298  13.003  24.314  0.00  0.00    +0.000 C 
ATOM     21  O   UNL     1      -3.248  11.713  23.701  0.00  0.00    +0.000 OA
ENDBRANCH   1  21
BRANCH   6  22
ATOM     22  O   UNL     1      -3.452  12.886  20.989  0.00  0.00    +0.000 OA
ATOM     23  C   UNL     1      -4.109  12.464  19.805  0.00  0.00    +0.000 C 
ENDBRANCH   6  22
BRANCH  13  24
ATOM     24  C   UNL     1       1.630   5.290  19.677  0.00  0.00    +0.000 C 
ATOM     25  C   UNL     1       1.101   4.239  20.662  0.00  0.00    +0.000 C 
BRANCH  24  26
ATOM     26  C   UNL     1       2.877   4.803  18.946  0.00  0.00    +0.000 A 
ATOM     27  C   UNL     1       2.739   4.223  17.672  0.00  0.00    +0.000 A 
ATOM     28  C   UNL     1       3.853   3.751  16.983  0.00  0.00    +0.000 A 
ATOM     29  C   UNL     1       5.121   3.851  17.548  0.00  0.00    +0.000 A 
ATOM     30  C   UNL     1       5.275   4.432  18.801  0.00  0.00    +0.000 A 
ATOM     31  C   UNL     1       4.159   4.909  19.498  0.00  0.00    +0.000 A 
ENDBRANCH  24  26
ENDBRANCH  13  24
TORSDOF 4
ENDMDL
MODEL 9
REMARK VINA RESULT:      -6.9      5.857      8.261
REMARK  Name = 
REMARK  7 active torsions:
REMARK  status: ('A' for Active; 'I' for Inactive)
REMARK    1  A    between atoms: C_1  and  O_2
REMARK    2  A    between atoms: O_2  and  C_3
REMARK    3  A    between atoms: C_8  and  O_9
REMARK    4  A    between atoms: O_9  and  C_10
REMARK    5  A    between atoms: N_17  and  C_18
REMARK    6  A    between atoms: C_18  and  C_19
REMARK    7  A    between atoms: C_18  and  C_20
REMARK                            x       y       z     vdW  Elec       q    Type
REMARK                         _______ _______ _______ _____ _____    ______ ____
ROOT
ATOM      1  C   UNL     1       7.377  14.577  18.564  0.00  0.00    +0.000 A 
ATOM      2  C   UNL     1       6.178  14.573  17.836  0.00  0.00    +0.000 A 
ATOM      3  C   UNL     1       4.966  14.945  18.432  0.00  0.00    +0.000 A 
ATOM      4  C   UNL     1       4.923  15.227  19.798  0.00  0.00    +0.000 A 
ATOM      5  C   UNL     1       6.107  15.146  20.540  0.00  0.00    +0.000 A 
ATOM      6  C   UNL     1       7.339  14.828  19.941  0.00  0.00    +0.000 A 
ATOM      7  N   UNL     1       3.707  15.552  20.428  0.00  0.00    +0.000 N 
ATOM      8  C   UNL     1       2.517  14.803  20.326  0.00  0.00    +0.000 A 
ATOM      9  N   UNL     1       1.816  14.766  21.477  0.00  0.00    +0.000 NA
ATOM     10  C   UNL     1       0.795  13.905  21.523  0.00  0.00    +0.000 A 
ATOM     11  N   UNL     1       0.433  13.057  20.560  0.00  0.00    +0.000 NA
ATOM     12  C   UNL     1       1.120  13.136  19.407  0.00  0.00    +0.000 A 
ATOM     13  N   UNL     1       0.815  12.245  18.345  0.00  0.00    +0.000 N 
ATOM     14  C   UNL     1       2.156  14.063  19.192  0.00  0.00    +0.000 A 
ATOM     15  N   UNL     1       2.722  14.141  17.907  0.00  0.00    +0.000 N 
ATOM     16  C   UNL     1       3.728  15.130  17.608  0.00  0.00    +0.000 C 
ATOM     17  H   UNL     1       3.792  15.835  21.399  0.00  0.00    +0.000 HD
ATOM     18  H   UNL     1       0.262  12.754  17.662  0.00  0.00    +0.000 HD
ATOM     19  H   UNL     1       2.914  13.198  17.567  0.00  0.00    +0.000 HD
ENDROOT
BRANCH   1  21
ATOM     20  C   UNL     1       9.436  15.459  17.795  0.00  0.00    +0.000 C 
ATOM     21  O   UNL     1       8.572  14.330  17.939  0.00  0.00    +0.000 OA
ENDBRANCH   1  21
BRANCH   6  22
ATOM     22  O   UNL     1       8.364  14.844  20.848  0.00  0.00    +0.000 OA
ATOM     23  C   UNL     1       8.681  13.660  21.561  0.00  0.00    +0.000 C 
ENDBRANCH   6  22
BRANCH  13  24
ATOM     24  C   UNL     1       0.250  10.966  18.760  0.00  0.00    +0.000 C 
ATOM     25  C   UNL     1       1.165   9.847  18.243  0.00  0.00    +0.000 C 
BRANCH  24  26
ATOM     26  C   UNL     1      -1.172  10.825  18.228  0.00  0.00    +0.000 A 
ATOM     27  C   UNL     1      -2.179  11.664  18.739  0.00  0.00    +0.000 A 
ATOM     28  C   UNL     1      -3.493  11.551  18.291  0.00  0.00    +0.000 A 
ATOM     29  C   UNL     1      -3.825  10.606  17.325  0.00  0.00    +0.000 A 
ATOM     30  C   UNL     1      -2.839   9.777  16.802  0.00  0.00    +0.000 A 
ATOM     31  C   UNL     1      -1.517   9.887  17.248  0.00  0.00    +0.000 A 
ENDBRANCH  24  26
ENDBRANCH  13  24
TORSDOF 4
ENDMDL
