MODEL 1
REMARK VINA RESULT:      -9.2      0.000      0.000
REMARK  Name = 
REMARK  4 active torsions:
REMARK  status: ('A' for Active; 'I' for Inactive)
REMARK    1  A    between atoms: C_1  and  C_2
REMARK    2  A    between atoms: C_5  and  C_6
REMARK    3  A    between atoms: N_9  and  C_10
REMARK    4  A    between atoms: C_10  and  C_11
REMARK                            x       y       z     vdW  Elec       q    Type
REMARK                         _______ _______ _______ _____ _____    ______ ____
ROOT
ATOM      1  C   UNL     1       1.329   4.316  20.811  0.00  0.00    +0.000 C 
ATOM      2  C   UNL     1       2.462   3.526  21.481  0.00  0.00    +0.000 C 
ATOM      3  C   UNL     1       3.355   2.705  20.539  0.00  0.00    +0.000 C 
ATOM      4  N   UNL     1       2.714   2.051  19.394  0.00  0.00    +0.000 NA
ATOM      5  C   UNL     1       1.534   2.731  18.842  0.00  0.00    +0.000 C 
ATOM      6  C   UNL     1       0.594   3.371  19.860  0.00  0.00    +0.000 C 
ENDROOT
BRANCH   1  11
ATOM      7  C   UNL     1       2.107   9.554  18.298  0.00  0.00    +0.000 C 
ATOM      8  C   UNL     1       2.032   8.220  18.980  0.00  0.00    +0.000 A 
ATOM      9  C   UNL     1       2.428   7.057  18.312  0.00  0.00    +0.000 A 
ATOM     10  C   UNL     1       2.245   5.794  18.893  0.00  0.00    +0.000 A 
ATOM     11  C   UNL     1       1.655   5.656  20.154  0.00  0.00    +0.000 A 
ATOM     12  C   UNL     1       1.296   6.839  20.833  0.00  0.00    +0.000 A 
ATOM     13  C   UNL     1       1.477   8.100  20.255  0.00  0.00    +0.000 A 
ENDBRANCH   1  11
BRANCH   4  14
ATOM     14  C   UNL     1       3.694   1.831  18.301  0.00  0.00    +0.000 C 
BRANCH  14  15
ATOM     15  C   UNL     1       4.356   3.089  17.791  0.00  0.00    +0.000 A 
ATOM     16  C   UNL     1       4.112   3.648  16.527  0.00  0.00    +0.000 A 
ATOM     17  C   UNL     1       4.844   4.768  16.090  0.00  0.00    +0.000 A 
ATOM     18  C   UNL     1       5.859   5.290  16.903  0.00  0.00    +0.000 A 
ATOM     19  C   UNL     1       6.137   4.687  18.124  0.00  0.00    +0.000 A 
ATOM     20  C   UNL     1       5.373   3.629  18.581  0.00  0.00    +0.000 A 
ATOM     21  O   UNL     1       7.213   5.001  18.896  0.00  0.00    +0.000 OA
ATOM     22  C   UNL     1       7.676   6.323  18.711  0.00  0.00    +0.000 C 
ATOM     23  C   UNL     1       7.478   7.010  17.347  0.00  0.00    +0.000 C 
ATOM     24  O   UNL     1       8.054   8.063  17.055  0.00  0.00    +0.000 OA
ATOM     25  N   UNL     1       6.579   6.419  16.511  0.00  0.00    +0.000 N 
ATOM     26  H   UNL     1       6.402   6.887  15.633  0.00  0.00    +0.000 HD
ENDBRANCH  14  15
ENDBRANCH   4  14
TORSDOF 3
ENDMDL
MODEL 2
REMARK VINA RESULT:      -8.0      4.060      7.225
REMARK  Name = 
REMARK  4 active torsions:
REMARK  status: ('A' for Active; 'I' for Inactive)
REMARK    1  A    between atoms: C_1  and  C_2
REMARK    2  A    between atoms: C_5  and  C_6
REMARK    3  A    between atoms: N_9  and  C_10
REMARK    4  A    between atoms: C_10  and  C_11
REMARK                            x       y       z     vdW  Elec       q    Type
REMARK                         _______ _______ _______ _____ _____    ______ ____
ROOT
ATOM      1  C   UNL     1       4.553   4.034  18.127  0.00  0.00    +0.000 C 
ATOM      2  C   UNL     1       3.020   3.977  18.063  0.00  0.00    +0.000 C 
ATOM      3  C   UNL     1       2.304   5.329  17.929  0.00  0.00    +0.000 C 
ATOM      4  N   UNL     1       2.869   6.472  18.652  0.00  0.00    +0.000 NA
ATOM      5  C   UNL     1       4.326   6.455  18.845  0.00  0.00    +0.000 C 
ATOM      6  C   UNL     1       4.943   5.094  19.156  0.00  0.00    +0.000 C 
ENDROOT
BRANCH   1  11
ATOM      7  C   UNL     1       7.646   5.050  13.253  0.00  0.00    +0.000 C 
ATOM      8  C   UNL     1       6.881   4.664  14.484  0.00  0.00    +0.000 A 
ATOM      9  C   UNL     1       5.544   4.267  14.394  0.00  0.00    +0.000 A 
ATOM     10  C   UNL     1       4.785   4.025  15.548  0.00  0.00    +0.000 A 
ATOM     11  C   UNL     1       5.338   4.179  16.823  0.00  0.00    +0.000 A 
ATOM     12  C   UNL     1       6.699   4.542  16.899  0.00  0.00    +0.000 A 
ATOM     13  C   UNL     1       7.458   4.784  15.749  0.00  0.00    +0.000 A 
ENDBRANCH   1  11
BRANCH   4  14
ATOM     14  C   UNL     1       2.489   7.747  17.995  0.00  0.00    +0.000 C 
BRANCH  14  15
ATOM     15  C   UNL     1       1.593   8.636  18.825  0.00  0.00    +0.000 A 
ATOM     16  C   UNL     1       0.935   9.772  18.328  0.00  0.00    +0.000 A 
ATOM     17  C   UNL     1       0.197  10.603  19.193  0.00  0.00    +0.000 A 
ATOM     18  C   UNL     1       0.168  10.319  20.564  0.00  0.00    +0.000 A 
ATOM     19  C   UNL     1       0.878   9.231  21.055  0.00  0.00    +0.000 A 
ATOM     20  C   UNL     1       1.547   8.378  20.197  0.00  0.00    +0.000 A 
ATOM     21  O   UNL     1       1.062   8.981  22.380  0.00  0.00    +0.000 OA
ATOM     22  C   UNL     1       0.039   9.504  23.201  0.00  0.00    +0.000 C 
ATOM     23  C   UNL     1      -0.721  10.767  22.753  0.00  0.00    +0.000 C 
ATOM     24  O   UNL     1      -1.456  11.396  23.521  0.00  0.00    +0.000 OA
ATOM     25  N   UNL     1      -0.581  11.106  21.440  0.00  0.00    +0.000 N 
ATOM     26  H   UNL     1      -1.115  11.902  21.120  0.00  0.00    +0.000 HD
ENDBRANCH  14  15
ENDBRANCH   4  14
TORSDOF 3
ENDMDL
MODEL 3
REMARK VINA RESULT:      -8.0      3.609      6.054
REMARK  Name = 
REMARK  4 active torsions:
REMARK  status: ('A' for Active; 'I' for Inactive)
REMARK    1  A    between atoms: C_1  and  C_2
REMARK    2  A    between atoms: C_5  and  C_6
REMARK    3  A    between atoms: N_9  and  C_10
REMARK    4  A    between atoms: C_10  and  C_11
REMARK                            x       y       z     vdW  Elec       q    Type
REMARK                         _______ _______ _______ _____ _____    ______ ____
ROOT
ATOM      1  C   UNL     1       0.367  11.453  19.596  0.00  0.00    +0.000 C 
ATOM      2  C   UNL     1       1.558  11.646  18.648  0.00  0.00    +0.000 C 
ATOM      3  C   UNL     1       2.074  10.377  17.953  0.00  0.00    +0.000 C 
ATOM      4  N   UNL     1       2.068   9.130  18.723  0.00  0.00    +0.000 NA
ATOM      5  C   UNL     1       1.013   9.006  19.739  0.00  0.00    +0.000 C 
ATOM      6  C   UNL     1       0.683  10.276  20.518  0.00  0.00    +0.000 C 
ENDROOT
BRANCH   1  11
ATOM      7  C   UNL     1      -5.173  10.940  17.749  0.00  0.00    +0.000 C 
ATOM      8  C   UNL     1      -3.736  11.156  18.124  0.00  0.00    +0.000 A 
ATOM      9  C   UNL     1      -2.723  10.413  17.512  0.00  0.00    +0.000 A 
ATOM     10  C   UNL     1      -1.392  10.517  17.943  0.00  0.00    +0.000 A 
ATOM     11  C   UNL     1      -1.038  11.359  19.002  0.00  0.00    +0.000 A 
ATOM     12  C   UNL     1      -2.064  12.132  19.585  0.00  0.00    +0.000 A 
ATOM     13  C   UNL     1      -3.392  12.030  19.156  0.00  0.00    +0.000 A 
ENDBRANCH   1  11
BRANCH   4  14
ATOM     14  C   UNL     1       2.001   7.956  17.818  0.00  0.00    +0.000 C 
BRANCH  14  15
ATOM     15  C   UNL     1       2.905   6.811  18.209  0.00  0.00    +0.000 A 
ATOM     16  C   UNL     1       4.219   6.652  17.739  0.00  0.00    +0.000 A 
ATOM     17  C   UNL     1       4.961   5.503  18.076  0.00  0.00    +0.000 A 
ATOM     18  C   UNL     1       4.361   4.494  18.840  0.00  0.00    +0.000 A 
ATOM     19  C   UNL     1       3.039   4.632  19.243  0.00  0.00    +0.000 A 
ATOM     20  C   UNL     1       2.333   5.789  18.969  0.00  0.00    +0.000 A 
ATOM     21  O   UNL     1       2.316   3.636  19.825  0.00  0.00    +0.000 OA
ATOM     22  C   UNL     1       3.107   2.698  20.524  0.00  0.00    +0.000 C 
ATOM     23  C   UNL     1       4.553   2.433  20.064  0.00  0.00    +0.000 C 
ATOM     24  O   UNL     1       5.209   1.474  20.484  0.00  0.00    +0.000 OA
ATOM     25  N   UNL     1       5.083   3.360  19.217  0.00  0.00    +0.000 N 
ATOM     26  H   UNL     1       6.047   3.226  18.947  0.00  0.00    +0.000 HD
ENDBRANCH  14  15
ENDBRANCH   4  14
TORSDOF 3
ENDMDL
MODEL 4
REMARK VINA RESULT:      -7.9      3.778      7.231
REMARK  Name = 
REMARK  4 active torsions:
REMARK  status: ('A' for Active; 'I' for Inactive)
REMARK    1  A    between atoms: C_1  and  C_2
REMARK    2  A    between atoms: C_5  and  C_6
REMARK    3  A    between atoms: N_9  and  C_10
REMARK    4  A    between atoms: C_10  and  C_11
REMARK                            x       y       z     vdW  Elec       q    Type
REMARK                         _______ _______ _______ _____ _____    ______ ____
ROOT
ATOM      1  C   UNL     1       7.005   5.465  17.158  0.00  0.00    +0.000 C 
ATOM      2  C   UNL     1       6.497   4.806  18.448  0.00  0.00    +0.000 C 
ATOM      3  C   UNL     1       5.014   5.031  18.777  0.00  0.00    +0.000 C 
ATOM      4  N   UNL     1       4.440   6.343  18.464  0.00  0.00    +0.000 NA
ATOM      5  C   UNL     1       5.028   7.046  17.315  0.00  0.00    +0.000 C 
ATOM      6  C   UNL     1       6.541   6.922  17.160  0.00  0.00    +0.000 C 
ENDROOT
BRANCH   1  11
ATOM      7  C   UNL     1       5.829   3.247  11.862  0.00  0.00    +0.000 C 
ATOM      8  C   UNL     1       6.208   3.712  13.237  0.00  0.00    +0.000 A 
ATOM      9  C   UNL     1       5.518   3.246  14.360  0.00  0.00    +0.000 A 
ATOM     10  C   UNL     1       5.780   3.768  15.635  0.00  0.00    +0.000 A 
ATOM     11  C   UNL     1       6.733   4.774  15.823  0.00  0.00    +0.000 A 
ATOM     12  C   UNL     1       7.449   5.208  14.688  0.00  0.00    +0.000 A 
ATOM     13  C   UNL     1       7.189   4.688  13.415  0.00  0.00    +0.000 A 
ENDBRANCH   1  11
BRANCH   4  14
ATOM     14  C   UNL     1       2.973   6.238  18.261  0.00  0.00    +0.000 C 
BRANCH  14  15
ATOM     15  C   UNL     1       2.187   7.430  18.753  0.00  0.00    +0.000 A 
ATOM     16  C   UNL     1       1.828   8.522  17.946  0.00  0.00    +0.000 A 
ATOM     17  C   UNL     1       1.179   9.638  18.508  0.00  0.00    +0.000 A 
ATOM     18  C   UNL     1       0.941   9.677  19.888  0.00  0.00    +0.000 A 
ATOM     19  C   UNL     1       1.361   8.621  20.686  0.00  0.00    +0.000 A 
ATOM     20  C   UNL     1       1.938   7.496  20.126  0.00  0.00    +0.000 A 
ATOM     21  O   UNL     1       1.343   8.645  22.047  0.00  0.00    +0.000 OA
ATOM     22  C   UNL     1       0.361   9.506  22.584  0.00  0.00    +0.000 C 
ATOM     23  C   UNL     1      -0.078  10.748  21.784  0.00  0.00    +0.000 C 
ATOM     24  O   UNL     1      -0.754  11.648  22.292  0.00  0.00    +0.000 OA
ATOM     25  N   UNL     1       0.271  10.756  20.467  0.00  0.00    +0.000 N 
ATOM     26  H   UNL     1      -0.054  11.540  19.918  0.00  0.00    +0.000 HD
ENDBRANCH  14  15
ENDBRANCH   4  14
TORSDOF 3
ENDMDL
MODEL 5
REMARK VINA RESULT:      -7.9      3.514      6.027
REMARK  Name = 
REMARK  4 active torsions:
REMARK  status: ('A' for Active; 'I' for Inactive)
REMARK    1  A    between atoms: C_1  and  C_2
REMARK    2  A    between atoms: C_5  and  C_6
REMARK    3  A    between atoms: N_9  and  C_10
REMARK    4  A    between atoms: C_10  and  C_11
REMARK                            x       y       z     vdW  Elec       q    Type
REMARK                         _______ _______ _______ _____ _____    ______ ____
ROOT
ATOM      1  C   UNL     1       0.468  11.305  19.566  0.00  0.00    +0.000 C 
ATOM      2  C   UNL     1       1.623  11.443  18.565  0.00  0.00    +0.000 C 
ATOM      3  C   UNL     1       2.096  10.140  17.903  0.00  0.00    +0.000 C 
ATOM      4  N   UNL     1       2.106   8.926  18.724  0.00  0.00    +0.000 NA
ATOM      5  C   UNL     1       1.091   8.858  19.785  0.00  0.00    +0.000 C 
ATOM      6  C   UNL     1       0.807  10.163  20.523  0.00  0.00    +0.000 C 
ENDROOT
BRANCH   1  11
ATOM      7  C   UNL     1      -4.842  11.085  17.093  0.00  0.00    +0.000 C 
ATOM      8  C   UNL     1      -3.526  11.054  17.812  0.00  0.00    +0.000 A 
ATOM      9  C   UNL     1      -3.307  11.865  18.929  0.00  0.00    +0.000 A 
ATOM     10  C   UNL     1      -2.043  11.936  19.532  0.00  0.00    +0.000 A 
ATOM     11  C   UNL     1      -0.961  11.206  19.031  0.00  0.00    +0.000 A 
ATOM     12  C   UNL     1      -1.204  10.362  17.928  0.00  0.00    +0.000 A 
ATOM     13  C   UNL     1      -2.465  10.290  17.325  0.00  0.00    +0.000 A 
ENDBRANCH   1  11
BRANCH   4  14
ATOM     14  C   UNL     1       1.989   7.716  17.872  0.00  0.00    +0.000 C 
BRANCH  14  15
ATOM     15  C   UNL     1       2.905   6.582  18.267  0.00  0.00    +0.000 A 
ATOM     16  C   UNL     1       4.190   6.387  17.735  0.00  0.00    +0.000 A 
ATOM     17  C   UNL     1       4.940   5.249  18.084  0.00  0.00    +0.000 A 
ATOM     18  C   UNL     1       4.375   4.281  18.926  0.00  0.00    +0.000 A 
ATOM     19  C   UNL     1       3.078   4.451  19.393  0.00  0.00    +0.000 A 
ATOM     20  C   UNL     1       2.367   5.601  19.103  0.00  0.00    +0.000 A 
ATOM     21  O   UNL     1       2.380   3.491  20.058  0.00  0.00    +0.000 OA
ATOM     22  C   UNL     1       3.200   2.577  20.756  0.00  0.00    +0.000 C 
ATOM     23  C   UNL     1       4.617   2.277  20.232  0.00  0.00    +0.000 C 
ATOM     24  O   UNL     1       5.288   1.332  20.660  0.00  0.00    +0.000 OA
ATOM     25  N   UNL     1       5.107   3.159  19.315  0.00  0.00    +0.000 N 
ATOM     26  H   UNL     1       6.055   3.003  19.000  0.00  0.00    +0.000 HD
ENDBRANCH  14  15
ENDBRANCH   4  14
TORSDOF 3
ENDMDL
MODEL 6
REMARK VINA RESULT:      -7.9      3.724      7.176
REMARK  Name = 
REMARK  4 active torsions:
REMARK  status: ('A' for Active; 'I' for Inactive)
REMARK    1  A    between atoms: C_1  and  C_2
REMARK    2  A    between atoms: C_5  and  C_6
REMARK    3  A    between atoms: N_9  and  C_10
REMARK    4  A    between atoms: C_10  and  C_11
REMARK                            x       y       z     vdW  Elec       q    Type
REMARK                         _______ _______ _______ _____ _____    ______ ____
ROOT
ATOM      1  C   UNL     1       7.126   5.537  16.757  0.00  0.00    +0.000 C 
ATOM      2  C   UNL     1       6.779   4.731  18.016  0.00  0.00    +0.000 C 
ATOM      3  C   UNL     1       5.323   4.831  18.495  0.00  0.00    +0.000 C 
ATOM      4  N   UNL     1       4.652   6.128  18.364  0.00  0.00    +0.000 NA
ATOM      5  C   UNL     1       5.091   6.969  17.241  0.00  0.00    +0.000 C 
ATOM      6  C   UNL     1       6.587   6.955  16.941  0.00  0.00    +0.000 C 
ENDROOT
BRANCH   1  11
ATOM      7  C   UNL     1       5.793   2.871  11.710  0.00  0.00    +0.000 C 
ATOM      8  C   UNL     1       6.073   3.659  12.955  0.00  0.00    +0.000 A 
ATOM      9  C   UNL     1       7.190   4.495  13.032  0.00  0.00    +0.000 A 
ATOM     10  C   UNL     1       7.529   5.138  14.231  0.00  0.00    +0.000 A 
ATOM     11  C   UNL     1       6.767   4.957  15.389  0.00  0.00    +0.000 A 
ATOM     12  C   UNL     1       5.621   4.141  15.289  0.00  0.00    +0.000 A 
ATOM     13  C   UNL     1       5.281   3.500  14.093  0.00  0.00    +0.000 A 
ENDBRANCH   1  11
BRANCH   4  14
ATOM     14  C   UNL     1       3.181   5.951  18.282  0.00  0.00    +0.000 C 
BRANCH  14  15
ATOM     15  C   UNL     1       2.380   7.163  18.694  0.00  0.00    +0.000 A 
ATOM     16  C   UNL     1       2.068   8.228  17.834  0.00  0.00    +0.000 A 
ATOM     17  C   UNL     1       1.401   9.367  18.324  0.00  0.00    +0.000 A 
ATOM     18  C   UNL     1       1.099   9.456  19.689  0.00  0.00    +0.000 A 
ATOM     19  C   UNL     1       1.473   8.426  20.543  0.00  0.00    +0.000 A 
ATOM     20  C   UNL     1       2.067   7.279  20.050  0.00  0.00    +0.000 A 
ATOM     21  O   UNL     1       1.390   8.499  21.899  0.00  0.00    +0.000 OA
ATOM     22  C   UNL     1       0.390   9.384  22.359  0.00  0.00    +0.000 C 
ATOM     23  C   UNL     1      -0.001  10.599  21.496  0.00  0.00    +0.000 C 
ATOM     24  O   UNL     1      -0.694  11.520  21.939  0.00  0.00    +0.000 OA
ATOM     25  N   UNL     1       0.410  10.558  20.197  0.00  0.00    +0.000 N 
ATOM     26  H   UNL     1       0.117  11.325  19.607  0.00  0.00    +0.000 HD
ENDBRANCH  14  15
ENDBRANCH   4  14
TORSDOF 3
ENDMDL
MODEL 7
REMARK VINA RESULT:      -7.8      3.386      5.475
REMARK  Name = 
REMARK  4 active torsions:
REMARK  status: ('A' for Active; 'I' for Inactive)
REMARK    1  A    between atoms: C_1  and  C_2
REMARK    2  A    between atoms: C_5  and  C_6
REMARK    3  A    between atoms: N_9  and  C_10
REMARK    4  A    between atoms: C_10  and  C_11
REMARK                            x       y       z     vdW  Elec       q    Type
REMARK                         _______ _______ _______ _____ _____    ______ ____
ROOT
ATOM      1  C   UNL     1       0.477  11.411  19.318  0.00  0.00    +0.000 C 
ATOM      2  C   UNL     1       1.613  11.269  18.295  0.00  0.00    +0.000 C 
ATOM      3  C   UNL     1       1.975   9.833  17.890  0.00  0.00    +0.000 C 
ATOM      4  N   UNL     1       1.922   8.800  18.929  0.00  0.00    +0.000 NA
ATOM      5  C   UNL     1       0.933   9.011  19.997  0.00  0.00    +0.000 C 
ATOM      6  C   UNL     1       0.760  10.450  20.472  0.00  0.00    +0.000 C 
ENDROOT
BRANCH   1  11
ATOM      7  C   UNL     1      -5.188  10.918  17.896  0.00  0.00    +0.000 C 
ATOM      8  C   UNL     1      -3.725  11.124  18.158  0.00  0.00    +0.000 A 
ATOM      9  C   UNL     1      -2.770  10.337  17.509  0.00  0.00    +0.000 A 
ATOM     10  C   UNL     1      -1.410  10.436  17.838  0.00  0.00    +0.000 A 
ATOM     11  C   UNL     1      -0.968  11.317  18.830  0.00  0.00    +0.000 A 
ATOM     12  C   UNL     1      -1.937  12.132  19.450  0.00  0.00    +0.000 A 
ATOM     13  C   UNL     1      -3.295  12.035  19.123  0.00  0.00    +0.000 A 
ENDBRANCH   1  11
BRANCH   4  14
ATOM     14  C   UNL     1       1.698   7.462  18.328  0.00  0.00    +0.000 C 
BRANCH  14  15
ATOM     15  C   UNL     1       2.894   6.541  18.387  0.00  0.00    +0.000 A 
ATOM     16  C   UNL     1       2.982   5.420  19.228  0.00  0.00    +0.000 A 
ATOM     17  C   UNL     1       4.172   4.671  19.294  0.00  0.00    +0.000 A 
ATOM     18  C   UNL     1       5.289   5.082  18.555  0.00  0.00    +0.000 A 
ATOM     19  C   UNL     1       5.211   6.232  17.778  0.00  0.00    +0.000 A 
ATOM     20  C   UNL     1       4.023   6.929  17.662  0.00  0.00    +0.000 A 
ATOM     21  O   UNL     1       6.284   6.812  17.174  0.00  0.00    +0.000 OA
ATOM     22  C   UNL     1       7.326   5.905  16.879  0.00  0.00    +0.000 C 
ATOM     23  C   UNL     1       7.519   4.659  17.764  0.00  0.00    +0.000 C 
ATOM     24  O   UNL     1       8.535   3.960  17.698  0.00  0.00    +0.000 OA
ATOM     25  N   UNL     1       6.471   4.341  18.575  0.00  0.00    +0.000 N 
ATOM     26  H   UNL     1       6.563   3.498  19.124  0.00  0.00    +0.000 HD
ENDBRANCH  14  15
ENDBRANCH   4  14
TORSDOF 3
ENDMDL
MODEL 8
REMARK VINA RESULT:      -7.7      3.563      5.730
REMARK  Name = 
REMARK  4 active torsions:
REMARK  status: ('A' for Active; 'I' for Inactive)
REMARK    1  A    between atoms: C_1  and  C_2
REMARK    2  A    between atoms: C_5  and  C_6
REMARK    3  A    between atoms: N_9  and  C_10
REMARK    4  A    between atoms: C_10  and  C_11
REMARK                            x       y       z     vdW  Elec       q    Type
REMARK                         _______ _______ _______ _____ _____    ______ ____
ROOT
ATOM      1  C   UNL     1       0.002  11.448  20.038  0.00  0.00    +0.000 C 
ATOM      2  C   UNL     1       1.212  11.722  19.133  0.00  0.00    +0.000 C 
ATOM      3  C   UNL     1       1.777  10.506  18.384  0.00  0.00    +0.000 C 
ATOM      4  N   UNL     1       1.785   9.219  19.085  0.00  0.00    +0.000 NA
ATOM      5  C   UNL     1       0.709   9.014  20.066  0.00  0.00    +0.000 C 
ATOM      6  C   UNL     1       0.327  10.231  20.903  0.00  0.00    +0.000 C 
ENDROOT
BRANCH   1  11
ATOM      7  C   UNL     1      -5.107  11.172  17.178  0.00  0.00    +0.000 C 
ATOM      8  C   UNL     1      -3.854  11.170  18.003  0.00  0.00    +0.000 A 
ATOM      9  C   UNL     1      -3.669  12.114  19.017  0.00  0.00    +0.000 A 
ATOM     10  C   UNL     1      -2.453  12.201  19.709  0.00  0.00    +0.000 A 
ATOM     11  C   UNL     1      -1.384  11.352  19.403  0.00  0.00    +0.000 A 
ATOM     12  C   UNL     1      -1.597  10.379  18.405  0.00  0.00    +0.000 A 
ATOM     13  C   UNL     1      -2.810  10.291  17.713  0.00  0.00    +0.000 A 
ENDBRANCH   1  11
BRANCH   4  14
ATOM     14  C   UNL     1       1.771   8.094  18.118  0.00  0.00    +0.000 C 
BRANCH  14  15
ATOM     15  C   UNL     1       2.915   7.121  18.272  0.00  0.00    +0.000 A 
ATOM     16  C   UNL     1       3.032   6.207  19.331  0.00  0.00    +0.000 A 
ATOM     17  C   UNL     1       4.181   5.402  19.454  0.00  0.00    +0.000 A 
ATOM     18  C   UNL     1       5.233   5.557  18.541  0.00  0.00    +0.000 A 
ATOM     19  C   UNL     1       5.135   6.512  17.537  0.00  0.00    +0.000 A 
ATOM     20  C   UNL     1       3.980   7.255  17.377  0.00  0.00    +0.000 A 
ATOM     21  O   UNL     1       6.167   6.864  16.722  0.00  0.00    +0.000 OA
ATOM     22  C   UNL     1       7.122   5.838  16.544  0.00  0.00    +0.000 C 
ATOM     23  C   UNL     1       7.341   4.804  17.664  0.00  0.00    +0.000 C 
ATOM     24  O   UNL     1       8.306   4.033  17.663  0.00  0.00    +0.000 OA
ATOM     25  N   UNL     1       6.370   4.751  18.619  0.00  0.00    +0.000 N 
ATOM     26  H   UNL     1       6.475   4.043  19.332  0.00  0.00    +0.000 HD
ENDBRANCH  14  15
ENDBRANCH   4  14
TORSDOF 3
ENDMDL
MODEL 9
REMARK VINA RESULT:      -7.7      4.157      7.348
REMARK  Name = 
REMARK  4 active torsions:
REMARK  status: ('A' for Active; 'I' for Inactive)
REMARK    1  A    between atoms: C_1  and  C_2
REMARK    2  A    between atoms: C_5  and  C_6
REMARK    3  A    between atoms: N_9  and  C_10
REMARK    4  A    between atoms: C_10  and  C_11
REMARK                            x       y       z     vdW  Elec       q    Type
REMARK                         _______ _______ _______ _____ _____    ______ ____
ROOT
ATOM      1  C   UNL     1       4.452   3.738  17.871  0.00  0.00    +0.000 C 
ATOM      2  C   UNL     1       2.928   3.715  17.697  0.00  0.00    +0.000 C 
ATOM      3  C   UNL     1       2.216   5.069  17.838  0.00  0.00    +0.000 C 
ATOM      4  N   UNL     1       2.728   6.004  18.844  0.00  0.00    +0.000 NA
ATOM      5  C   UNL     1       4.169   5.926  19.122  0.00  0.00    +0.000 C 
ATOM      6  C   UNL     1       4.770   4.523  19.144  0.00  0.00    +0.000 C 
ENDROOT
BRANCH   1  11
ATOM      7  C   UNL     1       7.739   4.967  13.176  0.00  0.00    +0.000 C 
ATOM      8  C   UNL     1       6.874   4.780  14.387  0.00  0.00    +0.000 A 
ATOM      9  C   UNL     1       7.410   4.912  15.671  0.00  0.00    +0.000 A 
ATOM     10  C   UNL     1       6.642   4.618  16.807  0.00  0.00    +0.000 A 
ATOM     11  C   UNL     1       5.321   4.176  16.692  0.00  0.00    +0.000 A 
ATOM     12  C   UNL     1       4.779   4.084  15.393  0.00  0.00    +0.000 A 
ATOM     13  C   UNL     1       5.544   4.377  14.258  0.00  0.00    +0.000 A 
ENDBRANCH   1  11
BRANCH   4  14
ATOM     14  C   UNL     1       2.386   7.402  18.481  0.00  0.00    +0.000 C 
BRANCH  14  15
ATOM     15  C   UNL     1       1.774   8.208  19.602  0.00  0.00    +0.000 A 
ATOM     16  C   UNL     1       1.569   7.717  20.902  0.00  0.00    +0.000 A 
ATOM     17  C   UNL     1       0.902   8.501  21.862  0.00  0.00    +0.000 A 
ATOM     18  C   UNL     1       0.395   9.755  21.498  0.00  0.00    +0.000 A 
ATOM     19  C   UNL     1       0.545  10.203  20.191  0.00  0.00    +0.000 A 
ATOM     20  C   UNL     1       1.258   9.461  19.267  0.00  0.00    +0.000 A 
ATOM     21  O   UNL     1      -0.066  11.313  19.696  0.00  0.00    +0.000 OA
ATOM     22  C   UNL     1      -0.357  12.285  20.679  0.00  0.00    +0.000 C 
ATOM     23  C   UNL     1      -0.625  11.839  22.129  0.00  0.00    +0.000 C 
ATOM     24  O   UNL     1      -1.102  12.605  22.972  0.00  0.00    +0.000 OA
ATOM     25  N   UNL     1      -0.242  10.568  22.437  0.00  0.00    +0.000 N 
ATOM     26  H   UNL     1      -0.365  10.279  23.397  0.00  0.00    +0.000 HD
ENDBRANCH  14  15
ENDBRANCH   4  14
TORSDOF 3
ENDMDL
