MODEL 1
REMARK VINA RESULT:      -6.6      0.000      0.000
REMARK  Name = 
REMARK  5 active torsions:
REMARK  status: ('A' for Active; 'I' for Inactive)
REMARK    1  A    between atoms: C_2  and  C_3
REMARK    2  A    between atoms: C_3  and  O_4
REMARK    3  A    between atoms: O_4  and  C_5
REMARK    4  A    between atoms: C_8  and  O_9
REMARK    5  A    between atoms: O_9  and  C_10
REMARK                            x       y       z     vdW  Elec       q    Type
REMARK                         _______ _______ _______ _____ _____    ______ ____
ROOT
ATOM      1  C   UNL     1       6.737   6.660  16.741  0.00  0.00    +0.000 A 
ATOM      2  C   UNL     1       5.395   6.944  17.006  0.00  0.00    +0.000 A 
ATOM      3  C   UNL     1       4.447   5.922  16.977  0.00  0.00    +0.000 A 
ATOM      4  C   UNL     1       4.828   4.621  16.654  0.00  0.00    +0.000 A 
ATOM      5  C   UNL     1       6.169   4.332  16.393  0.00  0.00    +0.000 A 
ATOM      6  C   UNL     1       7.116   5.359  16.405  0.00  0.00    +0.000 A 
ENDROOT
BRANCH   1   7
ATOM      7  O   UNL     1       7.751   7.580  16.797  0.00  0.00    +0.000 OA
BRANCH   7   8
ATOM      8  C   UNL     1       8.124   7.962  18.121  0.00  0.00    +0.000 C 
BRANCH   8  10
ATOM      9  C   UNL     1       9.173  10.052  19.020  0.00  0.00    +0.000 C 
ATOM     10  C   UNL     1       8.379   9.435  18.130  0.00  0.00    +0.000 C 
ENDBRANCH   8  10
ENDBRANCH   7   8
ENDBRANCH   1   7
BRANCH   4  11
ATOM     11  O   UNL     1       3.823   3.683  16.695  0.00  0.00    +0.000 OA
BRANCH  11  12
ATOM     12  C   UNL     1       3.166   3.429  17.874  0.00  0.00    +0.000 A 
ATOM     13  C   UNL     1       3.969   2.957  18.917  0.00  0.00    +0.000 A 
ATOM     14  C   UNL     1       3.408   2.670  20.163  0.00  0.00    +0.000 A 
ATOM     15  C   UNL     1       2.042   2.858  20.361  0.00  0.00    +0.000 A 
ATOM     16 BR   UNL     1       1.270   2.437  22.035  0.00  0.00    +0.000 Br
ATOM     17  C   UNL     1       1.241   3.360  19.339  0.00  0.00    +0.000 A 
ATOM     18  C   UNL     1       1.809   3.674  18.101  0.00  0.00    +0.000 A 
ENDBRANCH  11  12
ENDBRANCH   4  11
TORSDOF 5
ENDMDL
MODEL 2
REMARK VINA RESULT:      -6.4      2.730      4.402
REMARK  Name = 
REMARK  5 active torsions:
REMARK  status: ('A' for Active; 'I' for Inactive)
REMARK    1  A    between atoms: C_2  and  C_3
REMARK    2  A    between atoms: C_3  and  O_4
REMARK    3  A    between atoms: O_4  and  C_5
REMARK    4  A    between atoms: C_8  and  O_9
REMARK    5  A    between atoms: O_9  and  C_10
REMARK                            x       y       z     vdW  Elec       q    Type
REMARK                         _______ _______ _______ _____ _____    ______ ____
ROOT
ATOM      1  C   UNL     1       6.387   4.815  14.501  0.00  0.00    +0.000 A 
ATOM      2  C   UNL     1       5.242   5.528  14.863  0.00  0.00    +0.000 A 
ATOM      3  C   UNL     1       5.004   5.831  16.203  0.00  0.00    +0.000 A 
ATOM      4  C   UNL     1       5.888   5.398  17.188  0.00  0.00    +0.000 A 
ATOM      5  C   UNL     1       7.037   4.688  16.830  0.00  0.00    +0.000 A 
ATOM      6  C   UNL     1       7.266   4.369  15.489  0.00  0.00    +0.000 A 
ENDROOT
BRANCH   1   7
ATOM      7  O   UNL     1       6.739   4.514  13.212  0.00  0.00    +0.000 OA
BRANCH   7   8
ATOM      8  C   UNL     1       6.405   3.187  12.806  0.00  0.00    +0.000 C 
BRANCH   8  10
ATOM      9  C   UNL     1       4.228   3.285  11.571  0.00  0.00    +0.000 C 
ATOM     10  C   UNL     1       5.570   3.270  11.569  0.00  0.00    +0.000 C 
ENDBRANCH   8  10
ENDBRANCH   7   8
ENDBRANCH   1   7
BRANCH   4  11
ATOM     11  O   UNL     1       5.581   5.786  18.471  0.00  0.00    +0.000 OA
BRANCH  11  12
ATOM     12  C   UNL     1       4.582   5.144  19.163  0.00  0.00    +0.000 A 
ATOM     13  C   UNL     1       4.773   3.773  19.359  0.00  0.00    +0.000 A 
ATOM     14  C   UNL     1       3.824   3.022  20.053  0.00  0.00    +0.000 A 
ATOM     15  C   UNL     1       2.683   3.648  20.552  0.00  0.00    +0.000 A 
ATOM     16 BR   UNL     1       1.376   2.629  21.462  0.00  0.00    +0.000 Br
ATOM     17  C   UNL     1       2.500   5.018  20.391  0.00  0.00    +0.000 A 
ATOM     18  C   UNL     1       3.466   5.775  19.720  0.00  0.00    +0.000 A 
ENDBRANCH  11  12
ENDBRANCH   4  11
TORSDOF 5
ENDMDL
MODEL 3
REMARK VINA RESULT:      -6.3      2.684      4.558
REMARK  Name = 
REMARK  5 active torsions:
REMARK  status: ('A' for Active; 'I' for Inactive)
REMARK    1  A    between atoms: C_2  and  C_3
REMARK    2  A    between atoms: C_3  and  O_4
REMARK    3  A    between atoms: O_4  and  C_5
REMARK    4  A    between atoms: C_8  and  O_9
REMARK    5  A    between atoms: O_9  and  C_10
REMARK                            x       y       z     vdW  Elec       q    Type
REMARK                         _______ _______ _______ _____ _____    ______ ____
ROOT
ATOM      1  C   UNL     1       6.480   5.050  14.564  0.00  0.00    +0.000 A 
ATOM      2  C   UNL     1       7.287   4.474  15.548  0.00  0.00    +0.000 A 
ATOM      3  C   UNL     1       7.014   4.704  16.896  0.00  0.00    +0.000 A 
ATOM      4  C   UNL     1       5.956   5.532  17.266  0.00  0.00    +0.000 A 
ATOM      5  C   UNL     1       5.144   6.106  16.284  0.00  0.00    +0.000 A 
ATOM      6  C   UNL     1       5.429   5.890  14.933  0.00  0.00    +0.000 A 
ENDROOT
BRANCH   1   7
ATOM      7  O   UNL     1       6.632   4.843  13.218  0.00  0.00    +0.000 OA
BRANCH   7   8
ATOM      8  C   UNL     1       6.235   3.545  12.775  0.00  0.00    +0.000 C 
BRANCH   8  10
ATOM      9  C   UNL     1       4.280   3.215  11.243  0.00  0.00    +0.000 C 
ATOM     10  C   UNL     1       4.781   3.590  12.432  0.00  0.00    +0.000 C 
ENDBRANCH   8  10
ENDBRANCH   7   8
ENDBRANCH   1   7
BRANCH   4  11
ATOM     11  O   UNL     1       5.749   5.659  18.619  0.00  0.00    +0.000 OA
BRANCH  11  12
ATOM     12  C   UNL     1       4.783   4.905  19.241  0.00  0.00    +0.000 A 
ATOM     13  C   UNL     1       3.681   5.619  19.719  0.00  0.00    +0.000 A 
ATOM     14  C   UNL     1       2.636   4.955  20.363  0.00  0.00    +0.000 A 
ATOM     15  C   UNL     1       2.698   3.572  20.526  0.00  0.00    +0.000 A 
ATOM     16 BR   UNL     1       1.304   2.670  21.430  0.00  0.00    +0.000 Br
ATOM     17  C   UNL     1       3.775   2.848  20.023  0.00  0.00    +0.000 A 
ATOM     18  C   UNL     1       4.807   3.512  19.353  0.00  0.00    +0.000 A 
ENDBRANCH  11  12
ENDBRANCH   4  11
TORSDOF 5
ENDMDL
MODEL 4
REMARK VINA RESULT:      -6.3      2.748      4.678
REMARK  Name = 
REMARK  5 active torsions:
REMARK  status: ('A' for Active; 'I' for Inactive)
REMARK    1  A    between atoms: C_2  and  C_3
REMARK    2  A    between atoms: C_3  and  O_4
REMARK    3  A    between atoms: O_4  and  C_5
REMARK    4  A    between atoms: C_8  and  O_9
REMARK    5  A    between atoms: O_9  and  C_10
REMARK                            x       y       z     vdW  Elec       q    Type
REMARK                         _______ _______ _______ _____ _____    ______ ____
ROOT
ATOM      1  C   UNL     1       6.353   4.445  14.371  0.00  0.00    +0.000 A 
ATOM      2  C   UNL     1       5.108   4.240  14.970  0.00  0.00    +0.000 A 
ATOM      3  C   UNL     1       4.897   4.630  16.292  0.00  0.00    +0.000 A 
ATOM      4  C   UNL     1       5.934   5.196  17.030  0.00  0.00    +0.000 A 
ATOM      5  C   UNL     1       7.180   5.407  16.433  0.00  0.00    +0.000 A 
ATOM      6  C   UNL     1       7.396   5.000  15.114  0.00  0.00    +0.000 A 
ENDROOT
BRANCH   1   7
ATOM      7  O   UNL     1       6.645   4.148  13.066  0.00  0.00    +0.000 OA
BRANCH   7   8
ATOM      8  C   UNL     1       5.861   3.089  12.515  0.00  0.00    +0.000 C 
BRANCH   8  10
ATOM      9  C   UNL     1       3.866   2.983  11.003  0.00  0.00    +0.000 C 
ATOM     10  C   UNL     1       4.729   3.693  11.748  0.00  0.00    +0.000 C 
ENDBRANCH   8  10
ENDBRANCH   7   8
ENDBRANCH   1   7
BRANCH   4  11
ATOM     11  O   UNL     1       5.608   5.581  18.309  0.00  0.00    +0.000 OA
BRANCH  11  12
ATOM     12  C   UNL     1       4.709   4.844  19.041  0.00  0.00    +0.000 A 
ATOM     13  C   UNL     1       3.616   5.557  19.541  0.00  0.00    +0.000 A 
ATOM     14  C   UNL     1       2.637   4.908  20.296  0.00  0.00    +0.000 A 
ATOM     15  C   UNL     1       2.757   3.543  20.547  0.00  0.00    +0.000 A 
ATOM     16 BR   UNL     1       1.453   2.664  21.598  0.00  0.00    +0.000 Br
ATOM     17  C   UNL     1       3.824   2.817  20.024  0.00  0.00    +0.000 A 
ATOM     18  C   UNL     1       4.788   3.464  19.245  0.00  0.00    +0.000 A 
ENDBRANCH  11  12
ENDBRANCH   4  11
TORSDOF 5
ENDMDL
MODEL 5
REMARK VINA RESULT:      -6.1      2.752      4.694
REMARK  Name = 
REMARK  5 active torsions:
REMARK  status: ('A' for Active; 'I' for Inactive)
REMARK    1  A    between atoms: C_2  and  C_3
REMARK    2  A    between atoms: C_3  and  O_4
REMARK    3  A    between atoms: O_4  and  C_5
REMARK    4  A    between atoms: C_8  and  O_9
REMARK    5  A    between atoms: O_9  and  C_10
REMARK                            x       y       z     vdW  Elec       q    Type
REMARK                         _______ _______ _______ _____ _____    ______ ____
ROOT
ATOM      1  C   UNL     1       6.374   4.379  14.224  0.00  0.00    +0.000 A 
ATOM      2  C   UNL     1       7.337   5.077  14.956  0.00  0.00    +0.000 A 
ATOM      3  C   UNL     1       7.150   5.299  16.320  0.00  0.00    +0.000 A 
ATOM      4  C   UNL     1       5.991   4.854  16.952  0.00  0.00    +0.000 A 
ATOM      5  C   UNL     1       5.027   4.152  16.223  0.00  0.00    +0.000 A 
ATOM      6  C   UNL     1       5.206   3.945  14.853  0.00  0.00    +0.000 A 
ENDROOT
BRANCH   1   7
ATOM      7  O   UNL     1       6.487   4.063  12.896  0.00  0.00    +0.000 OA
BRANCH   7   8
ATOM      8  C   UNL     1       6.090   2.730  12.573  0.00  0.00    +0.000 C 
BRANCH   8  10
ATOM      9  C   UNL     1       4.007   3.344  11.324  0.00  0.00    +0.000 C 
ATOM     10  C   UNL     1       5.225   2.780  11.355  0.00  0.00    +0.000 C 
ENDBRANCH   8  10
ENDBRANCH   7   8
ENDBRANCH   1   7
BRANCH   4  11
ATOM     11  O   UNL     1       5.926   5.088  18.305  0.00  0.00    +0.000 OA
BRANCH  11  12
ATOM     12  C   UNL     1       4.847   4.643  19.030  0.00  0.00    +0.000 A 
ATOM     13  C   UNL     1       4.861   3.282  19.350  0.00  0.00    +0.000 A 
ATOM     14  C   UNL     1       3.818   2.722  20.089  0.00  0.00    +0.000 A 
ATOM     15  C   UNL     1       2.761   3.529  20.506  0.00  0.00    +0.000 A 
ATOM     16 BR   UNL     1       1.326   2.769  21.476  0.00  0.00    +0.000 Br
ATOM     17  C   UNL     1       2.755   4.892  20.221  0.00  0.00    +0.000 A 
ATOM     18  C   UNL     1       3.816   5.456  19.505  0.00  0.00    +0.000 A 
ENDBRANCH  11  12
ENDBRANCH   4  11
TORSDOF 5
ENDMDL
MODEL 6
REMARK VINA RESULT:      -6.1      3.000      6.855
REMARK  Name = 
REMARK  5 active torsions:
REMARK  status: ('A' for Active; 'I' for Inactive)
REMARK    1  A    between atoms: C_2  and  C_3
REMARK    2  A    between atoms: C_3  and  O_4
REMARK    3  A    between atoms: O_4  and  C_5
REMARK    4  A    between atoms: C_8  and  O_9
REMARK    5  A    between atoms: O_9  and  C_10
REMARK                            x       y       z     vdW  Elec       q    Type
REMARK                         _______ _______ _______ _____ _____    ______ ____
ROOT
ATOM      1  C   UNL     1       2.190   3.699  17.994  0.00  0.00    +0.000 A 
ATOM      2  C   UNL     1       3.128   2.690  17.764  0.00  0.00    +0.000 A 
ATOM      3  C   UNL     1       4.425   3.020  17.374  0.00  0.00    +0.000 A 
ATOM      4  C   UNL     1       4.782   4.353  17.180  0.00  0.00    +0.000 A 
ATOM      5  C   UNL     1       3.847   5.365  17.412  0.00  0.00    +0.000 A 
ATOM      6  C   UNL     1       2.543   5.033  17.787  0.00  0.00    +0.000 A 
ENDROOT
BRANCH   1   7
ATOM      7  O   UNL     1       0.910   3.482  18.431  0.00  0.00    +0.000 OA
BRANCH   7   8
ATOM      8  C   UNL     1       0.812   2.597  19.547  0.00  0.00    +0.000 C 
BRANCH   8  10
ATOM      9  C   UNL     1       1.559   2.741  21.935  0.00  0.00    +0.000 C 
ATOM     10  C   UNL     1       1.245   3.336  20.772  0.00  0.00    +0.000 C 
ENDBRANCH   8  10
ENDBRANCH   7   8
ENDBRANCH   1   7
BRANCH   4  11
ATOM     11  O   UNL     1       6.095   4.570  16.835  0.00  0.00    +0.000 OA
BRANCH  11  12
ATOM     12  C   UNL     1       6.777   5.641  17.361  0.00  0.00    +0.000 A 
ATOM     13  C   UNL     1       6.587   6.857  16.698  0.00  0.00    +0.000 A 
ATOM     14  C   UNL     1       7.227   8.013  17.149  0.00  0.00    +0.000 A 
ATOM     15  C   UNL     1       8.056   7.946  18.267  0.00  0.00    +0.000 A 
ATOM     16 BR   UNL     1       8.955   9.500  18.862  0.00  0.00    +0.000 Br
ATOM     17  C   UNL     1       8.225   6.747  18.954  0.00  0.00    +0.000 A 
ATOM     18  C   UNL     1       7.560   5.597  18.517  0.00  0.00    +0.000 A 
ENDBRANCH  11  12
ENDBRANCH   4  11
TORSDOF 5
ENDMDL
MODEL 7
REMARK VINA RESULT:      -6.0      1.662      2.586
REMARK  Name = 
REMARK  5 active torsions:
REMARK  status: ('A' for Active; 'I' for Inactive)
REMARK    1  A    between atoms: C_2  and  C_3
REMARK    2  A    between atoms: C_3  and  O_4
REMARK    3  A    between atoms: O_4  and  C_5
REMARK    4  A    between atoms: C_8  and  O_9
REMARK    5  A    between atoms: O_9  and  C_10
REMARK                            x       y       z     vdW  Elec       q    Type
REMARK                         _______ _______ _______ _____ _____    ______ ____
ROOT
ATOM      1  C   UNL     1       7.888   8.079  17.967  0.00  0.00    +0.000 A 
ATOM      2  C   UNL     1       8.346   7.138  18.892  0.00  0.00    +0.000 A 
ATOM      3  C   UNL     1       7.823   5.846  18.890  0.00  0.00    +0.000 A 
ATOM      4  C   UNL     1       6.820   5.496  17.988  0.00  0.00    +0.000 A 
ATOM      5  C   UNL     1       6.361   6.433  17.059  0.00  0.00    +0.000 A 
ATOM      6  C   UNL     1       6.874   7.733  17.073  0.00  0.00    +0.000 A 
ENDROOT
BRANCH   1   7
ATOM      7  O   UNL     1       8.374   9.354  17.852  0.00  0.00    +0.000 OA
BRANCH   7   8
ATOM      8  C   UNL     1       9.099   9.812  18.993  0.00  0.00    +0.000 C 
BRANCH   8  10
ATOM      9  C   UNL     1      10.982  11.464  18.940  0.00  0.00    +0.000 C 
ATOM     10  C   UNL     1       9.710  11.135  18.662  0.00  0.00    +0.000 C 
ENDBRANCH   8  10
ENDBRANCH   7   8
ENDBRANCH   1   7
BRANCH   4  11
ATOM     11  O   UNL     1       6.404   4.187  18.044  0.00  0.00    +0.000 OA
BRANCH  11  12
ATOM     12  C   UNL     1       5.093   3.893  18.333  0.00  0.00    +0.000 A 
ATOM     13  C   UNL     1       4.335   3.418  17.260  0.00  0.00    +0.000 A 
ATOM     14  C   UNL     1       2.992   3.083  17.441  0.00  0.00    +0.000 A 
ATOM     15  C   UNL     1       2.412   3.224  18.700  0.00  0.00    +0.000 A 
ATOM     16 BR   UNL     1       0.584   2.806  18.943  0.00  0.00    +0.000 Br
ATOM     17  C   UNL     1       3.169   3.664  19.782  0.00  0.00    +0.000 A 
ATOM     18  C   UNL     1       4.521   3.972  19.605  0.00  0.00    +0.000 A 
ENDBRANCH  11  12
ENDBRANCH   4  11
TORSDOF 5
ENDMDL
MODEL 8
REMARK VINA RESULT:      -6.0      1.472      2.227
REMARK  Name = 
REMARK  5 active torsions:
REMARK  status: ('A' for Active; 'I' for Inactive)
REMARK    1  A    between atoms: C_2  and  C_3
REMARK    2  A    between atoms: C_3  and  O_4
REMARK    3  A    between atoms: O_4  and  C_5
REMARK    4  A    between atoms: C_8  and  O_9
REMARK    5  A    between atoms: O_9  and  C_10
REMARK                            x       y       z     vdW  Elec       q    Type
REMARK                         _______ _______ _______ _____ _____    ______ ____
ROOT
ATOM      1  C   UNL     1       8.136   7.661  18.424  0.00  0.00    +0.000 A 
ATOM      2  C   UNL     1       8.255   6.454  19.118  0.00  0.00    +0.000 A 
ATOM      3  C   UNL     1       7.504   5.347  18.723  0.00  0.00    +0.000 A 
ATOM      4  C   UNL     1       6.611   5.448  17.658  0.00  0.00    +0.000 A 
ATOM      5  C   UNL     1       6.493   6.653  16.960  0.00  0.00    +0.000 A 
ATOM      6  C   UNL     1       7.233   7.767  17.367  0.00  0.00    +0.000 A 
ENDROOT
BRANCH   1   7
ATOM      7  O   UNL     1       8.867   8.788  18.698  0.00  0.00    +0.000 OA
BRANCH   7   8
ATOM      8  C   UNL     1       8.452   9.947  17.975  0.00  0.00    +0.000 C 
BRANCH   8  10
ATOM      9  C   UNL     1      10.186  11.042  19.413  0.00  0.00    +0.000 C 
ATOM     10  C   UNL     1       9.186  11.129  18.520  0.00  0.00    +0.000 C 
ENDBRANCH   8  10
ENDBRANCH   7   8
ENDBRANCH   1   7
BRANCH   4  11
ATOM     11  O   UNL     1       5.953   4.288  17.326  0.00  0.00    +0.000 OA
BRANCH  11  12
ATOM     12  C   UNL     1       4.707   4.032  17.846  0.00  0.00    +0.000 A 
ATOM     13  C   UNL     1       4.697   3.376  19.081  0.00  0.00    +0.000 A 
ATOM     14  C   UNL     1       3.486   3.069  19.705  0.00  0.00    +0.000 A 
ATOM     15  C   UNL     1       2.287   3.422  19.089  0.00  0.00    +0.000 A 
ATOM     16 BR   UNL     1       0.643   2.978  19.913  0.00  0.00    +0.000 Br
ATOM     17  C   UNL     1       2.288   4.106  17.877  0.00  0.00    +0.000 A 
ATOM     18  C   UNL     1       3.502   4.437  17.267  0.00  0.00    +0.000 A 
ENDBRANCH  11  12
ENDBRANCH   4  11
TORSDOF 5
ENDMDL
MODEL 9
REMARK VINA RESULT:      -6.0      1.629      2.357
REMARK  Name = 
REMARK  5 active torsions:
REMARK  status: ('A' for Active; 'I' for Inactive)
REMARK    1  A    between atoms: C_2  and  C_3
REMARK    2  A    between atoms: C_3  and  O_4
REMARK    3  A    between atoms: O_4  and  C_5
REMARK    4  A    between atoms: C_8  and  O_9
REMARK    5  A    between atoms: O_9  and  C_10
REMARK                            x       y       z     vdW  Elec       q    Type
REMARK                         _______ _______ _______ _____ _____    ______ ____
ROOT
ATOM      1  C   UNL     1       7.793   8.052  17.772  0.00  0.00    +0.000 A 
ATOM      2  C   UNL     1       6.922   7.499  16.830  0.00  0.00    +0.000 A 
ATOM      3  C   UNL     1       6.519   6.170  16.949  0.00  0.00    +0.000 A 
ATOM      4  C   UNL     1       7.008   5.378  17.986  0.00  0.00    +0.000 A 
ATOM      5  C   UNL     1       7.876   5.928  18.932  0.00  0.00    +0.000 A 
ATOM      6  C   UNL     1       8.293   7.256  18.804  0.00  0.00    +0.000 A 
ENDROOT
BRANCH   1   7
ATOM      7  O   UNL     1       8.204   9.359  17.776  0.00  0.00    +0.000 OA
BRANCH   7   8
ATOM      8  C   UNL     1       9.027   9.712  18.888  0.00  0.00    +0.000 C 
BRANCH   8  10
ATOM      9  C   UNL     1      10.803  11.472  19.050  0.00  0.00    +0.000 C 
ATOM     10  C   UNL     1       9.586  11.077  18.644  0.00  0.00    +0.000 C 
ENDBRANCH   8  10
ENDBRANCH   7   8
ENDBRANCH   1   7
BRANCH   4  11
ATOM     11  O   UNL     1       6.516   4.095  18.034  0.00  0.00    +0.000 OA
BRANCH  11  12
ATOM     12  C   UNL     1       5.182   3.878  18.282  0.00  0.00    +0.000 A 
ATOM     13  C   UNL     1       4.724   4.323  19.525  0.00  0.00    +0.000 A 
ATOM     14  C   UNL     1       3.384   4.159  19.882  0.00  0.00    +0.000 A 
ATOM     15  C   UNL     1       2.505   3.549  18.988  0.00  0.00    +0.000 A 
ATOM     16 BR   UNL     1       0.697   3.292  19.479  0.00  0.00    +0.000 Br
ATOM     17  C   UNL     1       2.945   3.135  17.734  0.00  0.00    +0.000 A 
ATOM     18  C   UNL     1       4.281   3.326  17.368  0.00  0.00    +0.000 A 
ENDBRANCH  11  12
ENDBRANCH   4  11
TORSDOF 5
ENDMDL
