MODEL 1
REMARK VINA RESULT:      -7.0      0.000      0.000
REMARK  Name = 
REMARK  7 active torsions:
REMARK  status: ('A' for Active; 'I' for Inactive)
REMARK    1  A    between atoms: C_1  and  O_2
REMARK    2  A    between atoms: O_2  and  C_3
REMARK    3  A    between atoms: C_6  and  S_7
REMARK    4  A    between atoms: S_7  and  N_10
REMARK    5  A    between atoms: N_20  and  C_21
REMARK    6  A    between atoms: C_31  and  O_32
REMARK    7  A    between atoms: O_32  and  C_33
REMARK                            x       y       z     vdW  Elec       q    Type
REMARK                         _______ _______ _______ _____ _____    ______ ____
ROOT
ATOM      1  N   UNL     1       1.845  14.729  19.527  0.00  0.00    +0.000 NA
ATOM      2  C   UNL     1       0.868  15.819  19.299  0.00  0.00    +0.000 C 
ATOM      3  C   UNL     1       1.698  16.997  18.844  0.00  0.00    +0.000 C 
ATOM      4  O   UNL     1       2.982  16.777  19.423  0.00  0.00    +0.000 OA
ATOM      5  C   UNL     1       3.212  15.347  19.406  0.00  0.00    +0.000 C 
ATOM      6  C   UNL     1       4.196  15.042  20.553  0.00  0.00    +0.000 C 
ATOM      7  C   UNL     1       5.543  15.725  20.322  0.00  0.00    +0.000 C 
ATOM      8  N   UNL     1       6.096  15.279  19.048  0.00  0.00    +0.000 N 
ATOM      9  C   UNL     1       7.260  14.555  18.826  0.00  0.00    +0.000 C 
ATOM     10  O   UNL     1       7.613  14.286  17.676  0.00  0.00    +0.000 OA
ATOM     11  N   UNL     1       7.942  14.149  19.953  0.00  0.00    +0.000 N 
ATOM     12  C   UNL     1       5.239  15.587  17.898  0.00  0.00    +0.000 C 
ATOM     13  C   UNL     1       3.866  14.931  18.055  0.00  0.00    +0.000 C 
ATOM     14  F   UNL     1       3.082  15.312  17.002  0.00  0.00    +0.000 F 
ATOM     15  H   UNL     1       7.420  14.105  20.811  0.00  0.00    +0.000 HD
ENDROOT
BRANCH  11  16
ATOM     16  C   UNL     1       9.184  13.469  19.972  0.00  0.00    +0.000 A 
ATOM     17  C   UNL     1       9.303  12.089  20.162  0.00  0.00    +0.000 A 
ATOM     18  C   UNL     1      10.559  11.480  20.222  0.00  0.00    +0.000 A 
ATOM     19  C   UNL     1      11.714  12.242  20.074  0.00  0.00    +0.000 A 
ATOM     20  C   UNL     1      11.610  13.613  19.848  0.00  0.00    +0.000 A 
ATOM     21  C   UNL     1      10.351  14.222  19.787  0.00  0.00    +0.000 A 
ENDBRANCH  11  16
BRANCH   1  22
ATOM     22  S   UNL     1       1.524  13.702  20.835  0.00  0.00    +0.000 S 
ATOM     23  O   UNL     1       0.810  14.478  21.829  0.00  0.00    +0.000 OA
ATOM     24  O   UNL     1       2.737  12.993  21.163  0.00  0.00    +0.000 OA
BRANCH  22  28
ATOM     25  C   UNL     1      -1.386  10.831  18.824  0.00  0.00    +0.000 A 
ATOM     26  C   UNL     1      -1.867  11.873  19.636  0.00  0.00    +0.000 A 
ATOM     27  C   UNL     1      -0.988  12.735  20.289  0.00  0.00    +0.000 A 
ATOM     28  C   UNL     1       0.384  12.520  20.173  0.00  0.00    +0.000 A 
ATOM     29  C   UNL     1       0.872  11.420  19.472  0.00  0.00    +0.000 A 
ATOM     30  C   UNL     1      -0.004  10.572  18.782  0.00  0.00    +0.000 A 
BRANCH  25  32
ATOM     31  C   UNL     1      -2.361  10.406  16.709  0.00  0.00    +0.000 C 
ATOM     32  O   UNL     1      -2.247  10.058  18.090  0.00  0.00    +0.000 OA
ENDBRANCH  25  32
BRANCH  30  33
ATOM     33  O   UNL     1       0.672   9.585  18.120  0.00  0.00    +0.000 OA
ATOM     34  C   UNL     1       2.058   9.736  17.875  0.00  0.00    +0.000 C 
ENDBRANCH  30  33
ENDBRANCH  22  28
ENDBRANCH   1  22
TORSDOF 5
ENDMDL
MODEL 2
REMARK VINA RESULT:      -7.0      0.558      1.017
REMARK  Name = 
REMARK  7 active torsions:
REMARK  status: ('A' for Active; 'I' for Inactive)
REMARK    1  A    between atoms: C_1  and  O_2
REMARK    2  A    between atoms: O_2  and  C_3
REMARK    3  A    between atoms: C_6  and  S_7
REMARK    4  A    between atoms: S_7  and  N_10
REMARK    5  A    between atoms: N_20  and  C_21
REMARK    6  A    between atoms: C_31  and  O_32
REMARK    7  A    between atoms: O_32  and  C_33
REMARK                            x       y       z     vdW  Elec       q    Type
REMARK                         _______ _______ _______ _____ _____    ______ ____
ROOT
ATOM      1  N   UNL     1       2.036  14.716  19.527  0.00  0.00    +0.000 NA
ATOM      2  C   UNL     1       1.066  15.825  19.365  0.00  0.00    +0.000 C 
ATOM      3  C   UNL     1       1.904  17.026  18.995  0.00  0.00    +0.000 C 
ATOM      4  O   UNL     1       3.183  16.762  19.568  0.00  0.00    +0.000 OA
ATOM      5  C   UNL     1       3.407  15.335  19.458  0.00  0.00    +0.000 C 
ATOM      6  C   UNL     1       4.380  14.949  20.589  0.00  0.00    +0.000 C 
ATOM      7  C   UNL     1       5.732  15.640  20.414  0.00  0.00    +0.000 C 
ATOM      8  N   UNL     1       6.294  15.277  19.118  0.00  0.00    +0.000 N 
ATOM      9  C   UNL     1       7.456  14.563  18.857  0.00  0.00    +0.000 C 
ATOM     10  O   UNL     1       7.816  14.370  17.694  0.00  0.00    +0.000 OA
ATOM     11  N   UNL     1       8.127  14.080  19.960  0.00  0.00    +0.000 N 
ATOM     12  C   UNL     1       5.447  15.665  17.985  0.00  0.00    +0.000 C 
ATOM     13  C   UNL     1       4.070  15.007  18.087  0.00  0.00    +0.000 C 
ATOM     14  F   UNL     1       3.296  15.461  17.055  0.00  0.00    +0.000 F 
ATOM     15  H   UNL     1       7.598  13.981  20.809  0.00  0.00    +0.000 HD
ENDROOT
BRANCH  11  16
ATOM     16  C   UNL     1       9.366  13.394  19.943  0.00  0.00    +0.000 A 
ATOM     17  C   UNL     1      10.604  14.039  20.009  0.00  0.00    +0.000 A 
ATOM     18  C   UNL     1      11.795  13.312  19.937  0.00  0.00    +0.000 A 
ATOM     19  C   UNL     1      11.763  11.926  19.817  0.00  0.00    +0.000 A 
ATOM     20  C   UNL     1      10.536  11.266  19.788  0.00  0.00    +0.000 A 
ATOM     21  C   UNL     1       9.344  11.995  19.860  0.00  0.00    +0.000 A 
ENDBRANCH  11  16
BRANCH   1  22
ATOM     22  S   UNL     1       1.700  13.606  20.761  0.00  0.00    +0.000 S 
ATOM     23  O   UNL     1       0.749  14.232  21.658  0.00  0.00    +0.000 OA
ATOM     24  O   UNL     1       2.951  13.073  21.244  0.00  0.00    +0.000 OA
BRANCH  22  28
ATOM     25  C   UNL     1      -0.494  10.437  18.333  0.00  0.00    +0.000 A 
ATOM     26  C   UNL     1      -1.196  11.240  19.249  0.00  0.00    +0.000 A 
ATOM     27  C   UNL     1      -0.533  12.186  20.027  0.00  0.00    +0.000 A 
ATOM     28  C   UNL     1       0.853  12.294  19.928  0.00  0.00    +0.000 A 
ATOM     29  C   UNL     1       1.575  11.423  19.115  0.00  0.00    +0.000 A 
ATOM     30  C   UNL     1       0.911  10.495  18.303  0.00  0.00    +0.000 A 
BRANCH  25  32
ATOM     31  C   UNL     1      -2.394  10.087  16.964  0.00  0.00    +0.000 C 
ATOM     32  O   UNL     1      -1.159   9.590  17.486  0.00  0.00    +0.000 OA
ENDBRANCH  25  32
BRANCH  30  33
ATOM     33  O   UNL     1       1.791   9.769  17.549  0.00  0.00    +0.000 OA
ATOM     34  C   UNL     1       2.217   8.499  18.008  0.00  0.00    +0.000 C 
ENDBRANCH  30  33
ENDBRANCH  22  28
ENDBRANCH   1  22
TORSDOF 5
ENDMDL
MODEL 3
REMARK VINA RESULT:      -6.8      1.090      1.635
REMARK  Name = 
REMARK  7 active torsions:
REMARK  status: ('A' for Active; 'I' for Inactive)
REMARK    1  A    between atoms: C_1  and  O_2
REMARK    2  A    between atoms: O_2  and  C_3
REMARK    3  A    between atoms: C_6  and  S_7
REMARK    4  A    between atoms: S_7  and  N_10
REMARK    5  A    between atoms: N_20  and  C_21
REMARK    6  A    between atoms: C_31  and  O_32
REMARK    7  A    between atoms: O_32  and  C_33
REMARK                            x       y       z     vdW  Elec       q    Type
REMARK                         _______ _______ _______ _____ _____    ______ ____
ROOT
ATOM      1  N   UNL     1       1.904  14.829  19.744  0.00  0.00    +0.000 NA
ATOM      2  C   UNL     1       0.947  15.938  19.520  0.00  0.00    +0.000 C 
ATOM      3  C   UNL     1       1.790  17.083  19.008  0.00  0.00    +0.000 C 
ATOM      4  O   UNL     1       3.087  16.845  19.551  0.00  0.00    +0.000 OA
ATOM      5  C   UNL     1       3.281  15.409  19.564  0.00  0.00    +0.000 C 
ATOM      6  C   UNL     1       4.294  15.107  20.686  0.00  0.00    +0.000 C 
ATOM      7  C   UNL     1       5.649  15.750  20.394  0.00  0.00    +0.000 C 
ATOM      8  N   UNL     1       6.149  15.258  19.114  0.00  0.00    +0.000 N 
ATOM      9  C   UNL     1       7.287  14.499  18.874  0.00  0.00    +0.000 C 
ATOM     10  O   UNL     1       7.595  14.193  17.720  0.00  0.00    +0.000 OA
ATOM     11  N   UNL     1       7.995  14.104  19.988  0.00  0.00    +0.000 N 
ATOM     12  C   UNL     1       5.263  15.560  17.985  0.00  0.00    +0.000 C 
ATOM     13  C   UNL     1       3.879  14.943  18.202  0.00  0.00    +0.000 C 
ATOM     14  F   UNL     1       3.072  15.318  17.166  0.00  0.00    +0.000 F 
ATOM     15  H   UNL     1       7.500  14.094  20.864  0.00  0.00    +0.000 HD
ENDROOT
BRANCH  11  16
ATOM     16  C   UNL     1       9.220  13.393  19.985  0.00  0.00    +0.000 A 
ATOM     17  C   UNL     1       9.304  12.005  20.126  0.00  0.00    +0.000 A 
ATOM     18  C   UNL     1      10.544  11.363  20.166  0.00  0.00    +0.000 A 
ATOM     19  C   UNL     1      11.718  12.101  20.047  0.00  0.00    +0.000 A 
ATOM     20  C   UNL     1      11.649  13.481  19.869  0.00  0.00    +0.000 A 
ATOM     21  C   UNL     1      10.406  14.123  19.828  0.00  0.00    +0.000 A 
ENDBRANCH  11  16
BRANCH   1  22
ATOM     22  S   UNL     1       1.600  13.843  21.087  0.00  0.00    +0.000 S 
ATOM     23  O   UNL     1       1.559  14.703  22.254  0.00  0.00    +0.000 OA
ATOM     24  O   UNL     1       2.484  12.704  21.022  0.00  0.00    +0.000 OA
BRANCH  22  28
ATOM     25  C   UNL     1      -2.696  12.615  20.198  0.00  0.00    +0.000 A 
ATOM     26  C   UNL     1      -2.361  13.167  21.448  0.00  0.00    +0.000 A 
ATOM     27  C   UNL     1      -1.045  13.510  21.749  0.00  0.00    +0.000 A 
ATOM     28  C   UNL     1      -0.046  13.251  20.812  0.00  0.00    +0.000 A 
ATOM     29  C   UNL     1      -0.344  12.595  19.621  0.00  0.00    +0.000 A 
ATOM     30  C   UNL     1      -1.671  12.281  19.296  0.00  0.00    +0.000 A 
BRANCH  25  32
ATOM     31  C   UNL     1      -4.926  13.410  20.239  0.00  0.00    +0.000 C 
ATOM     32  O   UNL     1      -4.004  12.386  19.860  0.00  0.00    +0.000 OA
ENDBRANCH  25  32
BRANCH  30  33
ATOM     33  O   UNL     1      -1.758  11.684  18.068  0.00  0.00    +0.000 OA
ATOM     34  C   UNL     1      -1.351  10.336  17.920  0.00  0.00    +0.000 C 
ENDBRANCH  30  33
ENDBRANCH  22  28
ENDBRANCH   1  22
TORSDOF 5
ENDMDL
MODEL 4
REMARK VINA RESULT:      -6.8      2.506      3.496
REMARK  Name = 
REMARK  7 active torsions:
REMARK  status: ('A' for Active; 'I' for Inactive)
REMARK    1  A    between atoms: C_1  and  O_2
REMARK    2  A    between atoms: O_2  and  C_3
REMARK    3  A    between atoms: C_6  and  S_7
REMARK    4  A    between atoms: S_7  and  N_10
REMARK    5  A    between atoms: N_20  and  C_21
REMARK    6  A    between atoms: C_31  and  O_32
REMARK    7  A    between atoms: O_32  and  C_33
REMARK                            x       y       z     vdW  Elec       q    Type
REMARK                         _______ _______ _______ _____ _____    ______ ____
ROOT
ATOM      1  N   UNL     1       2.268  15.459  20.144  0.00  0.00    +0.000 NA
ATOM      2  C   UNL     1       1.275  16.428  19.625  0.00  0.00    +0.000 C 
ATOM      3  C   UNL     1       1.995  17.175  18.527  0.00  0.00    +0.000 C 
ATOM      4  O   UNL     1       3.373  17.103  18.887  0.00  0.00    +0.000 OA
ATOM      5  C   UNL     1       3.581  15.804  19.494  0.00  0.00    +0.000 C 
ATOM      6  C   UNL     1       4.789  15.945  20.442  0.00  0.00    +0.000 C 
ATOM      7  C   UNL     1       6.059  16.299  19.670  0.00  0.00    +0.000 C 
ATOM      8  N   UNL     1       6.318  15.268  18.670  0.00  0.00    +0.000 N 
ATOM      9  C   UNL     1       7.400  14.400  18.594  0.00  0.00    +0.000 C 
ATOM     10  O   UNL     1       7.491  13.605  17.658  0.00  0.00    +0.000 OA
ATOM     11  N   UNL     1       8.307  14.476  19.629  0.00  0.00    +0.000 N 
ATOM     12  C   UNL     1       5.234  15.115  17.694  0.00  0.00    +0.000 C 
ATOM     13  C   UNL     1       3.922  14.754  18.394  0.00  0.00    +0.000 C 
ATOM     14  F   UNL     1       2.931  14.701  17.454  0.00  0.00    +0.000 F 
ATOM     15  H   UNL     1       7.984  14.881  20.491  0.00  0.00    +0.000 HD
ENDROOT
BRANCH  11  16
ATOM     16  C   UNL     1       9.517  13.748  19.727  0.00  0.00    +0.000 A 
ATOM     17  C   UNL     1      10.683  14.097  19.039  0.00  0.00    +0.000 A 
ATOM     18  C   UNL     1      11.834  13.310  19.136  0.00  0.00    +0.000 A 
ATOM     19  C   UNL     1      11.839  12.172  19.938  0.00  0.00    +0.000 A 
ATOM     20  C   UNL     1      10.696  11.833  20.658  0.00  0.00    +0.000 A 
ATOM     21  C   UNL     1       9.543  12.622  20.562  0.00  0.00    +0.000 A 
ENDBRANCH  11  16
BRANCH   1  22
ATOM     22  S   UNL     1       2.231  15.175  21.813  0.00  0.00    +0.000 S 
ATOM     23  O   UNL     1       2.259  16.466  22.472  0.00  0.00    +0.000 OA
ATOM     24  O   UNL     1       3.201  14.152  22.120  0.00  0.00    +0.000 OA
BRANCH  22  28
ATOM     25  C   UNL     1      -1.772  13.242  22.812  0.00  0.00    +0.000 A 
ATOM     26  C   UNL     1      -0.911  12.645  21.873  0.00  0.00    +0.000 A 
ATOM     27  C   UNL     1       0.298  13.245  21.528  0.00  0.00    +0.000 A 
ATOM     28  C   UNL     1       0.626  14.479  22.086  0.00  0.00    +0.000 A 
ATOM     29  C   UNL     1      -0.270  15.139  22.923  0.00  0.00    +0.000 A 
ATOM     30  C   UNL     1      -1.471  14.525  23.303  0.00  0.00    +0.000 A 
BRANCH  25  32
ATOM     31  C   UNL     1      -4.054  12.761  22.405  0.00  0.00    +0.000 C 
ATOM     32  O   UNL     1      -2.903  12.597  23.237  0.00  0.00    +0.000 OA
ENDBRANCH  25  32
BRANCH  30  33
ATOM     33  O   UNL     1      -2.187  15.313  24.162  0.00  0.00    +0.000 OA
ATOM     34  C   UNL     1      -1.867  15.305  25.541  0.00  0.00    +0.000 C 
ENDBRANCH  30  33
ENDBRANCH  22  28
ENDBRANCH   1  22
TORSDOF 5
ENDMDL
MODEL 5
REMARK VINA RESULT:      -6.8      1.536      2.309
REMARK  Name = 
REMARK  7 active torsions:
REMARK  status: ('A' for Active; 'I' for Inactive)
REMARK    1  A    between atoms: C_1  and  O_2
REMARK    2  A    between atoms: O_2  and  C_3
REMARK    3  A    between atoms: C_6  and  S_7
REMARK    4  A    between atoms: S_7  and  N_10
REMARK    5  A    between atoms: N_20  and  C_21
REMARK    6  A    between atoms: C_31  and  O_32
REMARK    7  A    between atoms: O_32  and  C_33
REMARK                            x       y       z     vdW  Elec       q    Type
REMARK                         _______ _______ _______ _____ _____    ______ ____
ROOT
ATOM      1  N   UNL     1       1.617  14.711  19.387  0.00  0.00    +0.000 NA
ATOM      2  C   UNL     1       0.640  15.773  19.727  0.00  0.00    +0.000 C 
ATOM      3  C   UNL     1       1.467  17.029  19.877  0.00  0.00    +0.000 C 
ATOM      4  O   UNL     1       2.760  16.565  20.258  0.00  0.00    +0.000 OA
ATOM      5  C   UNL     1       2.984  15.319  19.554  0.00  0.00    +0.000 C 
ATOM      6  C   UNL     1       3.987  14.506  20.397  0.00  0.00    +0.000 C 
ATOM      7  C   UNL     1       5.333  15.223  20.497  0.00  0.00    +0.000 C 
ATOM      8  N   UNL     1       5.861  15.445  19.156  0.00  0.00    +0.000 N 
ATOM      9  C   UNL     1       7.018  14.921  18.593  0.00  0.00    +0.000 C 
ATOM     10  O   UNL     1       7.349  15.237  17.450  0.00  0.00    +0.000 OA
ATOM     11  N   UNL     1       7.718  14.028  19.376  0.00  0.00    +0.000 N 
ATOM     12  C   UNL     1       4.985  16.262  18.309  0.00  0.00    +0.000 C 
ATOM     13  C   UNL     1       3.612  15.604  18.157  0.00  0.00    +0.000 C 
ATOM     14  F   UNL     1       2.812  16.439  17.429  0.00  0.00    +0.000 F 
ATOM     15  H   UNL     1       7.211  13.575  20.118  0.00  0.00    +0.000 HD
ENDROOT
BRANCH  11  16
ATOM     16  C   UNL     1       8.957  13.428  19.046  0.00  0.00    +0.000 A 
ATOM     17  C   UNL     1       9.089  12.404  18.103  0.00  0.00    +0.000 A 
ATOM     18  C   UNL     1      10.331  11.815  17.855  0.00  0.00    +0.000 A 
ATOM     19  C   UNL     1      11.463  12.255  18.534  0.00  0.00    +0.000 A 
ATOM     20  C   UNL     1      11.353  13.300  19.449  0.00  0.00    +0.000 A 
ATOM     21  C   UNL     1      10.109  13.890  19.697  0.00  0.00    +0.000 A 
ENDBRANCH  11  16
BRANCH   1  22
ATOM     22  S   UNL     1       1.314  13.182  20.048  0.00  0.00    +0.000 S 
ATOM     23  O   UNL     1       1.262  13.336  21.489  0.00  0.00    +0.000 OA
ATOM     24  O   UNL     1       2.206  12.234  19.425  0.00  0.00    +0.000 OA
BRANCH  22  28
ATOM     25  C   UNL     1      -2.864  11.884  18.778  0.00  0.00    +0.000 A 
ATOM     26  C   UNL     1      -1.807  11.877  17.850  0.00  0.00    +0.000 A 
ATOM     27  C   UNL     1      -0.533  12.309  18.213  0.00  0.00    +0.000 A 
ATOM     28  C   UNL     1      -0.326  12.802  19.500  0.00  0.00    +0.000 A 
ATOM     29  C   UNL     1      -1.389  12.929  20.390  0.00  0.00    +0.000 A 
ATOM     30  C   UNL     1      -2.664  12.462  20.044  0.00  0.00    +0.000 A 
BRANCH  25  32
ATOM     31  C   UNL     1      -4.482  11.505  17.092  0.00  0.00    +0.000 C 
ATOM     32  O   UNL     1      -4.085  11.353  18.456  0.00  0.00    +0.000 OA
ENDBRANCH  25  32
BRANCH  30  33
ATOM     33  O   UNL     1      -3.555  12.634  21.067  0.00  0.00    +0.000 OA
ATOM     34  C   UNL     1      -4.517  13.670  20.984  0.00  0.00    +0.000 C 
ENDBRANCH  30  33
ENDBRANCH  22  28
ENDBRANCH   1  22
TORSDOF 5
ENDMDL
MODEL 6
REMARK VINA RESULT:      -6.8      1.819      2.685
REMARK  Name = 
REMARK  7 active torsions:
REMARK  status: ('A' for Active; 'I' for Inactive)
REMARK    1  A    between atoms: C_1  and  O_2
REMARK    2  A    between atoms: O_2  and  C_3
REMARK    3  A    between atoms: C_6  and  S_7
REMARK    4  A    between atoms: S_7  and  N_10
REMARK    5  A    between atoms: N_20  and  C_21
REMARK    6  A    between atoms: C_31  and  O_32
REMARK    7  A    between atoms: O_32  and  C_33
REMARK                            x       y       z     vdW  Elec       q    Type
REMARK                         _______ _______ _______ _____ _____    ______ ____
ROOT
ATOM      1  N   UNL     1       2.313  15.435  20.140  0.00  0.00    +0.000 NA
ATOM      2  C   UNL     1       1.322  16.409  19.626  0.00  0.00    +0.000 C 
ATOM      3  C   UNL     1       2.051  17.173  18.544  0.00  0.00    +0.000 C 
ATOM      4  O   UNL     1       3.426  17.098  18.917  0.00  0.00    +0.000 OA
ATOM      5  C   UNL     1       3.631  15.791  19.507  0.00  0.00    +0.000 C 
ATOM      6  C   UNL     1       4.830  15.922  20.468  0.00  0.00    +0.000 C 
ATOM      7  C   UNL     1       6.107  16.289  19.712  0.00  0.00    +0.000 C 
ATOM      8  N   UNL     1       6.377  15.273  18.700  0.00  0.00    +0.000 N 
ATOM      9  C   UNL     1       7.461  14.408  18.623  0.00  0.00    +0.000 C 
ATOM     10  O   UNL     1       7.562  13.626  17.676  0.00  0.00    +0.000 OA
ATOM     11  N   UNL     1       8.359  14.471  19.667  0.00  0.00    +0.000 N 
ATOM     12  C   UNL     1       5.302  15.131  17.713  0.00  0.00    +0.000 C 
ATOM     13  C   UNL     1       3.984  14.757  18.396  0.00  0.00    +0.000 C 
ATOM     14  F   UNL     1       3.002  14.715  17.446  0.00  0.00    +0.000 F 
ATOM     15  H   UNL     1       8.027  14.864  20.531  0.00  0.00    +0.000 HD
ENDROOT
BRANCH  11  16
ATOM     16  C   UNL     1       9.569  13.744  19.765  0.00  0.00    +0.000 A 
ATOM     17  C   UNL     1      10.776  14.180  19.211  0.00  0.00    +0.000 A 
ATOM     18  C   UNL     1      11.929  13.395  19.298  0.00  0.00    +0.000 A 
ATOM     19  C   UNL     1      11.893  12.169  19.956  0.00  0.00    +0.000 A 
ATOM     20  C   UNL     1      10.706  11.739  20.545  0.00  0.00    +0.000 A 
ATOM     21  C   UNL     1       9.552  12.526  20.459  0.00  0.00    +0.000 A 
ENDBRANCH  11  16
BRANCH   1  22
ATOM     22  S   UNL     1       2.261  15.128  21.805  0.00  0.00    +0.000 S 
ATOM     23  O   UNL     1       2.341  16.406  22.483  0.00  0.00    +0.000 OA
ATOM     24  O   UNL     1       3.188  14.062  22.098  0.00  0.00    +0.000 OA
BRANCH  22  28
ATOM     25  C   UNL     1      -2.033  13.653  22.173  0.00  0.00    +0.000 A 
ATOM     26  C   UNL     1      -1.609  14.785  22.891  0.00  0.00    +0.000 A 
ATOM     27  C   UNL     1      -0.289  15.225  22.820  0.00  0.00    +0.000 A 
ATOM     28  C   UNL     1       0.629  14.495  22.066  0.00  0.00    +0.000 A 
ATOM     29  C   UNL     1       0.252  13.305  21.449  0.00  0.00    +0.000 A 
ATOM     30  C   UNL     1      -1.082  12.878  21.486  0.00  0.00    +0.000 A 
BRANCH  25  32
ATOM     31  C   UNL     1      -3.838  12.659  23.339  0.00  0.00    +0.000 C 
ATOM     32  O   UNL     1      -3.354  13.289  22.151  0.00  0.00    +0.000 OA
ENDBRANCH  25  32
BRANCH  30  33
ATOM     33  O   UNL     1      -1.256  11.717  20.784  0.00  0.00    +0.000 OA
ATOM     34  C   UNL     1      -1.592  11.779  19.410  0.00  0.00    +0.000 C 
ENDBRANCH  30  33
ENDBRANCH  22  28
ENDBRANCH   1  22
TORSDOF 5
ENDMDL
MODEL 7
REMARK VINA RESULT:      -6.7      1.292      1.921
REMARK  Name = 
REMARK  7 active torsions:
REMARK  status: ('A' for Active; 'I' for Inactive)
REMARK    1  A    between atoms: C_1  and  O_2
REMARK    2  A    between atoms: O_2  and  C_3
REMARK    3  A    between atoms: C_6  and  S_7
REMARK    4  A    between atoms: S_7  and  N_10
REMARK    5  A    between atoms: N_20  and  C_21
REMARK    6  A    between atoms: C_31  and  O_32
REMARK    7  A    between atoms: O_32  and  C_33
REMARK                            x       y       z     vdW  Elec       q    Type
REMARK                         _______ _______ _______ _____ _____    ______ ____
ROOT
ATOM      1  N   UNL     1       2.104  15.057  19.587  0.00  0.00    +0.000 NA
ATOM      2  C   UNL     1       1.194  16.225  19.524  0.00  0.00    +0.000 C 
ATOM      3  C   UNL     1       2.095  17.405  19.241  0.00  0.00    +0.000 C 
ATOM      4  O   UNL     1       3.361  17.028  19.777  0.00  0.00    +0.000 OA
ATOM      5  C   UNL     1       3.506  15.604  19.552  0.00  0.00    +0.000 C 
ATOM      6  C   UNL     1       4.465  15.078  20.638  0.00  0.00    +0.000 C 
ATOM      7  C   UNL     1       5.851  15.707  20.503  0.00  0.00    +0.000 C 
ATOM      8  N   UNL     1       6.383  15.418  19.176  0.00  0.00    +0.000 N 
ATOM      9  C   UNL     1       7.503  14.666  18.846  0.00  0.00    +0.000 C 
ATOM     10  O   UNL     1       7.845  14.548  17.668  0.00  0.00    +0.000 OA
ATOM     11  N   UNL     1       8.155  14.062  19.900  0.00  0.00    +0.000 N 
ATOM     12  C   UNL     1       5.551  15.940  18.086  0.00  0.00    +0.000 C 
ATOM     13  C   UNL     1       4.141  15.351  18.151  0.00  0.00    +0.000 C 
ATOM     14  F   UNL     1       3.386  15.927  17.168  0.00  0.00    +0.000 F 
ATOM     15  H   UNL     1       7.626  13.924  20.745  0.00  0.00    +0.000 HD
ENDROOT
BRANCH  11  16
ATOM     16  C   UNL     1       9.354  13.314  19.815  0.00  0.00    +0.000 A 
ATOM     17  C   UNL     1       9.385  11.929  19.628  0.00  0.00    +0.000 A 
ATOM     18  C   UNL     1      10.599  11.237  19.603  0.00  0.00    +0.000 A 
ATOM     19  C   UNL     1      11.800  11.926  19.746  0.00  0.00    +0.000 A 
ATOM     20  C   UNL     1      11.786  13.311  19.896  0.00  0.00    +0.000 A 
ATOM     21  C   UNL     1      10.570  14.003  19.920  0.00  0.00    +0.000 A 
ENDBRANCH  11  16
BRANCH   1  22
ATOM     22  S   UNL     1       1.717  13.871  20.732  0.00  0.00    +0.000 S 
ATOM     23  O   UNL     1       0.425  14.217  21.292  0.00  0.00    +0.000 OA
ATOM     24  O   UNL     1       2.869  13.661  21.574  0.00  0.00    +0.000 OA
BRANCH  22  28
ATOM     25  C   UNL     1       1.404   9.951  18.433  0.00  0.00    +0.000 A 
ATOM     26  C   UNL     1       2.116  11.036  17.891  0.00  0.00    +0.000 A 
ATOM     27  C   UNL     1       2.187  12.254  18.563  0.00  0.00    +0.000 A 
ATOM     28  C   UNL     1       1.496  12.405  19.764  0.00  0.00    +0.000 A 
ATOM     29  C   UNL     1       0.689  11.381  20.252  0.00  0.00    +0.000 A 
ATOM     30  C   UNL     1       0.643  10.142  19.600  0.00  0.00    +0.000 A 
BRANCH  25  32
ATOM     31  C   UNL     1       2.586   7.926  18.105  0.00  0.00    +0.000 C 
ATOM     32  O   UNL     1       1.431   8.721  17.830  0.00  0.00    +0.000 OA
ENDBRANCH  25  32
BRANCH  30  33
ATOM     33  O   UNL     1      -0.166   9.258  20.260  0.00  0.00    +0.000 OA
ATOM     34  C   UNL     1       0.188   8.830  21.562  0.00  0.00    +0.000 C 
ENDBRANCH  30  33
ENDBRANCH  22  28
ENDBRANCH   1  22
TORSDOF 5
ENDMDL
MODEL 8
REMARK VINA RESULT:      -6.7      1.263      2.011
REMARK  Name = 
REMARK  7 active torsions:
REMARK  status: ('A' for Active; 'I' for Inactive)
REMARK    1  A    between atoms: C_1  and  O_2
REMARK    2  A    between atoms: O_2  and  C_3
REMARK    3  A    between atoms: C_6  and  S_7
REMARK    4  A    between atoms: S_7  and  N_10
REMARK    5  A    between atoms: N_20  and  C_21
REMARK    6  A    between atoms: C_31  and  O_32
REMARK    7  A    between atoms: O_32  and  C_33
REMARK                            x       y       z     vdW  Elec       q    Type
REMARK                         _______ _______ _______ _____ _____    ______ ____
ROOT
ATOM      1  N   UNL     1       2.120  15.040  19.752  0.00  0.00    +0.000 NA
ATOM      2  C   UNL     1       1.181  16.144  19.440  0.00  0.00    +0.000 C 
ATOM      3  C   UNL     1       2.031  17.202  18.776  0.00  0.00    +0.000 C 
ATOM      4  O   UNL     1       3.341  16.989  19.297  0.00  0.00    +0.000 OA
ATOM      5  C   UNL     1       3.502  15.559  19.461  0.00  0.00    +0.000 C 
ATOM      6  C   UNL     1       4.549  15.354  20.574  0.00  0.00    +0.000 C 
ATOM      7  C   UNL     1       5.908  15.924  20.166  0.00  0.00    +0.000 C 
ATOM      8  N   UNL     1       6.348  15.282  18.932  0.00  0.00    +0.000 N 
ATOM      9  C   UNL     1       7.458  14.470  18.738  0.00  0.00    +0.000 C 
ATOM     10  O   UNL     1       7.715  14.032  17.615  0.00  0.00    +0.000 OA
ATOM     11  N   UNL     1       8.198  14.180  19.864  0.00  0.00    +0.000 N 
ATOM     12  C   UNL     1       5.427  15.482  17.808  0.00  0.00    +0.000 C 
ATOM     13  C   UNL     1       4.039  14.931  18.140  0.00  0.00    +0.000 C 
ATOM     14  F   UNL     1       3.201  15.212  17.097  0.00  0.00    +0.000 F 
ATOM     15  H   UNL     1       7.736  14.280  20.752  0.00  0.00    +0.000 HD
ENDROOT
BRANCH  11  16
ATOM     16  C   UNL     1       9.404  13.440  19.897  0.00  0.00    +0.000 A 
ATOM     17  C   UNL     1      10.663  14.012  19.693  0.00  0.00    +0.000 A 
ATOM     18  C   UNL     1      11.816  13.221  19.687  0.00  0.00    +0.000 A 
ATOM     19  C   UNL     1      11.725  11.849  19.903  0.00  0.00    +0.000 A 
ATOM     20  C   UNL     1      10.481  11.272  20.145  0.00  0.00    +0.000 A 
ATOM     21  C   UNL     1       9.327  12.064  20.151  0.00  0.00    +0.000 A 
ENDBRANCH  11  16
BRANCH   1  22
ATOM     22  S   UNL     1       1.844  14.215  21.205  0.00  0.00    +0.000 S 
ATOM     23  O   UNL     1       1.935  15.187  22.277  0.00  0.00    +0.000 OA
ATOM     24  O   UNL     1       2.646  13.017  21.206  0.00  0.00    +0.000 OA
BRANCH  22  28
ATOM     25  C   UNL     1      -2.549  13.149  20.637  0.00  0.00    +0.000 A 
ATOM     26  C   UNL     1      -2.166  14.071  21.627  0.00  0.00    +0.000 A 
ATOM     27  C   UNL     1      -0.824  14.378  21.840  0.00  0.00    +0.000 A 
ATOM     28  C   UNL     1       0.149  13.716  21.091  0.00  0.00    +0.000 A 
ATOM     29  C   UNL     1      -0.208  12.713  20.194  0.00  0.00    +0.000 A 
ATOM     30  C   UNL     1      -1.558  12.427  19.949  0.00  0.00    +0.000 A 
BRANCH  25  32
ATOM     31  C   UNL     1      -4.703  12.630  21.472  0.00  0.00    +0.000 C 
ATOM     32  O   UNL     1      -3.871  12.934  20.350  0.00  0.00    +0.000 OA
ENDBRANCH  25  32
BRANCH  30  33
ATOM     33  O   UNL     1      -1.699  11.448  19.004  0.00  0.00    +0.000 OA
ATOM     34  C   UNL     1      -0.783  10.368  18.981  0.00  0.00    +0.000 C 
ENDBRANCH  30  33
ENDBRANCH  22  28
ENDBRANCH   1  22
TORSDOF 5
ENDMDL
MODEL 9
REMARK VINA RESULT:      -6.7      2.068      3.021
REMARK  Name = 
REMARK  7 active torsions:
REMARK  status: ('A' for Active; 'I' for Inactive)
REMARK    1  A    between atoms: C_1  and  O_2
REMARK    2  A    between atoms: O_2  and  C_3
REMARK    3  A    between atoms: C_6  and  S_7
REMARK    4  A    between atoms: S_7  and  N_10
REMARK    5  A    between atoms: N_20  and  C_21
REMARK    6  A    between atoms: C_31  and  O_32
REMARK    7  A    between atoms: O_32  and  C_33
REMARK                            x       y       z     vdW  Elec       q    Type
REMARK                         _______ _______ _______ _____ _____    ______ ____
ROOT
ATOM      1  N   UNL     1       2.321  15.244  19.999  0.00  0.00    +0.000 NA
ATOM      2  C   UNL     1       1.373  16.322  19.630  0.00  0.00    +0.000 C 
ATOM      3  C   UNL     1       2.176  17.269  18.769  0.00  0.00    +0.000 C 
ATOM      4  O   UNL     1       3.523  17.093  19.202  0.00  0.00    +0.000 OA
ATOM      5  C   UNL     1       3.679  15.691  19.531  0.00  0.00    +0.000 C 
ATOM      6  C   UNL     1       4.815  15.602  20.570  0.00  0.00    +0.000 C 
ATOM      7  C   UNL     1       6.141  16.085  19.981  0.00  0.00    +0.000 C 
ATOM      8  N   UNL     1       6.466  15.284  18.806  0.00  0.00    +0.000 N 
ATOM      9  C   UNL     1       7.545  14.429  18.624  0.00  0.00    +0.000 C 
ATOM     10  O   UNL     1       7.699  13.848  17.548  0.00  0.00    +0.000 OA
ATOM     11  N   UNL     1       8.375  14.265  19.712  0.00  0.00    +0.000 N 
ATOM     12  C   UNL     1       5.455  15.363  17.746  0.00  0.00    +0.000 C 
ATOM     13  C   UNL     1       4.093  14.890  18.260  0.00  0.00    +0.000 C 
ATOM     14  F   UNL     1       3.173  15.058  17.263  0.00  0.00    +0.000 F 
ATOM     15  H   UNL     1       7.992  14.485  20.616  0.00  0.00    +0.000 HD
ENDROOT
BRANCH  11  16
ATOM     16  C   UNL     1       9.570  13.506  19.737  0.00  0.00    +0.000 A 
ATOM     17  C   UNL     1       9.608  12.139  20.026  0.00  0.00    +0.000 A 
ATOM     18  C   UNL     1      10.825  11.454  20.086  0.00  0.00    +0.000 A 
ATOM     19  C   UNL     1      12.019  12.125  19.840  0.00  0.00    +0.000 A 
ATOM     20  C   UNL     1      11.993  13.479  19.514  0.00  0.00    +0.000 A 
ATOM     21  C   UNL     1      10.775  14.165  19.454  0.00  0.00    +0.000 A 
ENDBRANCH  11  16
BRANCH   1  22
ATOM     22  S   UNL     1       2.160  14.614  21.563  0.00  0.00    +0.000 S 
ATOM     23  O   UNL     1       2.286  15.722  22.490  0.00  0.00    +0.000 OA
ATOM     24  O   UNL     1       2.998  13.445  21.669  0.00  0.00    +0.000 OA
BRANCH  22  28
ATOM     25  C   UNL     1      -2.065  12.954  21.952  0.00  0.00    +0.000 A 
ATOM     26  C   UNL     1      -1.266  12.607  20.848  0.00  0.00    +0.000 A 
ATOM     27  C   UNL     1       0.013  13.137  20.695  0.00  0.00    +0.000 A 
ATOM     28  C   UNL     1       0.477  14.066  21.625  0.00  0.00    +0.000 A 
ATOM     29  C   UNL     1      -0.347  14.511  22.655  0.00  0.00    +0.000 A 
ATOM     30  C   UNL     1      -1.620  13.953  22.836  0.00  0.00    +0.000 A 
BRANCH  25  32
ATOM     31  C   UNL     1      -4.386  12.933  21.485  0.00  0.00    +0.000 C 
ATOM     32  O   UNL     1      -3.274  12.345  22.164  0.00  0.00    +0.000 OA
ENDBRANCH  25  32
BRANCH  30  33
ATOM     33  O   UNL     1      -2.251  14.489  23.925  0.00  0.00    +0.000 OA
ATOM     34  C   UNL     1      -1.491  15.185  24.896  0.00  0.00    +0.000 C 
ENDBRANCH  30  33
ENDBRANCH  22  28
ENDBRANCH   1  22
TORSDOF 5
ENDMDL
