MODEL 1
REMARK VINA RESULT:      -8.1      0.000      0.000
REMARK  Name = 
REMARK  2 active torsions:
REMARK  status: ('A' for Active; 'I' for Inactive)
REMARK    1  A    between atoms: N_1  and  C_2
REMARK    2  A    between atoms: C_5  and  C_6
REMARK                            x       y       z     vdW  Elec       q    Type
REMARK                         _______ _______ _______ _____ _____    ______ ____
ROOT
ATOM      1  C   UNL     1       7.264   5.230  14.431  0.00  0.00    +0.000 A 
ATOM      2  N   UNL     1       7.404   5.889  15.599  0.00  0.00    +0.000 NA
ATOM      3  C   UNL     1       6.465   5.675  16.561  0.00  0.00    +0.000 A 
ATOM      4  C   UNL     1       5.373   4.825  16.424  0.00  0.00    +0.000 A 
ATOM      5  C   UNL     1       5.249   4.173  15.190  0.00  0.00    +0.000 A 
ATOM      6  C   UNL     1       6.199   4.365  14.190  0.00  0.00    +0.000 A 
ATOM      7 BR   UNL     1       5.993   3.446  12.547  0.00  0.00    +0.000 Br
ENDROOT
BRANCH   4   8
ATOM      8  C   UNL     1       4.378   4.546  17.471  0.00  0.00    +0.000 A 
ATOM      9  N   UNL     1       3.259   3.897  17.221  0.00  0.00    +0.000 NA
ATOM     10  C   UNL     1       2.532   3.705  18.377  0.00  0.00    +0.000 A 
ATOM     11  C   UNL     1       1.305   3.021  18.466  0.00  0.00    +0.000 A 
ATOM     12  C   UNL     1       0.676   2.886  19.706  0.00  0.00    +0.000 A 
ATOM     13  C   UNL     1       1.254   3.429  20.849  0.00  0.00    +0.000 A 
ATOM     14  C   UNL     1       2.471   4.117  20.784  0.00  0.00    +0.000 A 
ATOM     15  C   UNL     1       3.098   4.242  19.533  0.00  0.00    +0.000 A 
ATOM     16  S   UNL     1       4.587   5.004  19.117  0.00  0.00    +0.000 S 
ENDBRANCH   4   8
BRANCH   1  17
ATOM     17  N   UNL     1       8.296   5.412  13.514  0.00  0.00    +0.000 N 
ATOM     18  H   UNL     1       7.885   5.642  12.615  0.00  0.00    +0.000 HD
ATOM     19  H   UNL     1       8.925   4.617  13.480  0.00  0.00    +0.000 HD
ENDBRANCH   1  17
TORSDOF 2
ENDMDL
MODEL 2
REMARK VINA RESULT:      -7.8      1.045      1.348
REMARK  Name = 
REMARK  2 active torsions:
REMARK  status: ('A' for Active; 'I' for Inactive)
REMARK    1  A    between atoms: N_1  and  C_2
REMARK    2  A    between atoms: C_5  and  C_6
REMARK                            x       y       z     vdW  Elec       q    Type
REMARK                         _______ _______ _______ _____ _____    ______ ____
ROOT
ATOM      1  C   UNL     1       7.187   5.239  14.635  0.00  0.00    +0.000 A 
ATOM      2  N   UNL     1       7.338   5.843  15.831  0.00  0.00    +0.000 NA
ATOM      3  C   UNL     1       6.419   5.571  16.797  0.00  0.00    +0.000 A 
ATOM      4  C   UNL     1       5.337   4.712  16.638  0.00  0.00    +0.000 A 
ATOM      5  C   UNL     1       5.201   4.116  15.377  0.00  0.00    +0.000 A 
ATOM      6  C   UNL     1       6.131   4.370  14.371  0.00  0.00    +0.000 A 
ATOM      7 BR   UNL     1       5.909   3.526  12.690  0.00  0.00    +0.000 Br
ENDROOT
BRANCH   4   8
ATOM      8  C   UNL     1       4.365   4.369  17.687  0.00  0.00    +0.000 A 
ATOM      9  N   UNL     1       4.632   3.488  18.631  0.00  0.00    +0.000 NA
ATOM     10  C   UNL     1       3.588   3.395  19.527  0.00  0.00    +0.000 A 
ATOM     11  C   UNL     1       3.564   2.572  20.669  0.00  0.00    +0.000 A 
ATOM     12  C   UNL     1       2.446   2.583  21.506  0.00  0.00    +0.000 A 
ATOM     13  C   UNL     1       1.356   3.397  21.212  0.00  0.00    +0.000 A 
ATOM     14  C   UNL     1       1.357   4.221  20.080  0.00  0.00    +0.000 A 
ATOM     15  C   UNL     1       2.490   4.207  19.249  0.00  0.00    +0.000 A 
ATOM     16  S   UNL     1       2.811   5.097  17.809  0.00  0.00    +0.000 S 
ENDBRANCH   4   8
BRANCH   1  17
ATOM     17  N   UNL     1       8.200   5.479  13.710  0.00  0.00    +0.000 N 
ATOM     18  H   UNL     1       8.063   6.406  13.323  0.00  0.00    +0.000 HD
ATOM     19  H   UNL     1       8.260   4.751  13.007  0.00  0.00    +0.000 HD
ENDBRANCH   1  17
TORSDOF 2
ENDMDL
MODEL 3
REMARK VINA RESULT:      -7.8      1.018      1.347
REMARK  Name = 
REMARK  2 active torsions:
REMARK  status: ('A' for Active; 'I' for Inactive)
REMARK    1  A    between atoms: N_1  and  C_2
REMARK    2  A    between atoms: C_5  and  C_6
REMARK                            x       y       z     vdW  Elec       q    Type
REMARK                         _______ _______ _______ _____ _____    ______ ____
ROOT
ATOM      1  C   UNL     1       7.239   5.219  14.359  0.00  0.00    +0.000 A 
ATOM      2  N   UNL     1       7.322   5.847  15.549  0.00  0.00    +0.000 NA
ATOM      3  C   UNL     1       6.390   5.539  16.492  0.00  0.00    +0.000 A 
ATOM      4  C   UNL     1       5.360   4.621  16.315  0.00  0.00    +0.000 A 
ATOM      5  C   UNL     1       5.293   4.003  15.059  0.00  0.00    +0.000 A 
ATOM      6  C   UNL     1       6.237   4.292  14.077  0.00  0.00    +0.000 A 
ATOM      7 BR   UNL     1       6.110   3.416  12.404  0.00  0.00    +0.000 Br
ENDROOT
BRANCH   4   8
ATOM      8  C   UNL     1       4.377   4.241  17.341  0.00  0.00    +0.000 A 
ATOM      9  N   UNL     1       3.822   5.127  18.143  0.00  0.00    +0.000 NA
ATOM     10  C   UNL     1       2.889   4.530  18.965  0.00  0.00    +0.000 A 
ATOM     11  C   UNL     1       2.093   5.196  19.916  0.00  0.00    +0.000 A 
ATOM     12  C   UNL     1       1.173   4.473  20.678  0.00  0.00    +0.000 A 
ATOM     13  C   UNL     1       1.045   3.098  20.505  0.00  0.00    +0.000 A 
ATOM     14  C   UNL     1       1.828   2.414  19.568  0.00  0.00    +0.000 A 
ATOM     15  C   UNL     1       2.746   3.153  18.803  0.00  0.00    +0.000 A 
ATOM     16  S   UNL     1       3.833   2.625  17.574  0.00  0.00    +0.000 S 
ENDBRANCH   4   8
BRANCH   1  17
ATOM     17  N   UNL     1       8.265   5.500  13.460  0.00  0.00    +0.000 N 
ATOM     18  H   UNL     1       7.877   5.491  12.522  0.00  0.00    +0.000 HD
ATOM     19  H   UNL     1       9.059   4.881  13.576  0.00  0.00    +0.000 HD
ENDBRANCH   1  17
TORSDOF 2
ENDMDL
MODEL 4
REMARK VINA RESULT:      -6.6      4.388      5.047
REMARK  Name = 
REMARK  2 active torsions:
REMARK  status: ('A' for Active; 'I' for Inactive)
REMARK    1  A    between atoms: N_1  and  C_2
REMARK    2  A    between atoms: C_5  and  C_6
REMARK                            x       y       z     vdW  Elec       q    Type
REMARK                         _______ _______ _______ _____ _____    ______ ____
ROOT
ATOM      1  C   UNL     1       4.834   4.456  16.807  0.00  0.00    +0.000 A 
ATOM      2  N   UNL     1       5.141   5.750  16.584  0.00  0.00    +0.000 NA
ATOM      3  C   UNL     1       4.365   6.695  17.182  0.00  0.00    +0.000 A 
ATOM      4  C   UNL     1       3.279   6.420  18.006  0.00  0.00    +0.000 A 
ATOM      5  C   UNL     1       2.978   5.065  18.200  0.00  0.00    +0.000 A 
ATOM      6  C   UNL     1       3.759   4.075  17.608  0.00  0.00    +0.000 A 
ATOM      7 BR   UNL     1       3.319   2.260  17.916  0.00  0.00    +0.000 Br
ENDROOT
BRANCH   4   8
ATOM      8  C   UNL     1       2.463   7.428  18.698  0.00  0.00    +0.000 A 
ATOM      9  N   UNL     1       2.115   7.303  19.963  0.00  0.00    +0.000 NA
ATOM     10  C   UNL     1       1.412   8.409  20.393  0.00  0.00    +0.000 A 
ATOM     11  C   UNL     1       0.922   8.608  21.698  0.00  0.00    +0.000 A 
ATOM     12  C   UNL     1       0.235   9.784  22.007  0.00  0.00    +0.000 A 
ATOM     13  C   UNL     1       0.027  10.753  21.030  0.00  0.00    +0.000 A 
ATOM     14  C   UNL     1       0.501  10.574  19.725  0.00  0.00    +0.000 A 
ATOM     15  C   UNL     1       1.197   9.391  19.428  0.00  0.00    +0.000 A 
ATOM     16  S   UNL     1       1.912   8.875  17.947  0.00  0.00    +0.000 S 
ENDBRANCH   4   8
BRANCH   1  17
ATOM     17  N   UNL     1       5.709   3.528  16.249  0.00  0.00    +0.000 N 
ATOM     18  H   UNL     1       6.612   3.630  16.700  0.00  0.00    +0.000 HD
ATOM     19  H   UNL     1       5.752   3.598  15.238  0.00  0.00    +0.000 HD
ENDBRANCH   1  17
TORSDOF 2
ENDMDL
MODEL 5
REMARK VINA RESULT:      -6.6      2.774      6.548
REMARK  Name = 
REMARK  2 active torsions:
REMARK  status: ('A' for Active; 'I' for Inactive)
REMARK    1  A    between atoms: N_1  and  C_2
REMARK    2  A    between atoms: C_5  and  C_6
REMARK                            x       y       z     vdW  Elec       q    Type
REMARK                         _______ _______ _______ _____ _____    ______ ____
ROOT
ATOM      1  C   UNL     1       2.974   4.505  19.865  0.00  0.00    +0.000 A 
ATOM      2  N   UNL     1       4.068   5.293  19.835  0.00  0.00    +0.000 NA
ATOM      3  C   UNL     1       4.823   5.281  18.703  0.00  0.00    +0.000 A 
ATOM      4  C   UNL     1       4.545   4.516  17.575  0.00  0.00    +0.000 A 
ATOM      5  C   UNL     1       3.412   3.695  17.650  0.00  0.00    +0.000 A 
ATOM      6  C   UNL     1       2.615   3.692  18.792  0.00  0.00    +0.000 A 
ATOM      7 BR   UNL     1       1.085   2.576  18.834  0.00  0.00    +0.000 Br
ENDROOT
BRANCH   4   8
ATOM      8  C   UNL     1       5.323   4.530  16.327  0.00  0.00    +0.000 A 
ATOM      9  N   UNL     1       4.978   3.814  15.276  0.00  0.00    +0.000 NA
ATOM     10  C   UNL     1       5.827   4.053  14.216  0.00  0.00    +0.000 A 
ATOM     11  C   UNL     1       5.719   3.475  12.937  0.00  0.00    +0.000 A 
ATOM     12  C   UNL     1       6.641   3.815  11.944  0.00  0.00    +0.000 A 
ATOM     13  C   UNL     1       7.666   4.715  12.216  0.00  0.00    +0.000 A 
ATOM     14  C   UNL     1       7.795   5.300  13.482  0.00  0.00    +0.000 A 
ATOM     15  C   UNL     1       6.858   4.956  14.471  0.00  0.00    +0.000 A 
ATOM     16  S   UNL     1       6.728   5.498  16.102  0.00  0.00    +0.000 S 
ENDBRANCH   4   8
BRANCH   1  17
ATOM     17  N   UNL     1       2.185   4.619  21.008  0.00  0.00    +0.000 N 
ATOM     18  H   UNL     1       2.646   4.122  21.763  0.00  0.00    +0.000 HD
ATOM     19  H   UNL     1       1.230   4.317  20.848  0.00  0.00    +0.000 HD
ENDBRANCH   1  17
TORSDOF 2
ENDMDL
MODEL 6
REMARK VINA RESULT:      -6.4      5.127      6.454
REMARK  Name = 
REMARK  2 active torsions:
REMARK  status: ('A' for Active; 'I' for Inactive)
REMARK    1  A    between atoms: N_1  and  C_2
REMARK    2  A    between atoms: C_5  and  C_6
REMARK                            x       y       z     vdW  Elec       q    Type
REMARK                         _______ _______ _______ _____ _____    ______ ____
ROOT
ATOM      1  C   UNL     1       4.083   3.598  19.546  0.00  0.00    +0.000 A 
ATOM      2  N   UNL     1       4.611   4.559  18.761  0.00  0.00    +0.000 NA
ATOM      3  C   UNL     1       3.984   5.767  18.732  0.00  0.00    +0.000 A 
ATOM      4  C   UNL     1       2.838   6.080  19.456  0.00  0.00    +0.000 A 
ATOM      5  C   UNL     1       2.306   5.051  20.246  0.00  0.00    +0.000 A 
ATOM      6  C   UNL     1       2.931   3.807  20.301  0.00  0.00    +0.000 A 
ATOM      7 BR   UNL     1       2.180   2.458  21.397  0.00  0.00    +0.000 Br
ENDROOT
BRANCH   4   8
ATOM      8  C   UNL     1       2.179   7.394  19.475  0.00  0.00    +0.000 A 
ATOM      9  N   UNL     1       1.591   7.870  20.554  0.00  0.00    +0.000 NA
ATOM     10  C   UNL     1       1.110   9.143  20.332  0.00  0.00    +0.000 A 
ATOM     11  C   UNL     1       0.458   9.947  21.286  0.00  0.00    +0.000 A 
ATOM     12  C   UNL     1       0.030  11.229  20.935  0.00  0.00    +0.000 A 
ATOM     13  C   UNL     1       0.239  11.710  19.646  0.00  0.00    +0.000 A 
ATOM     14  C   UNL     1       0.882  10.927  18.679  0.00  0.00    +0.000 A 
ATOM     15  C   UNL     1       1.314   9.642  19.047  0.00  0.00    +0.000 A 
ATOM     16  S   UNL     1       2.136   8.447  18.115  0.00  0.00    +0.000 S 
ENDBRANCH   4   8
BRANCH   1  17
ATOM     17  N   UNL     1       4.809   2.412  19.611  0.00  0.00    +0.000 N 
ATOM     18  H   UNL     1       4.433   1.850  20.368  0.00  0.00    +0.000 HD
ATOM     19  H   UNL     1       5.807   2.575  19.685  0.00  0.00    +0.000 HD
ENDBRANCH   1  17
TORSDOF 2
ENDMDL
MODEL 7
REMARK VINA RESULT:      -6.3      4.347      5.180
REMARK  Name = 
REMARK  2 active torsions:
REMARK  status: ('A' for Active; 'I' for Inactive)
REMARK    1  A    between atoms: N_1  and  C_2
REMARK    2  A    between atoms: C_5  and  C_6
REMARK                            x       y       z     vdW  Elec       q    Type
REMARK                         _______ _______ _______ _____ _____    ______ ____
ROOT
ATOM      1  C   UNL     1       4.808   4.410  16.999  0.00  0.00    +0.000 A 
ATOM      2  N   UNL     1       3.523   4.109  17.273  0.00  0.00    +0.000 NA
ATOM      3  C   UNL     1       2.764   5.067  17.874  0.00  0.00    +0.000 A 
ATOM      4  C   UNL     1       3.221   6.333  18.223  0.00  0.00    +0.000 A 
ATOM      5  C   UNL     1       4.567   6.604  17.941  0.00  0.00    +0.000 A 
ATOM      6  C   UNL     1       5.365   5.646  17.320  0.00  0.00    +0.000 A 
ATOM      7 BR   UNL     1       7.173   6.070  16.947  0.00  0.00    +0.000 Br
ENDROOT
BRANCH   4   8
ATOM      8  C   UNL     1       2.400   7.394  18.825  0.00  0.00    +0.000 A 
ATOM      9  N   UNL     1       2.025   7.359  20.088  0.00  0.00    +0.000 NA
ATOM     10  C   UNL     1       1.324   8.499  20.425  0.00  0.00    +0.000 A 
ATOM     11  C   UNL     1       0.809   8.792  21.702  0.00  0.00    +0.000 A 
ATOM     12  C   UNL     1       0.127   9.993  21.914  0.00  0.00    +0.000 A 
ATOM     13  C   UNL     1      -0.050  10.894  20.868  0.00  0.00    +0.000 A 
ATOM     14  C   UNL     1       0.451  10.621  19.589  0.00  0.00    +0.000 A 
ATOM     15  C   UNL     1       1.140   9.413  19.390  0.00  0.00    +0.000 A 
ATOM     16  S   UNL     1       1.881   8.790  17.964  0.00  0.00    +0.000 S 
ENDBRANCH   4   8
BRANCH   1  17
ATOM     17  N   UNL     1       5.518   3.433  16.305  0.00  0.00    +0.000 N 
ATOM     18  H   UNL     1       6.334   3.184  16.854  0.00  0.00    +0.000 HD
ATOM     19  H   UNL     1       5.737   3.717  15.357  0.00  0.00    +0.000 HD
ENDBRANCH   1  17
TORSDOF 2
ENDMDL
MODEL 8
REMARK VINA RESULT:      -6.3      5.295      6.486
REMARK  Name = 
REMARK  2 active torsions:
REMARK  status: ('A' for Active; 'I' for Inactive)
REMARK    1  A    between atoms: N_1  and  C_2
REMARK    2  A    between atoms: C_5  and  C_6
REMARK                            x       y       z     vdW  Elec       q    Type
REMARK                         _______ _______ _______ _____ _____    ______ ____
ROOT
ATOM      1  C   UNL     1       1.024  10.603  18.634  0.00  0.00    +0.000 A 
ATOM      2  N   UNL     1       1.745   9.959  17.694  0.00  0.00    +0.000 NA
ATOM      3  C   UNL     1       2.215   8.718  17.998  0.00  0.00    +0.000 A 
ATOM      4  C   UNL     1       2.002   8.068  19.209  0.00  0.00    +0.000 A 
ATOM      5  C   UNL     1       1.265   8.775  20.169  0.00  0.00    +0.000 A 
ATOM      6  C   UNL     1       0.765  10.043  19.883  0.00  0.00    +0.000 A 
ATOM      7 BR   UNL     1      -0.239  10.948  21.210  0.00  0.00    +0.000 Br
ENDROOT
BRANCH   4   8
ATOM      8  C   UNL     1       2.459   6.708  19.534  0.00  0.00    +0.000 A 
ATOM      9  N   UNL     1       1.903   5.989  20.487  0.00  0.00    +0.000 NA
ATOM     10  C   UNL     1       2.466   4.731  20.548  0.00  0.00    +0.000 A 
ATOM     11  C   UNL     1       2.080   3.706  21.433  0.00  0.00    +0.000 A 
ATOM     12  C   UNL     1       2.725   2.469  21.381  0.00  0.00    +0.000 A 
ATOM     13  C   UNL     1       3.750   2.248  20.466  0.00  0.00    +0.000 A 
ATOM     14  C   UNL     1       4.152   3.254  19.579  0.00  0.00    +0.000 A 
ATOM     15  C   UNL     1       3.492   4.493  19.636  0.00  0.00    +0.000 A 
ATOM     16  S   UNL     1       3.732   5.914  18.690  0.00  0.00    +0.000 S 
ENDBRANCH   4   8
BRANCH   1  17
ATOM     17  N   UNL     1       0.491  11.829  18.244  0.00  0.00    +0.000 N 
ATOM     18  H   UNL     1       1.253  12.492  18.153  0.00  0.00    +0.000 HD
ATOM     19  H   UNL     1      -0.248  12.142  18.864  0.00  0.00    +0.000 HD
ENDBRANCH   1  17
TORSDOF 2
ENDMDL
MODEL 9
REMARK VINA RESULT:      -6.3      4.680      5.840
REMARK  Name = 
REMARK  2 active torsions:
REMARK  status: ('A' for Active; 'I' for Inactive)
REMARK    1  A    between atoms: N_1  and  C_2
REMARK    2  A    between atoms: C_5  and  C_6
REMARK                            x       y       z     vdW  Elec       q    Type
REMARK                         _______ _______ _______ _____ _____    ______ ____
ROOT
ATOM      1  C   UNL     1       4.153   4.443  18.118  0.00  0.00    +0.000 A 
ATOM      2  N   UNL     1       3.415   4.208  19.221  0.00  0.00    +0.000 NA
ATOM      3  C   UNL     1       2.713   5.250  19.746  0.00  0.00    +0.000 A 
ATOM      4  C   UNL     1       2.702   6.538  19.223  0.00  0.00    +0.000 A 
ATOM      5  C   UNL     1       3.497   6.751  18.088  0.00  0.00    +0.000 A 
ATOM      6  C   UNL     1       4.220   5.702  17.525  0.00  0.00    +0.000 A 
ATOM      7 BR   UNL     1       5.264   6.040  15.981  0.00  0.00    +0.000 Br
ENDROOT
BRANCH   4   8
ATOM      8  C   UNL     1       1.910   7.660  19.748  0.00  0.00    +0.000 A 
ATOM      9  N   UNL     1       1.433   7.669  20.976  0.00  0.00    +0.000 NA
ATOM     10  C   UNL     1       0.786   8.857  21.246  0.00  0.00    +0.000 A 
ATOM     11  C   UNL     1       0.191   9.202  22.474  0.00  0.00    +0.000 A 
ATOM     12  C   UNL     1      -0.422  10.448  22.620  0.00  0.00    +0.000 A 
ATOM     13  C   UNL     1      -0.453  11.345  21.556  0.00  0.00    +0.000 A 
ATOM     14  C   UNL     1       0.129  11.021  20.324  0.00  0.00    +0.000 A 
ATOM     15  C   UNL     1       0.749   9.767  20.191  0.00  0.00    +0.000 A 
ATOM     16  S   UNL     1       1.558   9.076  18.835  0.00  0.00    +0.000 S 
ENDBRANCH   4   8
BRANCH   1  17
ATOM     17  N   UNL     1       4.781   3.329  17.568  0.00  0.00    +0.000 N 
ATOM     18  H   UNL     1       4.523   2.516  18.117  0.00  0.00    +0.000 HD
ATOM     19  H   UNL     1       5.783   3.456  17.479  0.00  0.00    +0.000 HD
ENDBRANCH   1  17
TORSDOF 2
ENDMDL
