MODEL 1
REMARK VINA RESULT:      -8.8      0.000      0.000
REMARK  Name = 
REMARK  7 active torsions:
REMARK  status: ('A' for Active; 'I' for Inactive)
REMARK    1  A    between atoms: C_1  and  C_2
REMARK    2  A    between atoms: C_2  and  C_3
REMARK    3  A    between atoms: C_2  and  C_4
REMARK    4  A    between atoms: N_6  and  C_7
REMARK    5  A    between atoms: C_7  and  C_8
REMARK    6  A    between atoms: C_13  and  C_14
REMARK    7  A    between atoms: C_18  and  N_19
REMARK                            x       y       z     vdW  Elec       q    Type
REMARK                         _______ _______ _______ _____ _____    ______ ____
ROOT
ATOM      1  C   UNL     1       4.844   4.293  17.419  0.00  0.00    +0.000 A 
ATOM      2  C   UNL     1       4.290   3.076  17.831  0.00  0.00    +0.000 A 
ATOM      3  C   UNL     1       3.115   3.055  18.582  0.00  0.00    +0.000 A 
ATOM      4  C   UNL     1       2.482   4.248  18.947  0.00  0.00    +0.000 A 
ATOM      5 CL   UNL     1       0.992   4.082  19.813  0.00  0.00    +0.000 Cl
ATOM      6  C   UNL     1       3.037   5.483  18.576  0.00  0.00    +0.000 A 
ATOM      7  C   UNL     1       4.216   5.491  17.805  0.00  0.00    +0.000 A 
ENDROOT
BRANCH   6   8
ATOM      8  C   UNL     1       2.439   6.808  18.920  0.00  0.00    +0.000 A 
ATOM      9  N   UNL     1       1.936   7.027  20.097  0.00  0.00    +0.000 NA
ATOM     10  C   UNL     1       1.410   8.300  20.378  0.00  0.00    +0.000 A 
ATOM     11  C   UNL     1       0.883   8.547  21.649  0.00  0.00    +0.000 A 
ATOM     12  C   UNL     1       0.376   9.819  21.962  0.00  0.00    +0.000 A 
ATOM     13  C   UNL     1       0.395  10.854  21.016  0.00  0.00    +0.000 A 
ATOM     14  C   UNL     1       0.916  10.611  19.747  0.00  0.00    +0.000 A 
ATOM     15  C   UNL     1       1.412   9.338  19.440  0.00  0.00    +0.000 A 
ATOM     16  C   UNL     1       1.960   9.045  18.110  0.00  0.00    +0.000 A 
ATOM     17  O   UNL     1       2.009   9.889  17.224  0.00  0.00    +0.000 OA
ATOM     18  N   UNL     1       2.419   7.766  17.933  0.00  0.00    +0.000 N 
ATOM     19  H   UNL     1       2.829   7.585  17.026  0.00  0.00    +0.000 HD
BRANCH  12  20
ATOM     20  N   UNL     1      -0.182  10.069  23.298  0.00  0.00    +0.000 N 
ATOM     21  O   UNL     1      -1.162  10.819  23.385  0.00  0.00    +0.000 OA
ATOM     22  O   UNL     1       0.367   9.513  24.261  0.00  0.00    +0.000 OA
ENDBRANCH  12  20
ENDBRANCH   6   8
BRANCH   1  23
ATOM     23  C   UNL     1       6.089   4.311  16.571  0.00  0.00    +0.000 C 
BRANCH  23  26
ATOM     24  C   UNL     1       6.626   4.635  14.214  0.00  0.00    +0.000 C 
ATOM     25  O   UNL     1       7.609   5.311  14.509  0.00  0.00    +0.000 OA
ATOM     26  N   UNL     1       5.801   4.090  15.174  0.00  0.00    +0.000 N 
ATOM     27  H   UNL     1       4.957   3.601  14.909  0.00  0.00    +0.000 HD
BRANCH  24  29
ATOM     28  C   UNL     1       7.422   4.062  11.901  0.00  0.00    +0.000 C 
ATOM     29  C   UNL     1       6.201   4.369  12.770  0.00  0.00    +0.000 C 
ATOM     30  C   UNL     1       5.201   3.218  12.683  0.00  0.00    +0.000 C 
ENDBRANCH  24  29
ENDBRANCH  23  26
ENDBRANCH   1  23
TORSDOF 5
ENDMDL
MODEL 2
REMARK VINA RESULT:      -8.5      1.951      2.946
REMARK  Name = 
REMARK  7 active torsions:
REMARK  status: ('A' for Active; 'I' for Inactive)
REMARK    1  A    between atoms: C_1  and  C_2
REMARK    2  A    between atoms: C_2  and  C_3
REMARK    3  A    between atoms: C_2  and  C_4
REMARK    4  A    between atoms: N_6  and  C_7
REMARK    5  A    between atoms: C_7  and  C_8
REMARK    6  A    between atoms: C_13  and  C_14
REMARK    7  A    between atoms: C_18  and  N_19
REMARK                            x       y       z     vdW  Elec       q    Type
REMARK                         _______ _______ _______ _____ _____    ______ ____
ROOT
ATOM      1  C   UNL     1       4.514   5.647  17.096  0.00  0.00    +0.000 A 
ATOM      2  C   UNL     1       4.266   4.317  17.456  0.00  0.00    +0.000 A 
ATOM      3  C   UNL     1       3.296   4.015  18.411  0.00  0.00    +0.000 A 
ATOM      4  C   UNL     1       2.569   5.035  19.035  0.00  0.00    +0.000 A 
ATOM      5 CL   UNL     1       1.345   4.523  20.146  0.00  0.00    +0.000 Cl
ATOM      6  C   UNL     1       2.824   6.378  18.717  0.00  0.00    +0.000 A 
ATOM      7  C   UNL     1       3.796   6.670  17.740  0.00  0.00    +0.000 A 
ENDROOT
BRANCH   6   8
ATOM      8  C   UNL     1       2.105   7.536  19.330  0.00  0.00    +0.000 A 
ATOM      9  N   UNL     1       1.515   8.422  18.585  0.00  0.00    +0.000 NA
ATOM     10  C   UNL     1       0.830   9.478  19.211  0.00  0.00    +0.000 A 
ATOM     11  C   UNL     1       0.178  10.424  18.417  0.00  0.00    +0.000 A 
ATOM     12  C   UNL     1      -0.536  11.473  19.020  0.00  0.00    +0.000 A 
ATOM     13  C   UNL     1      -0.611  11.583  20.415  0.00  0.00    +0.000 A 
ATOM     14  C   UNL     1       0.040  10.644  21.212  0.00  0.00    +0.000 A 
ATOM     15  C   UNL     1       0.757   9.606  20.603  0.00  0.00    +0.000 A 
ATOM     16  C   UNL     1       1.462   8.603  21.411  0.00  0.00    +0.000 A 
ATOM     17  O   UNL     1       1.453   8.629  22.635  0.00  0.00    +0.000 OA
ATOM     18  N   UNL     1       2.122   7.635  20.701  0.00  0.00    +0.000 N 
ATOM     19  H   UNL     1       2.573   6.929  21.267  0.00  0.00    +0.000 HD
BRANCH  12  20
ATOM     20  N   UNL     1      -1.214  12.468  18.177  0.00  0.00    +0.000 N 
ATOM     21  O   UNL     1      -2.250  12.123  17.595  0.00  0.00    +0.000 OA
ATOM     22  O   UNL     1      -0.704  13.595  18.098  0.00  0.00    +0.000 OA
ENDBRANCH  12  20
ENDBRANCH   6   8
BRANCH   1  23
ATOM     23  C   UNL     1       5.531   5.966  16.032  0.00  0.00    +0.000 C 
BRANCH  23  26
ATOM     24  C   UNL     1       6.651   4.727  14.253  0.00  0.00    +0.000 C 
ATOM     25  O   UNL     1       7.727   5.244  14.543  0.00  0.00    +0.000 OA
ATOM     26  N   UNL     1       5.492   5.024  14.939  0.00  0.00    +0.000 N 
ATOM     27  H   UNL     1       4.606   4.644  14.638  0.00  0.00    +0.000 HD
BRANCH  24  29
ATOM     28  C   UNL     1       4.998   3.560  12.765  0.00  0.00    +0.000 C 
ATOM     29  C   UNL     1       6.481   3.748  13.093  0.00  0.00    +0.000 C 
ATOM     30  C   UNL     1       7.230   4.218  11.848  0.00  0.00    +0.000 C 
ENDBRANCH  24  29
ENDBRANCH  23  26
ENDBRANCH   1  23
TORSDOF 5
ENDMDL
MODEL 3
REMARK VINA RESULT:      -8.4      0.770      1.159
REMARK  Name = 
REMARK  7 active torsions:
REMARK  status: ('A' for Active; 'I' for Inactive)
REMARK    1  A    between atoms: C_1  and  C_2
REMARK    2  A    between atoms: C_2  and  C_3
REMARK    3  A    between atoms: C_2  and  C_4
REMARK    4  A    between atoms: N_6  and  C_7
REMARK    5  A    between atoms: C_7  and  C_8
REMARK    6  A    between atoms: C_13  and  C_14
REMARK    7  A    between atoms: C_18  and  N_19
REMARK                            x       y       z     vdW  Elec       q    Type
REMARK                         _______ _______ _______ _____ _____    ______ ____
ROOT
ATOM      1  C   UNL     1       4.823   5.034  16.730  0.00  0.00    +0.000 A 
ATOM      2  C   UNL     1       4.514   3.797  17.307  0.00  0.00    +0.000 A 
ATOM      3  C   UNL     1       3.542   3.708  18.304  0.00  0.00    +0.000 A 
ATOM      4  C   UNL     1       2.876   4.854  18.753  0.00  0.00    +0.000 A 
ATOM      5 CL   UNL     1       1.642   4.598  19.939  0.00  0.00    +0.000 Cl
ATOM      6  C   UNL     1       3.194   6.111  18.215  0.00  0.00    +0.000 A 
ATOM      7  C   UNL     1       4.167   6.186  17.198  0.00  0.00    +0.000 A 
ENDROOT
BRANCH   6   8
ATOM      8  C   UNL     1       2.543   7.390  18.629  0.00  0.00    +0.000 A 
ATOM      9  N   UNL     1       2.008   7.514  19.806  0.00  0.00    +0.000 NA
ATOM     10  C   UNL     1       1.431   8.747  20.157  0.00  0.00    +0.000 A 
ATOM     11  C   UNL     1       0.869   8.892  21.428  0.00  0.00    +0.000 A 
ATOM     12  C   UNL     1       0.310  10.123  21.811  0.00  0.00    +0.000 A 
ATOM     13  C   UNL     1       0.314  11.218  20.935  0.00  0.00    +0.000 A 
ATOM     14  C   UNL     1       0.870  11.077  19.665  0.00  0.00    +0.000 A 
ATOM     15  C   UNL     1       1.416   9.844  19.288  0.00  0.00    +0.000 A 
ATOM     16  C   UNL     1       2.003   9.657  17.955  0.00  0.00    +0.000 A 
ATOM     17  O   UNL     1       2.042  10.559  17.128  0.00  0.00    +0.000 OA
ATOM     18  N   UNL     1       2.511   8.409  17.707  0.00  0.00    +0.000 N 
ATOM     19  H   UNL     1       2.946   8.302  16.799  0.00  0.00    +0.000 HD
BRANCH  12  20
ATOM     20  N   UNL     1      -0.284  10.266  23.147  0.00  0.00    +0.000 N 
ATOM     21  O   UNL     1      -0.062   9.374  23.977  0.00  0.00    +0.000 OA
ATOM     22  O   UNL     1      -0.976  11.272  23.361  0.00  0.00    +0.000 OA
ENDBRANCH  12  20
ENDBRANCH   6   8
BRANCH   1  23
ATOM     23  C   UNL     1       5.841   5.119  15.622  0.00  0.00    +0.000 C 
BRANCH  23  26
ATOM     24  C   UNL     1       6.411   4.114  13.474  0.00  0.00    +0.000 C 
ATOM     25  O   UNL     1       7.274   4.967  13.280  0.00  0.00    +0.000 OA
ATOM     26  N   UNL     1       5.639   4.104  14.616  0.00  0.00    +0.000 N 
ATOM     27  H   UNL     1       4.886   3.439  14.722  0.00  0.00    +0.000 HD
BRANCH  24  29
ATOM     28  C   UNL     1       4.790   3.350  11.714  0.00  0.00    +0.000 C 
ATOM     29  C   UNL     1       6.081   3.016  12.463  0.00  0.00    +0.000 C 
ATOM     30  C   UNL     1       7.219   2.812  11.466  0.00  0.00    +0.000 C 
ENDBRANCH  24  29
ENDBRANCH  23  26
ENDBRANCH   1  23
TORSDOF 5
ENDMDL
MODEL 4
REMARK VINA RESULT:      -8.4      2.087      8.757
REMARK  Name = 
REMARK  7 active torsions:
REMARK  status: ('A' for Active; 'I' for Inactive)
REMARK    1  A    between atoms: C_1  and  C_2
REMARK    2  A    between atoms: C_2  and  C_3
REMARK    3  A    between atoms: C_2  and  C_4
REMARK    4  A    between atoms: N_6  and  C_7
REMARK    5  A    between atoms: C_7  and  C_8
REMARK    6  A    between atoms: C_13  and  C_14
REMARK    7  A    between atoms: C_18  and  N_19
REMARK                            x       y       z     vdW  Elec       q    Type
REMARK                         _______ _______ _______ _____ _____    ______ ____
ROOT
ATOM      1  C   UNL     1       1.783   5.863  20.421  0.00  0.00    +0.000 A 
ATOM      2  C   UNL     1       1.122   4.664  20.708  0.00  0.00    +0.000 A 
ATOM      3  C   UNL     1       1.510   3.478  20.084  0.00  0.00    +0.000 A 
ATOM      4  C   UNL     1       2.554   3.473  19.152  0.00  0.00    +0.000 A 
ATOM      5 CL   UNL     1       2.988   1.926  18.508  0.00  0.00    +0.000 Cl
ATOM      6  C   UNL     1       3.210   4.669  18.821  0.00  0.00    +0.000 A 
ATOM      7  C   UNL     1       2.818   5.858  19.469  0.00  0.00    +0.000 A 
ENDROOT
BRANCH   6   8
ATOM      8  C   UNL     1       4.331   4.767  17.839  0.00  0.00    +0.000 A 
ATOM      9  N   UNL     1       4.231   4.233  16.659  0.00  0.00    +0.000 NA
ATOM     10  C   UNL     1       5.305   4.377  15.762  0.00  0.00    +0.000 A 
ATOM     11  C   UNL     1       5.196   3.820  14.485  0.00  0.00    +0.000 A 
ATOM     12  C   UNL     1       6.245   3.973  13.563  0.00  0.00    +0.000 A 
ATOM     13  C   UNL     1       7.403   4.686  13.902  0.00  0.00    +0.000 A 
ATOM     14  C   UNL     1       7.517   5.240  15.176  0.00  0.00    +0.000 A 
ATOM     15  C   UNL     1       6.471   5.075  16.092  0.00  0.00    +0.000 A 
ATOM     16  C   UNL     1       6.561   5.638  17.446  0.00  0.00    +0.000 A 
ATOM     17  O   UNL     1       7.539   6.269  17.826  0.00  0.00    +0.000 OA
ATOM     18  N   UNL     1       5.473   5.416  18.247  0.00  0.00    +0.000 N 
ATOM     19  H   UNL     1       5.529   5.839  19.165  0.00  0.00    +0.000 HD
BRANCH  12  20
ATOM     20  N   UNL     1       6.125   3.380  12.224  0.00  0.00    +0.000 N 
ATOM     21  O   UNL     1       7.151   3.294  11.536  0.00  0.00    +0.000 OA
ATOM     22  O   UNL     1       5.001   3.002  11.863  0.00  0.00    +0.000 OA
ENDBRANCH  12  20
ENDBRANCH   6   8
BRANCH   1  23
ATOM     23  C   UNL     1       1.389   7.133  21.129  0.00  0.00    +0.000 C 
BRANCH  23  26
ATOM     24  C   UNL     1       0.503   9.265  20.341  0.00  0.00    +0.000 C 
ATOM     25  O   UNL     1      -0.441   9.185  21.122  0.00  0.00    +0.000 OA
ATOM     26  N   UNL     1       1.473   8.287  20.267  0.00  0.00    +0.000 N 
ATOM     27  H   UNL     1       2.200   8.336  19.567  0.00  0.00    +0.000 HD
BRANCH  24  29
ATOM     28  C   UNL     1       1.163  11.674  20.080  0.00  0.00    +0.000 C 
ATOM     29  C   UNL     1       0.675  10.419  19.354  0.00  0.00    +0.000 C 
ATOM     30  C   UNL     1       1.647  10.059  18.233  0.00  0.00    +0.000 C 
ENDBRANCH  24  29
ENDBRANCH  23  26
ENDBRANCH   1  23
TORSDOF 5
ENDMDL
MODEL 5
REMARK VINA RESULT:      -8.3      2.101      8.726
REMARK  Name = 
REMARK  7 active torsions:
REMARK  status: ('A' for Active; 'I' for Inactive)
REMARK    1  A    between atoms: C_1  and  C_2
REMARK    2  A    between atoms: C_2  and  C_3
REMARK    3  A    between atoms: C_2  and  C_4
REMARK    4  A    between atoms: N_6  and  C_7
REMARK    5  A    between atoms: C_7  and  C_8
REMARK    6  A    between atoms: C_13  and  C_14
REMARK    7  A    between atoms: C_18  and  N_19
REMARK                            x       y       z     vdW  Elec       q    Type
REMARK                         _______ _______ _______ _____ _____    ______ ____
ROOT
ATOM      1  C   UNL     1       1.888   5.486  20.502  0.00  0.00    +0.000 A 
ATOM      2  C   UNL     1       1.378   4.234  20.865  0.00  0.00    +0.000 A 
ATOM      3  C   UNL     1       1.881   3.072  20.280  0.00  0.00    +0.000 A 
ATOM      4  C   UNL     1       2.889   3.141  19.311  0.00  0.00    +0.000 A 
ATOM      5 CL   UNL     1       3.476   1.624  18.720  0.00  0.00    +0.000 Cl
ATOM      6  C   UNL     1       3.391   4.387  18.904  0.00  0.00    +0.000 A 
ATOM      7  C   UNL     1       2.886   5.553  19.514  0.00  0.00    +0.000 A 
ENDROOT
BRANCH   6   8
ATOM      8  C   UNL     1       4.462   4.564  17.878  0.00  0.00    +0.000 A 
ATOM      9  N   UNL     1       4.344   4.041  16.695  0.00  0.00    +0.000 NA
ATOM     10  C   UNL     1       5.368   4.261  15.757  0.00  0.00    +0.000 A 
ATOM     11  C   UNL     1       5.239   3.715  14.477  0.00  0.00    +0.000 A 
ATOM     12  C   UNL     1       6.237   3.943  13.514  0.00  0.00    +0.000 A 
ATOM     13  C   UNL     1       7.364   4.719  13.817  0.00  0.00    +0.000 A 
ATOM     14  C   UNL     1       7.499   5.262  15.093  0.00  0.00    +0.000 A 
ATOM     15  C   UNL     1       6.505   5.023  16.049  0.00  0.00    +0.000 A 
ATOM     16  C   UNL     1       6.618   5.572  17.406  0.00  0.00    +0.000 A 
ATOM     17  O   UNL     1       7.573   6.255  17.755  0.00  0.00    +0.000 OA
ATOM     18  N   UNL     1       5.580   5.275  18.249  0.00  0.00    +0.000 N 
ATOM     19  H   UNL     1       5.650   5.689  19.170  0.00  0.00    +0.000 HD
BRANCH  12  20
ATOM     20  N   UNL     1       6.096   3.361  12.172  0.00  0.00    +0.000 N 
ATOM     21  O   UNL     1       4.956   3.081  11.780  0.00  0.00    +0.000 OA
ATOM     22  O   UNL     1       7.131   3.184  11.514  0.00  0.00    +0.000 OA
ENDBRANCH  12  20
ENDBRANCH   6   8
BRANCH   1  23
ATOM     23  C   UNL     1       1.374   6.735  21.168  0.00  0.00    +0.000 C 
BRANCH  23  26
ATOM     24  C   UNL     1       0.964   9.099  20.727  0.00  0.00    +0.000 C 
ATOM     25  O   UNL     1       0.756   9.307  21.920  0.00  0.00    +0.000 OA
ATOM     26  N   UNL     1       1.280   7.845  20.250  0.00  0.00    +0.000 N 
ATOM     27  H   UNL     1       1.374   7.681  19.258  0.00  0.00    +0.000 HD
BRANCH  24  29
ATOM     28  C   UNL     1       1.511   9.724  18.357  0.00  0.00    +0.000 C 
ATOM     29  C   UNL     1       0.853  10.186  19.659  0.00  0.00    +0.000 C 
ATOM     30  C   UNL     1      -0.601  10.569  19.396  0.00  0.00    +0.000 C 
ENDBRANCH  24  29
ENDBRANCH  23  26
ENDBRANCH   1  23
TORSDOF 5
ENDMDL
MODEL 6
REMARK VINA RESULT:      -8.2      1.133      1.340
REMARK  Name = 
REMARK  7 active torsions:
REMARK  status: ('A' for Active; 'I' for Inactive)
REMARK    1  A    between atoms: C_1  and  C_2
REMARK    2  A    between atoms: C_2  and  C_3
REMARK    3  A    between atoms: C_2  and  C_4
REMARK    4  A    between atoms: N_6  and  C_7
REMARK    5  A    between atoms: C_7  and  C_8
REMARK    6  A    between atoms: C_13  and  C_14
REMARK    7  A    between atoms: C_18  and  N_19
REMARK                            x       y       z     vdW  Elec       q    Type
REMARK                         _______ _______ _______ _____ _____    ______ ____
ROOT
ATOM      1  C   UNL     1       5.240   4.492  18.652  0.00  0.00    +0.000 A 
ATOM      2  C   UNL     1       4.712   3.304  19.168  0.00  0.00    +0.000 A 
ATOM      3  C   UNL     1       3.441   3.289  19.743  0.00  0.00    +0.000 A 
ATOM      4  C   UNL     1       2.684   4.462  19.826  0.00  0.00    +0.000 A 
ATOM      5 CL   UNL     1       1.095   4.294  20.492  0.00  0.00    +0.000 Cl
ATOM      6  C   UNL     1       3.206   5.674  19.348  0.00  0.00    +0.000 A 
ATOM      7  C   UNL     1       4.485   5.673  18.756  0.00  0.00    +0.000 A 
ENDROOT
BRANCH   6   8
ATOM      8  C   UNL     1       2.478   6.978  19.394  0.00  0.00    +0.000 A 
ATOM      9  N   UNL     1       1.862   7.358  20.472  0.00  0.00    +0.000 NA
ATOM     10  C   UNL     1       1.215   8.607  20.473  0.00  0.00    +0.000 A 
ATOM     11  C   UNL     1       0.565   9.029  21.635  0.00  0.00    +0.000 A 
ATOM     12  C   UNL     1      -0.066  10.284  21.668  0.00  0.00    +0.000 A 
ATOM     13  C   UNL     1      -0.049  11.127  20.548  0.00  0.00    +0.000 A 
ATOM     14  C   UNL     1       0.595  10.709  19.386  0.00  0.00    +0.000 A 
ATOM     15  C   UNL     1       1.213   9.453  19.358  0.00  0.00    +0.000 A 
ATOM     16  C   UNL     1       1.894   8.976  18.147  0.00  0.00    +0.000 A 
ATOM     17  O   UNL     1       1.950   9.646  17.125  0.00  0.00    +0.000 OA
ATOM     18  N   UNL     1       2.466   7.735  18.246  0.00  0.00    +0.000 N 
ATOM     19  H   UNL     1       2.964   7.431  17.419  0.00  0.00    +0.000 HD
BRANCH  12  20
ATOM     20  N   UNL     1      -0.752  10.719  22.892  0.00  0.00    +0.000 N 
ATOM     21  O   UNL     1      -0.523  10.095  23.937  0.00  0.00    +0.000 OA
ATOM     22  O   UNL     1      -1.523  11.686  22.804  0.00  0.00    +0.000 OA
ENDBRANCH  12  20
ENDBRANCH   6   8
BRANCH   1  23
ATOM     23  C   UNL     1       6.594   4.495  17.992  0.00  0.00    +0.000 C 
BRANCH  23  26
ATOM     24  C   UNL     1       6.121   4.111  15.630  0.00  0.00    +0.000 C 
ATOM     25  O   UNL     1       5.795   2.950  15.862  0.00  0.00    +0.000 OA
ATOM     26  N   UNL     1       6.537   4.965  16.629  0.00  0.00    +0.000 N 
ATOM     27  H   UNL     1       6.871   5.893  16.407  0.00  0.00    +0.000 HD
BRANCH  24  29
ATOM     28  C   UNL     1       7.549   5.176  13.859  0.00  0.00    +0.000 C 
ATOM     29  C   UNL     1       6.139   4.708  14.223  0.00  0.00    +0.000 C 
ATOM     30  C   UNL     1       5.642   3.706  13.183  0.00  0.00    +0.000 C 
ENDBRANCH  24  29
ENDBRANCH  23  26
ENDBRANCH   1  23
TORSDOF 5
ENDMDL
MODEL 7
REMARK VINA RESULT:      -8.1      2.213      9.418
REMARK  Name = 
REMARK  7 active torsions:
REMARK  status: ('A' for Active; 'I' for Inactive)
REMARK    1  A    between atoms: C_1  and  C_2
REMARK    2  A    between atoms: C_2  and  C_3
REMARK    3  A    between atoms: C_2  and  C_4
REMARK    4  A    between atoms: N_6  and  C_7
REMARK    5  A    between atoms: C_7  and  C_8
REMARK    6  A    between atoms: C_13  and  C_14
REMARK    7  A    between atoms: C_18  and  N_19
REMARK                            x       y       z     vdW  Elec       q    Type
REMARK                         _______ _______ _______ _____ _____    ______ ____
ROOT
ATOM      1  C   UNL     1       2.080   7.389  19.380  0.00  0.00    +0.000 A 
ATOM      2  C   UNL     1       1.801   6.444  20.374  0.00  0.00    +0.000 A 
ATOM      3  C   UNL     1       2.473   5.221  20.391  0.00  0.00    +0.000 A 
ATOM      4  C   UNL     1       3.421   4.916  19.407  0.00  0.00    +0.000 A 
ATOM      5 CL   UNL     1       4.235   3.399  19.585  0.00  0.00    +0.000 Cl
ATOM      6  C   UNL     1       3.691   5.833  18.380  0.00  0.00    +0.000 A 
ATOM      7  C   UNL     1       3.017   7.071  18.382  0.00  0.00    +0.000 A 
ENDROOT
BRANCH   6   8
ATOM      8  C   UNL     1       4.681   5.599  17.286  0.00  0.00    +0.000 A 
ATOM      9  N   UNL     1       4.387   4.839  16.274  0.00  0.00    +0.000 NA
ATOM     10  C   UNL     1       5.345   4.673  15.257  0.00  0.00    +0.000 A 
ATOM     11  C   UNL     1       5.028   3.871  14.157  0.00  0.00    +0.000 A 
ATOM     12  C   UNL     1       5.958   3.711  13.117  0.00  0.00    +0.000 A 
ATOM     13  C   UNL     1       7.204   4.352  13.160  0.00  0.00    +0.000 A 
ATOM     14  C   UNL     1       7.525   5.150  14.257  0.00  0.00    +0.000 A 
ATOM     15  C   UNL     1       6.596   5.296  15.294  0.00  0.00    +0.000 A 
ATOM     16  C   UNL     1       6.905   6.123  16.469  0.00  0.00    +0.000 A 
ATOM     17  O   UNL     1       7.971   6.712  16.589  0.00  0.00    +0.000 OA
ATOM     18  N   UNL     1       5.914   6.194  17.413  0.00  0.00    +0.000 N 
ATOM     19  H   UNL     1       6.122   6.795  18.199  0.00  0.00    +0.000 HD
BRANCH  12  20
ATOM     20  N   UNL     1       5.620   2.862  11.966  0.00  0.00    +0.000 N 
ATOM     21  O   UNL     1       4.485   2.967  11.483  0.00  0.00    +0.000 OA
ATOM     22  O   UNL     1       6.494   2.088  11.549  0.00  0.00    +0.000 OA
ENDBRANCH  12  20
ENDBRANCH   6   8
BRANCH   1  23
ATOM     23  C   UNL     1       1.385   8.725  19.391  0.00  0.00    +0.000 C 
BRANCH  23  26
ATOM     24  C   UNL     1       0.078  10.025  20.990  0.00  0.00    +0.000 C 
ATOM     25  O   UNL     1      -0.715  10.349  20.110  0.00  0.00    +0.000 OA
ATOM     26  N   UNL     1       1.163   9.215  20.731  0.00  0.00    +0.000 N 
ATOM     27  H   UNL     1       1.843   9.021  21.452  0.00  0.00    +0.000 HD
BRANCH  24  29
ATOM     28  C   UNL     1      -1.271  11.395  22.606  0.00  0.00    +0.000 C 
ATOM     29  C   UNL     1      -0.032  10.513  22.433  0.00  0.00    +0.000 C 
ATOM     30  C   UNL     1      -0.086   9.348  23.418  0.00  0.00    +0.000 C 
ENDBRANCH  24  29
ENDBRANCH  23  26
ENDBRANCH   1  23
TORSDOF 5
ENDMDL
MODEL 8
REMARK VINA RESULT:      -8.0      2.798      3.982
REMARK  Name = 
REMARK  7 active torsions:
REMARK  status: ('A' for Active; 'I' for Inactive)
REMARK    1  A    between atoms: C_1  and  C_2
REMARK    2  A    between atoms: C_2  and  C_3
REMARK    3  A    between atoms: C_2  and  C_4
REMARK    4  A    between atoms: N_6  and  C_7
REMARK    5  A    between atoms: C_7  and  C_8
REMARK    6  A    between atoms: C_13  and  C_14
REMARK    7  A    between atoms: C_18  and  N_19
REMARK                            x       y       z     vdW  Elec       q    Type
REMARK                         _______ _______ _______ _____ _____    ______ ____
ROOT
ATOM      1  C   UNL     1       5.627   4.445  14.540  0.00  0.00    +0.000 A 
ATOM      2  C   UNL     1       7.005   4.381  14.773  0.00  0.00    +0.000 A 
ATOM      3  C   UNL     1       7.527   4.734  16.018  0.00  0.00    +0.000 A 
ATOM      4  C   UNL     1       6.683   5.170  17.045  0.00  0.00    +0.000 A 
ATOM      5 CL   UNL     1       7.446   5.505  18.562  0.00  0.00    +0.000 Cl
ATOM      6  C   UNL     1       5.301   5.276  16.825  0.00  0.00    +0.000 A 
ATOM      7  C   UNL     1       4.784   4.903  15.568  0.00  0.00    +0.000 A 
ENDROOT
BRANCH   6   8
ATOM      8  C   UNL     1       4.320   5.734  17.855  0.00  0.00    +0.000 A 
ATOM      9  N   UNL     1       3.762   6.904  17.769  0.00  0.00    +0.000 NA
ATOM     10  C   UNL     1       2.825   7.277  18.750  0.00  0.00    +0.000 A 
ATOM     11  C   UNL     1       2.208   8.526  18.653  0.00  0.00    +0.000 A 
ATOM     12  C   UNL     1       1.250   8.910  19.606  0.00  0.00    +0.000 A 
ATOM     13  C   UNL     1       0.895   8.051  20.655  0.00  0.00    +0.000 A 
ATOM     14  C   UNL     1       1.510   6.805  20.758  0.00  0.00    +0.000 A 
ATOM     15  C   UNL     1       2.471   6.434  19.809  0.00  0.00    +0.000 A 
ATOM     16  C   UNL     1       3.146   5.132  19.891  0.00  0.00    +0.000 A 
ATOM     17  O   UNL     1       2.900   4.325  20.778  0.00  0.00    +0.000 OA
ATOM     18  N   UNL     1       4.061   4.882  18.903  0.00  0.00    +0.000 N 
ATOM     19  H   UNL     1       4.492   3.968  18.947  0.00  0.00    +0.000 HD
BRANCH  12  20
ATOM     20  N   UNL     1       0.609  10.228  19.501  0.00  0.00    +0.000 N 
ATOM     21  O   UNL     1       1.268  11.154  19.009  0.00  0.00    +0.000 OA
ATOM     22  O   UNL     1      -0.554  10.334  19.914  0.00  0.00    +0.000 OA
ENDBRANCH  12  20
ENDBRANCH   6   8
BRANCH   1  23
ATOM     23  C   UNL     1       5.064   4.020  13.209  0.00  0.00    +0.000 C 
BRANCH  23  26
ATOM     24  C   UNL     1       5.418   2.353  11.464  0.00  0.00    +0.000 C 
ATOM     25  O   UNL     1       4.269   2.504  11.057  0.00  0.00    +0.000 OA
ATOM     26  N   UNL     1       5.911   3.065  12.537  0.00  0.00    +0.000 N 
ATOM     27  H   UNL     1       6.834   2.872  12.901  0.00  0.00    +0.000 HD
BRANCH  24  29
ATOM     28  C   UNL     1       7.837   1.801  11.070  0.00  0.00    +0.000 C 
ATOM     29  C   UNL     1       6.392   1.343  10.858  0.00  0.00    +0.000 C 
ATOM     30  C   UNL     1       6.199  -0.050  11.453  0.00  0.00    +0.000 C 
ENDBRANCH  24  29
ENDBRANCH  23  26
ENDBRANCH   1  23
TORSDOF 5
ENDMDL
MODEL 9
REMARK VINA RESULT:      -8.0      4.040      9.232
REMARK  Name = 
REMARK  7 active torsions:
REMARK  status: ('A' for Active; 'I' for Inactive)
REMARK    1  A    between atoms: C_1  and  C_2
REMARK    2  A    between atoms: C_2  and  C_3
REMARK    3  A    between atoms: C_2  and  C_4
REMARK    4  A    between atoms: N_6  and  C_7
REMARK    5  A    between atoms: C_7  and  C_8
REMARK    6  A    between atoms: C_13  and  C_14
REMARK    7  A    between atoms: C_18  and  N_19
REMARK                            x       y       z     vdW  Elec       q    Type
REMARK                         _______ _______ _______ _____ _____    ______ ____
ROOT
ATOM      1  C   UNL     1      -1.946  12.185  21.066  0.00  0.00    +0.000 A 
ATOM      2  C   UNL     1      -2.090  12.145  22.458  0.00  0.00    +0.000 A 
ATOM      3  C   UNL     1      -1.365  11.224  23.214  0.00  0.00    +0.000 A 
ATOM      4  C   UNL     1      -0.497  10.318  22.593  0.00  0.00    +0.000 A 
ATOM      5 CL   UNL     1       0.399   9.281  23.649  0.00  0.00    +0.000 Cl
ATOM      6  C   UNL     1      -0.363  10.316  21.196  0.00  0.00    +0.000 A 
ATOM      7  C   UNL     1      -1.090  11.260  20.444  0.00  0.00    +0.000 A 
ENDROOT
BRANCH   6   8
ATOM      8  C   UNL     1       0.533   9.388  20.441  0.00  0.00    +0.000 A 
ATOM      9  N   UNL     1       0.817   8.210  20.908  0.00  0.00    +0.000 NA
ATOM     10  C   UNL     1       1.644   7.366  20.146  0.00  0.00    +0.000 A 
ATOM     11  C   UNL     1       1.939   6.091  20.634  0.00  0.00    +0.000 A 
ATOM     12  C   UNL     1       2.741   5.219  19.878  0.00  0.00    +0.000 A 
ATOM     13  C   UNL     1       3.247   5.608  18.630  0.00  0.00    +0.000 A 
ATOM     14  C   UNL     1       2.958   6.880  18.140  0.00  0.00    +0.000 A 
ATOM     15  C   UNL     1       2.166   7.746  18.904  0.00  0.00    +0.000 A 
ATOM     16  C   UNL     1       1.848   9.096  18.423  0.00  0.00    +0.000 A 
ATOM     17  O   UNL     1       2.254   9.517  17.348  0.00  0.00    +0.000 OA
ATOM     18  N   UNL     1       1.060   9.846  19.256  0.00  0.00    +0.000 N 
ATOM     19  H   UNL     1       0.816  10.761  18.898  0.00  0.00    +0.000 HD
BRANCH  12  20
ATOM     20  N   UNL     1       3.052   3.882  20.402  0.00  0.00    +0.000 N 
ATOM     21  O   UNL     1       3.897   3.207  19.799  0.00  0.00    +0.000 OA
ATOM     22  O   UNL     1       2.446   3.509  21.416  0.00  0.00    +0.000 OA
ENDBRANCH  12  20
ENDBRANCH   6   8
BRANCH   1  23
ATOM     23  C   UNL     1      -2.697  13.210  20.257  0.00  0.00    +0.000 C 
BRANCH  23  26
ATOM     24  C   UNL     1      -4.734  12.272  19.296  0.00  0.00    +0.000 C 
ATOM     25  O   UNL     1      -5.339  12.451  20.350  0.00  0.00    +0.000 OA
ATOM     26  N   UNL     1      -3.408  12.618  19.149  0.00  0.00    +0.000 N 
ATOM     27  H   UNL     1      -2.909  12.395  18.299  0.00  0.00    +0.000 HD
BRANCH  24  29
ATOM     28  C   UNL     1      -4.381  10.658  17.404  0.00  0.00    +0.000 C 
ATOM     29  C   UNL     1      -5.369  11.618  18.070  0.00  0.00    +0.000 C 
ATOM     30  C   UNL     1      -6.651  10.872  18.433  0.00  0.00    +0.000 C 
ENDBRANCH  24  29
ENDBRANCH  23  26
ENDBRANCH   1  23
TORSDOF 5
ENDMDL
