MODEL 1
REMARK VINA RESULT:      -8.3      0.000      0.000
REMARK  Name = 
REMARK  8 active torsions:
REMARK  status: ('A' for Active; 'I' for Inactive)
REMARK    1  A    between atoms: C_1  and  S_2
REMARK    2  A    between atoms: S_2  and  N_5
REMARK    3  A    between atoms: N_5  and  C_6
REMARK    4  A    between atoms: C_6  and  C_7
REMARK    5  A    between atoms: C_7  and  O_8
REMARK    6  A    between atoms: O_8  and  C_9
REMARK    7  A    between atoms: C_19  and  C_20
REMARK    8  A    between atoms: C_20  and  C_21
REMARK                            x       y       z     vdW  Elec       q    Type
REMARK                         _______ _______ _______ _____ _____    ______ ____
ROOT
ATOM      1  C   UNL     1       5.959   6.142  16.854  0.00  0.00    +0.000 A 
ATOM      2  C   UNL     1       4.591   6.202  17.120  0.00  0.00    +0.000 A 
ATOM      3  C   UNL     1       3.846   5.039  17.381  0.00  0.00    +0.000 A 
ATOM      4  C   UNL     1       4.468   3.785  17.265  0.00  0.00    +0.000 A 
ATOM      5  C   UNL     1       5.846   3.720  17.017  0.00  0.00    +0.000 A 
ATOM      6  C   UNL     1       6.578   4.892  16.836  0.00  0.00    +0.000 A 
ATOM      7  F   UNL     1       7.899   4.796  16.617  0.00  0.00    +0.000 F 
ATOM      8  C   UNL     1       3.646   2.521  17.297  0.00  0.00    +0.000 C 
ATOM      9  C   UNL     1       2.174   2.719  17.693  0.00  0.00    +0.000 C 
ATOM     10  N   UNL     1       1.617   4.008  17.295  0.00  0.00    +0.000 NA
ATOM     11  C   UNL     1       2.388   5.159  17.800  0.00  0.00    +0.000 C 
ATOM     12  H   UNL     1       0.643   4.088  17.580  0.00  0.00    +0.000 HD
ENDROOT
BRANCH  11  13
ATOM     13  C   UNL     1       2.220   5.430  19.345  0.00  0.00    +0.000 C 
ATOM     14  C   UNL     1       1.312   4.424  20.169  0.00  0.00    +0.000 C 
ATOM     15  C   UNL     1       2.297   4.533  21.338  0.00  0.00    +0.000 C 
ATOM     16  C   UNL     1       3.381   4.936  20.330  0.00  0.00    +0.000 C 
BRANCH  13  17
ATOM     17  C   UNL     1       1.871   7.037  19.564  0.00  0.00    +0.000 A 
ATOM     18  C   UNL     1       1.947   7.968  18.511  0.00  0.00    +0.000 A 
ATOM     19  C   UNL     1       1.592   9.311  18.672  0.00  0.00    +0.000 A 
ATOM     20  C   UNL     1       1.149   9.760  19.910  0.00  0.00    +0.000 A 
ATOM     21 CL   UNL     1       0.670  11.401  20.103  0.00  0.00    +0.000 Cl
ATOM     22  C   UNL     1       1.084   8.885  20.986  0.00  0.00    +0.000 A 
ATOM     23  C   UNL     1       1.451   7.545  20.816  0.00  0.00    +0.000 A 
ENDBRANCH  13  17
ENDBRANCH  11  13
BRANCH   1  24
ATOM     24  O   UNL     1       6.757   7.233  16.621  0.00  0.00    +0.000 OA
BRANCH  24  25
ATOM     25  C   UNL     1       7.659   7.585  17.672  0.00  0.00    +0.000 C 
BRANCH  25  26
ATOM     26  C   UNL     1       7.806   9.102  17.728  0.00  0.00    +0.000 C 
BRANCH  26  27
ATOM     27  N   UNL     1       8.904   9.464  18.655  0.00  0.00    +0.000 NA
ATOM     28  H   UNL     1       8.741   9.208  19.630  0.00  0.00    +0.000 HD
BRANCH  27  30
ATOM     29  C   UNL     1       9.330  11.555  20.314  0.00  0.00    +0.000 C 
ATOM     30  S   UNL     1       9.449  11.055  18.610  0.00  0.00    +0.000 S 
ATOM     31  O   UNL     1       8.464  11.784  17.842  0.00  0.00    +0.000 OA
ATOM     32  O   UNL     1      10.840  11.024  18.217  0.00  0.00    +0.000 OA
ENDBRANCH  27  30
ENDBRANCH  26  27
ENDBRANCH  25  26
ENDBRANCH  24  25
ENDBRANCH   1  24
TORSDOF 7
ENDMDL
MODEL 2
REMARK VINA RESULT:      -8.0      0.689      1.201
REMARK  Name = 
REMARK  8 active torsions:
REMARK  status: ('A' for Active; 'I' for Inactive)
REMARK    1  A    between atoms: C_1  and  S_2
REMARK    2  A    between atoms: S_2  and  N_5
REMARK    3  A    between atoms: N_5  and  C_6
REMARK    4  A    between atoms: C_6  and  C_7
REMARK    5  A    between atoms: C_7  and  O_8
REMARK    6  A    between atoms: O_8  and  C_9
REMARK    7  A    between atoms: C_19  and  C_20
REMARK    8  A    between atoms: C_20  and  C_21
REMARK                            x       y       z     vdW  Elec       q    Type
REMARK                         _______ _______ _______ _____ _____    ______ ____
ROOT
ATOM      1  C   UNL     1       6.037   6.087  16.901  0.00  0.00    +0.000 A 
ATOM      2  C   UNL     1       4.666   6.189  17.142  0.00  0.00    +0.000 A 
ATOM      3  C   UNL     1       3.883   5.050  17.397  0.00  0.00    +0.000 A 
ATOM      4  C   UNL     1       4.469   3.777  17.300  0.00  0.00    +0.000 A 
ATOM      5  C   UNL     1       5.849   3.670  17.078  0.00  0.00    +0.000 A 
ATOM      6  C   UNL     1       6.619   4.818  16.902  0.00  0.00    +0.000 A 
ATOM      7  F   UNL     1       7.940   4.683  16.709  0.00  0.00    +0.000 F 
ATOM      8  C   UNL     1       3.610   2.538  17.326  0.00  0.00    +0.000 C 
ATOM      9  C   UNL     1       2.138   2.782  17.694  0.00  0.00    +0.000 C 
ATOM     10  N   UNL     1       1.626   4.084  17.277  0.00  0.00    +0.000 NA
ATOM     11  C   UNL     1       2.422   5.216  17.789  0.00  0.00    +0.000 C 
ATOM     12  H   UNL     1       0.650   4.194  17.544  0.00  0.00    +0.000 HD
ENDROOT
BRANCH  11  13
ATOM     13  C   UNL     1       2.234   5.503  19.328  0.00  0.00    +0.000 C 
ATOM     14  C   UNL     1       1.364   4.471  20.163  0.00  0.00    +0.000 C 
ATOM     15  C   UNL     1       2.336   4.639  21.335  0.00  0.00    +0.000 C 
ATOM     16  C   UNL     1       3.408   5.071  20.326  0.00  0.00    +0.000 C 
BRANCH  13  17
ATOM     17  C   UNL     1       1.817   7.096  19.521  0.00  0.00    +0.000 A 
ATOM     18  C   UNL     1       1.399   7.614  20.761  0.00  0.00    +0.000 A 
ATOM     19  C   UNL     1       1.107   8.969  20.947  0.00  0.00    +0.000 A 
ATOM     20  C   UNL     1       1.227   9.850  19.878  0.00  0.00    +0.000 A 
ATOM     21 CL   UNL     1       0.911  11.524  20.111  0.00  0.00    +0.000 Cl
ATOM     22  C   UNL     1       1.608   9.381  18.629  0.00  0.00    +0.000 A 
ATOM     23  C   UNL     1       1.887   8.020  18.452  0.00  0.00    +0.000 A 
ENDBRANCH  13  17
ENDBRANCH  11  13
BRANCH   1  24
ATOM     24  O   UNL     1       6.870   7.152  16.676  0.00  0.00    +0.000 OA
BRANCH  24  25
ATOM     25  C   UNL     1       7.613   7.615  17.804  0.00  0.00    +0.000 C 
BRANCH  25  26
ATOM     26  C   UNL     1       7.871   9.112  17.663  0.00  0.00    +0.000 C 
BRANCH  26  27
ATOM     27  N   UNL     1       8.911   9.533  18.631  0.00  0.00    +0.000 NA
ATOM     28  H   UNL     1       8.772   9.192  19.583  0.00  0.00    +0.000 HD
BRANCH  27  30
ATOM     29  C   UNL     1      10.959  11.235  18.164  0.00  0.00    +0.000 C 
ATOM     30  S   UNL     1       9.264  11.177  18.705  0.00  0.00    +0.000 S 
ATOM     31  O   UNL     1       9.211  11.526  20.108  0.00  0.00    +0.000 OA
ATOM     32  O   UNL     1       8.429  11.842  17.730  0.00  0.00    +0.000 OA
ENDBRANCH  27  30
ENDBRANCH  26  27
ENDBRANCH  25  26
ENDBRANCH  24  25
ENDBRANCH   1  24
TORSDOF 7
ENDMDL
MODEL 3
REMARK VINA RESULT:      -7.5      4.635      6.764
REMARK  Name = 
REMARK  8 active torsions:
REMARK  status: ('A' for Active; 'I' for Inactive)
REMARK    1  A    between atoms: C_1  and  S_2
REMARK    2  A    between atoms: S_2  and  N_5
REMARK    3  A    between atoms: N_5  and  C_6
REMARK    4  A    between atoms: C_6  and  C_7
REMARK    5  A    between atoms: C_7  and  O_8
REMARK    6  A    between atoms: O_8  and  C_9
REMARK    7  A    between atoms: C_19  and  C_20
REMARK    8  A    between atoms: C_20  and  C_21
REMARK                            x       y       z     vdW  Elec       q    Type
REMARK                         _______ _______ _______ _____ _____    ______ ____
ROOT
ATOM      1  C   UNL     1       1.904   5.843  20.508  0.00  0.00    +0.000 A 
ATOM      2  C   UNL     1       3.206   5.456  20.193  0.00  0.00    +0.000 A 
ATOM      3  C   UNL     1       3.478   4.194  19.637  0.00  0.00    +0.000 A 
ATOM      4  C   UNL     1       2.434   3.265  19.497  0.00  0.00    +0.000 A 
ATOM      5  C   UNL     1       1.121   3.656  19.795  0.00  0.00    +0.000 A 
ATOM      6  C   UNL     1       0.867   4.939  20.274  0.00  0.00    +0.000 A 
ATOM      7  F   UNL     1      -0.403   5.288  20.533  0.00  0.00    +0.000 F 
ATOM      8  C   UNL     1       2.732   1.831  19.137  0.00  0.00    +0.000 C 
ATOM      9  C   UNL     1       4.186   1.561  18.720  0.00  0.00    +0.000 C 
ATOM     10  N   UNL     1       5.165   2.427  19.372  0.00  0.00    +0.000 NA
ATOM     11  C   UNL     1       4.892   3.863  19.181  0.00  0.00    +0.000 C 
ATOM     12  H   UNL     1       6.109   2.206  19.063  0.00  0.00    +0.000 HD
ENDROOT
BRANCH  11  13
ATOM     13  C   UNL     1       5.206   4.401  17.732  0.00  0.00    +0.000 C 
ATOM     14  C   UNL     1       5.710   3.350  16.656  0.00  0.00    +0.000 C 
ATOM     15  C   UNL     1       4.879   4.077  15.594  0.00  0.00    +0.000 C 
ATOM     16  C   UNL     1       3.982   4.605  16.721  0.00  0.00    +0.000 C 
BRANCH  13  17
ATOM     17  C   UNL     1       6.129   5.772  17.866  0.00  0.00    +0.000 A 
ATOM     18  C   UNL     1       7.315   5.803  18.623  0.00  0.00    +0.000 A 
ATOM     19  C   UNL     1       8.133   6.936  18.689  0.00  0.00    +0.000 A 
ATOM     20  C   UNL     1       7.774   8.082  17.990  0.00  0.00    +0.000 A 
ATOM     21 CL   UNL     1       8.796   9.464  18.032  0.00  0.00    +0.000 Cl
ATOM     22  C   UNL     1       6.598   8.109  17.253  0.00  0.00    +0.000 A 
ATOM     23  C   UNL     1       5.782   6.973  17.203  0.00  0.00    +0.000 A 
ENDBRANCH  13  17
ENDBRANCH  11  13
BRANCH   1  24
ATOM     24  O   UNL     1       1.557   7.066  21.024  0.00  0.00    +0.000 OA
BRANCH  24  25
ATOM     25  C   UNL     1       1.897   8.201  20.225  0.00  0.00    +0.000 C 
BRANCH  25  26
ATOM     26  C   UNL     1       0.844   9.287  20.412  0.00  0.00    +0.000 C 
BRANCH  26  27
ATOM     27  N   UNL     1       1.029   9.943  21.729  0.00  0.00    +0.000 NA
ATOM     28  H   UNL     1       1.956   9.820  22.139  0.00  0.00    +0.000 HD
BRANCH  27  30
ATOM     29  C   UNL     1      -1.146  11.071  22.870  0.00  0.00    +0.000 C 
ATOM     30  S   UNL     1      -0.121   9.617  22.912  0.00  0.00    +0.000 S 
ATOM     31  O   UNL     1       0.602   9.593  24.165  0.00  0.00    +0.000 OA
ATOM     32  O   UNL     1      -0.891   8.477  22.464  0.00  0.00    +0.000 OA
ENDBRANCH  27  30
ENDBRANCH  26  27
ENDBRANCH  25  26
ENDBRANCH  24  25
ENDBRANCH   1  24
TORSDOF 7
ENDMDL
MODEL 4
REMARK VINA RESULT:      -7.4      4.846      7.077
REMARK  Name = 
REMARK  8 active torsions:
REMARK  status: ('A' for Active; 'I' for Inactive)
REMARK    1  A    between atoms: C_1  and  S_2
REMARK    2  A    between atoms: S_2  and  N_5
REMARK    3  A    between atoms: N_5  and  C_6
REMARK    4  A    between atoms: C_6  and  C_7
REMARK    5  A    between atoms: C_7  and  O_8
REMARK    6  A    between atoms: O_8  and  C_9
REMARK    7  A    between atoms: C_19  and  C_20
REMARK    8  A    between atoms: C_20  and  C_21
REMARK                            x       y       z     vdW  Elec       q    Type
REMARK                         _______ _______ _______ _____ _____    ______ ____
ROOT
ATOM      1  C   UNL     1       2.399   7.037  19.773  0.00  0.00    +0.000 A 
ATOM      2  C   UNL     1       3.437   6.256  19.263  0.00  0.00    +0.000 A 
ATOM      3  C   UNL     1       3.578   4.904  19.622  0.00  0.00    +0.000 A 
ATOM      4  C   UNL     1       2.725   4.360  20.596  0.00  0.00    +0.000 A 
ATOM      5  C   UNL     1       1.669   5.134  21.096  0.00  0.00    +0.000 A 
ATOM      6  C   UNL     1       1.504   6.450  20.668  0.00  0.00    +0.000 A 
ATOM      7  F   UNL     1       0.473   7.159  21.153  0.00  0.00    +0.000 F 
ATOM      8  C   UNL     1       3.003   2.996  21.177  0.00  0.00    +0.000 C 
ATOM      9  C   UNL     1       4.110   2.205  20.463  0.00  0.00    +0.000 C 
ATOM     10  N   UNL     1       5.156   3.038  19.876  0.00  0.00    +0.000 NA
ATOM     11  C   UNL     1       4.639   4.053  18.940  0.00  0.00    +0.000 C 
ATOM     12  H   UNL     1       5.862   2.467  19.417  0.00  0.00    +0.000 HD
ENDROOT
BRANCH  11  13
ATOM     13  C   UNL     1       4.157   3.476  17.553  0.00  0.00    +0.000 C 
ATOM     14  C   UNL     1       3.731   1.949  17.506  0.00  0.00    +0.000 C 
ATOM     15  C   UNL     1       2.601   2.321  16.539  0.00  0.00    +0.000 C 
ATOM     16  C   UNL     1       2.643   3.745  17.108  0.00  0.00    +0.000 C 
BRANCH  13  17
ATOM     17  C   UNL     1       5.235   3.945  16.383  0.00  0.00    +0.000 A 
ATOM     18  C   UNL     1       5.056   3.614  15.027  0.00  0.00    +0.000 A 
ATOM     19  C   UNL     1       5.926   4.059  14.026  0.00  0.00    +0.000 A 
ATOM     20  C   UNL     1       7.013   4.856  14.366  0.00  0.00    +0.000 A 
ATOM     21 CL   UNL     1       8.061   5.442  13.136  0.00  0.00    +0.000 Cl
ATOM     22  C   UNL     1       7.247   5.185  15.695  0.00  0.00    +0.000 A 
ATOM     23  C   UNL     1       6.375   4.725  16.689  0.00  0.00    +0.000 A 
ENDBRANCH  13  17
ENDBRANCH  11  13
BRANCH   1  24
ATOM     24  O   UNL     1       2.179   8.350  19.446  0.00  0.00    +0.000 OA
BRANCH  24  25
ATOM     25  C   UNL     1       1.975   8.624  18.058  0.00  0.00    +0.000 C 
BRANCH  25  26
ATOM     26  C   UNL     1       1.395  10.026  17.898  0.00  0.00    +0.000 C 
BRANCH  26  27
ATOM     27  N   UNL     1      -0.053   9.935  17.593  0.00  0.00    +0.000 NA
ATOM     28  H   UNL     1      -0.316  10.275  16.667  0.00  0.00    +0.000 HD
BRANCH  27  30
ATOM     29  C   UNL     1      -0.794  12.342  18.574  0.00  0.00    +0.000 C 
ATOM     30  S   UNL     1      -1.113  10.597  18.719  0.00  0.00    +0.000 S 
ATOM     31  O   UNL     1      -0.645  10.144  20.011  0.00  0.00    +0.000 OA
ATOM     32  O   UNL     1      -2.457  10.318  18.264  0.00  0.00    +0.000 OA
ENDBRANCH  27  30
ENDBRANCH  26  27
ENDBRANCH  25  26
ENDBRANCH  24  25
ENDBRANCH   1  24
TORSDOF 7
ENDMDL
MODEL 5
REMARK VINA RESULT:      -7.3      4.729      6.786
REMARK  Name = 
REMARK  8 active torsions:
REMARK  status: ('A' for Active; 'I' for Inactive)
REMARK    1  A    between atoms: C_1  and  S_2
REMARK    2  A    between atoms: S_2  and  N_5
REMARK    3  A    between atoms: N_5  and  C_6
REMARK    4  A    between atoms: C_6  and  C_7
REMARK    5  A    between atoms: C_7  and  O_8
REMARK    6  A    between atoms: O_8  and  C_9
REMARK    7  A    between atoms: C_19  and  C_20
REMARK    8  A    between atoms: C_20  and  C_21
REMARK                            x       y       z     vdW  Elec       q    Type
REMARK                         _______ _______ _______ _____ _____    ______ ____
ROOT
ATOM      1  C   UNL     1       2.385   7.284  19.670  0.00  0.00    +0.000 A 
ATOM      2  C   UNL     1       3.392   6.399  19.284  0.00  0.00    +0.000 A 
ATOM      3  C   UNL     1       3.413   5.071  19.745  0.00  0.00    +0.000 A 
ATOM      4  C   UNL     1       2.465   4.659  20.697  0.00  0.00    +0.000 A 
ATOM      5  C   UNL     1       1.441   5.539  21.073  0.00  0.00    +0.000 A 
ATOM      6  C   UNL     1       1.397   6.827  20.544  0.00  0.00    +0.000 A 
ATOM      7  F   UNL     1       0.394   7.639  20.911  0.00  0.00    +0.000 F 
ATOM      8  C   UNL     1       2.609   3.327  21.388  0.00  0.00    +0.000 C 
ATOM      9  C   UNL     1       3.696   2.412  20.804  0.00  0.00    +0.000 C 
ATOM     10  N   UNL     1       4.834   3.126  20.230  0.00  0.00    +0.000 NA
ATOM     11  C   UNL     1       4.448   4.102  19.194  0.00  0.00    +0.000 C 
ATOM     12  H   UNL     1       5.523   2.475  19.859  0.00  0.00    +0.000 HD
ENDROOT
BRANCH  11  13
ATOM     13  C   UNL     1       4.010   3.458  17.823  0.00  0.00    +0.000 C 
ATOM     14  C   UNL     1       3.724   1.898  17.805  0.00  0.00    +0.000 C 
ATOM     15  C   UNL     1       2.558   2.148  16.843  0.00  0.00    +0.000 C 
ATOM     16  C   UNL     1       2.474   3.580  17.387  0.00  0.00    +0.000 C 
BRANCH  13  17
ATOM     17  C   UNL     1       5.031   4.002  16.634  0.00  0.00    +0.000 A 
ATOM     18  C   UNL     1       6.342   4.430  16.915  0.00  0.00    +0.000 A 
ATOM     19  C   UNL     1       7.231   4.829  15.911  0.00  0.00    +0.000 A 
ATOM     20  C   UNL     1       6.820   4.810  14.583  0.00  0.00    +0.000 A 
ATOM     21 CL   UNL     1       7.921   5.258  13.341  0.00  0.00    +0.000 Cl
ATOM     22  C   UNL     1       5.527   4.423  14.261  0.00  0.00    +0.000 A 
ATOM     23  C   UNL     1       4.643   4.036  15.274  0.00  0.00    +0.000 A 
ENDBRANCH  13  17
ENDBRANCH  11  13
BRANCH   1  24
ATOM     24  O   UNL     1       2.280   8.582  19.240  0.00  0.00    +0.000 OA
BRANCH  24  25
ATOM     25  C   UNL     1       1.785   8.763  17.912  0.00  0.00    +0.000 C 
BRANCH  25  26
ATOM     26  C   UNL     1       0.589   9.707  17.940  0.00  0.00    +0.000 C 
BRANCH  26  27
ATOM     27  N   UNL     1       1.040  11.076  18.289  0.00  0.00    +0.000 NA
ATOM     28  H   UNL     1       2.051  11.181  18.380  0.00  0.00    +0.000 HD
BRANCH  27  30
ATOM     29  C   UNL     1      -0.459  13.239  18.901  0.00  0.00    +0.000 C 
ATOM     30  S   UNL     1       0.310  11.804  19.618  0.00  0.00    +0.000 S 
ATOM     31  O   UNL     1       1.395  12.236  20.472  0.00  0.00    +0.000 OA
ATOM     32  O   UNL     1      -0.714  10.903  20.097  0.00  0.00    +0.000 OA
ENDBRANCH  27  30
ENDBRANCH  26  27
ENDBRANCH  25  26
ENDBRANCH  24  25
ENDBRANCH   1  24
TORSDOF 7
ENDMDL
MODEL 6
REMARK VINA RESULT:      -7.3      7.146     10.272
REMARK  Name = 
REMARK  8 active torsions:
REMARK  status: ('A' for Active; 'I' for Inactive)
REMARK    1  A    between atoms: C_1  and  S_2
REMARK    2  A    between atoms: S_2  and  N_5
REMARK    3  A    between atoms: N_5  and  C_6
REMARK    4  A    between atoms: C_6  and  C_7
REMARK    5  A    between atoms: C_7  and  O_8
REMARK    6  A    between atoms: O_8  and  C_9
REMARK    7  A    between atoms: C_19  and  C_20
REMARK    8  A    between atoms: C_20  and  C_21
REMARK                            x       y       z     vdW  Elec       q    Type
REMARK                         _______ _______ _______ _____ _____    ______ ____
ROOT
ATOM      1  C   UNL     1      -2.517  10.200  16.924  0.00  0.00    +0.000 A 
ATOM      2  C   UNL     1      -1.231  10.304  17.455  0.00  0.00    +0.000 A 
ATOM      3  C   UNL     1      -0.970  11.102  18.582  0.00  0.00    +0.000 A 
ATOM      4  C   UNL     1      -1.999  11.894  19.117  0.00  0.00    +0.000 A 
ATOM      5  C   UNL     1      -3.296  11.778  18.599  0.00  0.00    +0.000 A 
ATOM      6  C   UNL     1      -3.546  10.922  17.529  0.00  0.00    +0.000 A 
ATOM      7  F   UNL     1      -4.803  10.820  17.068  0.00  0.00    +0.000 F 
ATOM      8  C   UNL     1      -1.693  12.937  20.163  0.00  0.00    +0.000 C 
ATOM      9  C   UNL     1      -0.266  12.882  20.730  0.00  0.00    +0.000 C 
ATOM     10  N   UNL     1       0.736  12.404  19.781  0.00  0.00    +0.000 NA
ATOM     11  C   UNL     1       0.416  11.082  19.211  0.00  0.00    +0.000 C 
ATOM     12  H   UNL     1       1.661  12.387  20.205  0.00  0.00    +0.000 HD
ENDROOT
BRANCH  11  13
ATOM     13  C   UNL     1       0.614   9.876  20.208  0.00  0.00    +0.000 C 
ATOM     14  C   UNL     1       1.057  10.220  21.692  0.00  0.00    +0.000 C 
ATOM     15  C   UNL     1       0.138   9.103  22.198  0.00  0.00    +0.000 C 
ATOM     16  C   UNL     1      -0.684   9.256  20.911  0.00  0.00    +0.000 C 
BRANCH  13  17
ATOM     17  C   UNL     1       1.521   8.710  19.453  0.00  0.00    +0.000 A 
ATOM     18  C   UNL     1       2.019   8.881  18.148  0.00  0.00    +0.000 A 
ATOM     19  C   UNL     1       2.838   7.931  17.529  0.00  0.00    +0.000 A 
ATOM     20  C   UNL     1       3.179   6.769  18.212  0.00  0.00    +0.000 A 
ATOM     21 CL   UNL     1       4.220   5.617  17.473  0.00  0.00    +0.000 Cl
ATOM     22  C   UNL     1       2.687   6.544  19.490  0.00  0.00    +0.000 A 
ATOM     23  C   UNL     1       1.861   7.497  20.096  0.00  0.00    +0.000 A 
ENDBRANCH  13  17
ENDBRANCH  11  13
BRANCH   1  24
ATOM     24  O   UNL     1      -2.855   9.419  15.848  0.00  0.00    +0.000 OA
BRANCH  24  25
ATOM     25  C   UNL     1      -2.961  10.095  14.594  0.00  0.00    +0.000 C 
BRANCH  25  26
ATOM     26  C   UNL     1      -4.314   9.783  13.962  0.00  0.00    +0.000 C 
BRANCH  26  27
ATOM     27  N   UNL     1      -4.254  10.032  12.502  0.00  0.00    +0.000 NA
ATOM     28  H   UNL     1      -4.193  11.017  12.240  0.00  0.00    +0.000 HD
BRANCH  27  30
ATOM     29  C   UNL     1      -6.501  10.671  11.143  0.00  0.00    +0.000 C 
ATOM     30  S   UNL     1      -5.438   9.304  11.554  0.00  0.00    +0.000 S 
ATOM     31  O   UNL     1      -6.152   8.409  12.438  0.00  0.00    +0.000 OA
ATOM     32  O   UNL     1      -4.793   8.822  10.353  0.00  0.00    +0.000 OA
ENDBRANCH  27  30
ENDBRANCH  26  27
ENDBRANCH  25  26
ENDBRANCH  24  25
ENDBRANCH   1  24
TORSDOF 7
ENDMDL
MODEL 7
REMARK VINA RESULT:      -7.2      4.695      6.605
REMARK  Name = 
REMARK  8 active torsions:
REMARK  status: ('A' for Active; 'I' for Inactive)
REMARK    1  A    between atoms: C_1  and  S_2
REMARK    2  A    between atoms: S_2  and  N_5
REMARK    3  A    between atoms: N_5  and  C_6
REMARK    4  A    between atoms: C_6  and  C_7
REMARK    5  A    between atoms: C_7  and  O_8
REMARK    6  A    between atoms: O_8  and  C_9
REMARK    7  A    between atoms: C_19  and  C_20
REMARK    8  A    between atoms: C_20  and  C_21
REMARK                            x       y       z     vdW  Elec       q    Type
REMARK                         _______ _______ _______ _____ _____    ______ ____
ROOT
ATOM      1  C   UNL     1       2.373   7.056  19.792  0.00  0.00    +0.000 A 
ATOM      2  C   UNL     1       3.408   6.269  19.284  0.00  0.00    +0.000 A 
ATOM      3  C   UNL     1       3.544   4.919  19.648  0.00  0.00    +0.000 A 
ATOM      4  C   UNL     1       2.690   4.380  20.624  0.00  0.00    +0.000 A 
ATOM      5  C   UNL     1       1.637   5.160  21.123  0.00  0.00    +0.000 A 
ATOM      6  C   UNL     1       1.477   6.474  20.690  0.00  0.00    +0.000 A 
ATOM      7  F   UNL     1       0.449   7.189  21.174  0.00  0.00    +0.000 F 
ATOM      8  C   UNL     1       2.965   3.018  21.210  0.00  0.00    +0.000 C 
ATOM      9  C   UNL     1       4.068   2.221  20.498  0.00  0.00    +0.000 C 
ATOM     10  N   UNL     1       5.117   3.048  19.907  0.00  0.00    +0.000 NA
ATOM     11  C   UNL     1       4.602   4.062  18.968  0.00  0.00    +0.000 C 
ATOM     12  H   UNL     1       5.821   2.473  19.450  0.00  0.00    +0.000 HD
ENDROOT
BRANCH  11  13
ATOM     13  C   UNL     1       4.117   3.482  17.584  0.00  0.00    +0.000 C 
ATOM     14  C   UNL     1       3.687   1.955  17.541  0.00  0.00    +0.000 C 
ATOM     15  C   UNL     1       2.558   2.327  16.575  0.00  0.00    +0.000 C 
ATOM     16  C   UNL     1       2.603   3.753  17.140  0.00  0.00    +0.000 C 
BRANCH  13  17
ATOM     17  C   UNL     1       5.195   3.945  16.411  0.00  0.00    +0.000 A 
ATOM     18  C   UNL     1       4.943   3.738  15.042  0.00  0.00    +0.000 A 
ATOM     19  C   UNL     1       5.816   4.182  14.044  0.00  0.00    +0.000 A 
ATOM     20  C   UNL     1       6.981   4.852  14.400  0.00  0.00    +0.000 A 
ATOM     21 CL   UNL     1       8.037   5.439  13.177  0.00  0.00    +0.000 Cl
ATOM     22  C   UNL     1       7.286   5.054  15.739  0.00  0.00    +0.000 A 
ATOM     23  C   UNL     1       6.410   4.595  16.730  0.00  0.00    +0.000 A 
ENDBRANCH  13  17
ENDBRANCH  11  13
BRANCH   1  24
ATOM     24  O   UNL     1       2.157   8.369  19.461  0.00  0.00    +0.000 OA
BRANCH  24  25
ATOM     25  C   UNL     1       1.955   8.639  18.073  0.00  0.00    +0.000 C 
BRANCH  25  26
ATOM     26  C   UNL     1       1.037   9.848  17.919  0.00  0.00    +0.000 C 
BRANCH  26  27
ATOM     27  N   UNL     1       1.808  11.093  18.152  0.00  0.00    +0.000 NA
ATOM     28  H   UNL     1       2.761  10.948  18.487  0.00  0.00    +0.000 HD
BRANCH  27  30
ATOM     29  C   UNL     1      -0.594  11.689  19.239  0.00  0.00    +0.000 C 
ATOM     30  S   UNL     1       1.083  12.271  19.109  0.00  0.00    +0.000 S 
ATOM     31  O   UNL     1       1.095  13.481  18.316  0.00  0.00    +0.000 OA
ATOM     32  O   UNL     1       1.710  12.216  20.411  0.00  0.00    +0.000 OA
ENDBRANCH  27  30
ENDBRANCH  26  27
ENDBRANCH  25  26
ENDBRANCH  24  25
ENDBRANCH   1  24
TORSDOF 7
ENDMDL
MODEL 8
REMARK VINA RESULT:      -7.1      4.588      6.623
REMARK  Name = 
REMARK  8 active torsions:
REMARK  status: ('A' for Active; 'I' for Inactive)
REMARK    1  A    between atoms: C_1  and  S_2
REMARK    2  A    between atoms: S_2  and  N_5
REMARK    3  A    between atoms: N_5  and  C_6
REMARK    4  A    between atoms: C_6  and  C_7
REMARK    5  A    between atoms: C_7  and  O_8
REMARK    6  A    between atoms: O_8  and  C_9
REMARK    7  A    between atoms: C_19  and  C_20
REMARK    8  A    between atoms: C_20  and  C_21
REMARK                            x       y       z     vdW  Elec       q    Type
REMARK                         _______ _______ _______ _____ _____    ______ ____
ROOT
ATOM      1  C   UNL     1       1.913   5.888  20.529  0.00  0.00    +0.000 A 
ATOM      2  C   UNL     1       3.212   5.497  20.204  0.00  0.00    +0.000 A 
ATOM      3  C   UNL     1       3.478   4.225  19.668  0.00  0.00    +0.000 A 
ATOM      4  C   UNL     1       2.434   3.291  19.562  0.00  0.00    +0.000 A 
ATOM      5  C   UNL     1       1.124   3.686  19.870  0.00  0.00    +0.000 A 
ATOM      6  C   UNL     1       0.874   4.978  20.327  0.00  0.00    +0.000 A 
ATOM      7  F   UNL     1      -0.393   5.330  20.597  0.00  0.00    +0.000 F 
ATOM      8  C   UNL     1       2.730   1.851  19.225  0.00  0.00    +0.000 C 
ATOM      9  C   UNL     1       4.179   1.575  18.794  0.00  0.00    +0.000 C 
ATOM     10  N   UNL     1       5.165   2.455  19.415  0.00  0.00    +0.000 NA
ATOM     11  C   UNL     1       4.886   3.887  19.200  0.00  0.00    +0.000 C 
ATOM     12  H   UNL     1       6.105   2.230  19.097  0.00  0.00    +0.000 HD
ENDROOT
BRANCH  11  13
ATOM     13  C   UNL     1       5.179   4.397  17.737  0.00  0.00    +0.000 C 
ATOM     14  C   UNL     1       5.584   3.311  16.653  0.00  0.00    +0.000 C 
ATOM     15  C   UNL     1       4.759   4.078  15.613  0.00  0.00    +0.000 C 
ATOM     16  C   UNL     1       3.934   4.665  16.767  0.00  0.00    +0.000 C 
BRANCH  13  17
ATOM     17  C   UNL     1       6.183   5.713  17.827  0.00  0.00    +0.000 A 
ATOM     18  C   UNL     1       5.886   6.925  17.176  0.00  0.00    +0.000 A 
ATOM     19  C   UNL     1       6.695   8.060  17.299  0.00  0.00    +0.000 A 
ATOM     20  C   UNL     1       7.838   8.005  18.087  0.00  0.00    +0.000 A 
ATOM     21 CL   UNL     1       8.813   9.409  18.277  0.00  0.00    +0.000 Cl
ATOM     22  C   UNL     1       8.188   6.823  18.725  0.00  0.00    +0.000 A 
ATOM     23  C   UNL     1       7.376   5.691  18.586  0.00  0.00    +0.000 A 
ENDBRANCH  13  17
ENDBRANCH  11  13
BRANCH   1  24
ATOM     24  O   UNL     1       1.571   7.120  21.025  0.00  0.00    +0.000 OA
BRANCH  24  25
ATOM     25  C   UNL     1       1.837   8.234  20.171  0.00  0.00    +0.000 C 
BRANCH  25  26
ATOM     26  C   UNL     1       0.649   9.190  20.198  0.00  0.00    +0.000 C 
BRANCH  26  27
ATOM     27  N   UNL     1       0.609   9.902  21.497  0.00  0.00    +0.000 NA
ATOM     28  H   UNL     1       0.340   9.322  22.293  0.00  0.00    +0.000 HD
BRANCH  27  30
ATOM     29  C   UNL     1      -1.240  11.126  23.043  0.00  0.00    +0.000 C 
ATOM     30  S   UNL     1      -0.279  11.329  21.559  0.00  0.00    +0.000 S 
ATOM     31  O   UNL     1      -1.168  11.287  20.419  0.00  0.00    +0.000 OA
ATOM     32  O   UNL     1       0.659  12.414  21.743  0.00  0.00    +0.000 OA
ENDBRANCH  27  30
ENDBRANCH  26  27
ENDBRANCH  25  26
ENDBRANCH  24  25
ENDBRANCH   1  24
TORSDOF 7
ENDMDL
MODEL 9
REMARK VINA RESULT:      -7.0      4.554      6.597
REMARK  Name = 
REMARK  8 active torsions:
REMARK  status: ('A' for Active; 'I' for Inactive)
REMARK    1  A    between atoms: C_1  and  S_2
REMARK    2  A    between atoms: S_2  and  N_5
REMARK    3  A    between atoms: N_5  and  C_6
REMARK    4  A    between atoms: C_6  and  C_7
REMARK    5  A    between atoms: C_7  and  O_8
REMARK    6  A    between atoms: O_8  and  C_9
REMARK    7  A    between atoms: C_19  and  C_20
REMARK    8  A    between atoms: C_20  and  C_21
REMARK                            x       y       z     vdW  Elec       q    Type
REMARK                         _______ _______ _______ _____ _____    ______ ____
ROOT
ATOM      1  C   UNL     1       1.950   5.932  20.541  0.00  0.00    +0.000 A 
ATOM      2  C   UNL     1       3.235   5.500  20.212  0.00  0.00    +0.000 A 
ATOM      3  C   UNL     1       3.458   4.226  19.662  0.00  0.00    +0.000 A 
ATOM      4  C   UNL     1       2.382   3.331  19.544  0.00  0.00    +0.000 A 
ATOM      5  C   UNL     1       1.087   3.767  19.855  0.00  0.00    +0.000 A 
ATOM      6  C   UNL     1       0.881   5.061  20.328  0.00  0.00    +0.000 A 
ATOM      7  F   UNL     1      -0.374   5.453  20.600  0.00  0.00    +0.000 F 
ATOM      8  C   UNL     1       2.628   1.885  19.191  0.00  0.00    +0.000 C 
ATOM      9  C   UNL     1       4.068   1.564  18.758  0.00  0.00    +0.000 C 
ATOM     10  N   UNL     1       5.083   2.403  19.389  0.00  0.00    +0.000 NA
ATOM     11  C   UNL     1       4.854   3.846  19.191  0.00  0.00    +0.000 C 
ATOM     12  H   UNL     1       6.015   2.149  19.070  0.00  0.00    +0.000 HD
ENDROOT
BRANCH  11  13
ATOM     13  C   UNL     1       5.166   4.362  17.734  0.00  0.00    +0.000 C 
ATOM     14  C   UNL     1       5.574   3.280  16.647  0.00  0.00    +0.000 C 
ATOM     15  C   UNL     1       4.766   4.060  15.604  0.00  0.00    +0.000 C 
ATOM     16  C   UNL     1       3.933   4.646  16.753  0.00  0.00    +0.000 C 
BRANCH  13  17
ATOM     17  C   UNL     1       6.179   5.670  17.842  0.00  0.00    +0.000 A 
ATOM     18  C   UNL     1       5.921   6.874  17.159  0.00  0.00    +0.000 A 
ATOM     19  C   UNL     1       6.736   8.002  17.296  0.00  0.00    +0.000 A 
ATOM     20  C   UNL     1       7.846   7.950  18.131  0.00  0.00    +0.000 A 
ATOM     21 CL   UNL     1       8.827   9.347  18.337  0.00  0.00    +0.000 Cl
ATOM     22  C   UNL     1       8.157   6.776  18.803  0.00  0.00    +0.000 A 
ATOM     23  C   UNL     1       7.340   5.650  18.650  0.00  0.00    +0.000 A 
ENDBRANCH  13  17
ENDBRANCH  11  13
BRANCH   1  24
ATOM     24  O   UNL     1       1.650   7.170  21.051  0.00  0.00    +0.000 OA
BRANCH  24  25
ATOM     25  C   UNL     1       1.608   8.242  20.108  0.00  0.00    +0.000 C 
BRANCH  25  26
ATOM     26  C   UNL     1       0.884   9.434  20.726  0.00  0.00    +0.000 C 
BRANCH  26  27
ATOM     27  N   UNL     1       0.991  10.606  19.825  0.00  0.00    +0.000 NA
ATOM     28  H   UNL     1       1.642  11.327  20.140  0.00  0.00    +0.000 HD
BRANCH  27  30
ATOM     29  C   UNL     1      -1.090  10.235  18.141  0.00  0.00    +0.000 C 
ATOM     30  S   UNL     1      -0.446  11.352  19.368  0.00  0.00    +0.000 S 
ATOM     31  O   UNL     1      -0.058  12.584  18.718  0.00  0.00    +0.000 OA
ATOM     32  O   UNL     1      -1.319  11.350  20.521  0.00  0.00    +0.000 OA
ENDBRANCH  27  30
ENDBRANCH  26  27
ENDBRANCH  25  26
ENDBRANCH  24  25
ENDBRANCH   1  24
TORSDOF 7
ENDMDL
