MODEL 1
REMARK VINA RESULT:      -7.4      0.000      0.000
REMARK  Name = 
REMARK  13 active torsions:
REMARK  status: ('A' for Active; 'I' for Inactive)
REMARK    1  A    between atoms: CD1_1  and  CG_2
REMARK    2  A    between atoms: CG_2  and  CD2_3
REMARK    3  A    between atoms: CG_2  and  CB_4
REMARK    4  A    between atoms: CB_4  and  CA_5
REMARK    5  A    between atoms: CA_5  and  N_6
REMARK    6  A    between atoms: CA_5  and  C_20
REMARK    7  A    between atoms: C_7  and  C_9
REMARK    8  A    between atoms: C_9  and  O_10
REMARK    9  A    between atoms: C_9  and  C_11
REMARK   10  A    between atoms: C_11  and  N_12
REMARK   11  A    between atoms: C_11  and  C_13
REMARK   12  A    between atoms: C_13  and  C_14
REMARK   13  A    between atoms: C_20  and  OXT_22
REMARK                            x       y       z     vdW  Elec       q    Type
REMARK                         _______ _______ _______ _____ _____    ______ ____
ROOT
ATOM      1  C   UNK A   0       3.524   2.044  18.180  0.00  0.00    +0.000 C 
ENDROOT
BRANCH   1   3
ATOM      2  N   LEU A   1       5.060   3.579  17.033  0.00  0.00    +0.000 N 
ATOM      3  C   UNK A   0       4.674   3.064  18.255  0.00  0.00    +0.000 C 
ATOM      4  O   UNK A   0       5.285   3.367  19.278  0.00  0.00    +0.000 OA
ATOM      5  H   LEU A   1       4.719   3.080  16.214  0.00  0.00    +0.000 HD
BRANCH   2   6
ATOM      6  CA  LEU A   1       6.216   4.476  16.895  0.00  0.00    +0.000 C 
BRANCH   6   7
ATOM      7  C   LEU A   1       6.759   4.442  15.449  0.00  0.00    +0.000 C 
ATOM      8  O   LEU A   1       7.579   5.221  14.988  0.00  0.00    +0.000 OA
BRANCH   7   9
ATOM      9  OXT LEU A   1       6.283   3.406  14.710  0.00  0.00    +0.000 OA
ATOM     10  HXT LEU A   1       5.456   3.641  14.222  0.00  0.00    +0.000 HD
ENDBRANCH   7   9
ENDBRANCH   6   7
BRANCH   6  11
ATOM     11  CB  LEU A   1       5.883   5.925  17.292  0.00  0.00    +0.000 C 
BRANCH  11  13
ATOM     12  CD1 LEU A   1       7.880   5.641  18.867  0.00  0.00    +0.000 C 
ATOM     13  CG  LEU A   1       6.879   6.615  18.245  0.00  0.00    +0.000 C 
ATOM     14  CD2 LEU A   1       7.641   7.714  17.493  0.00  0.00    +0.000 C 
ENDBRANCH  11  13
ENDBRANCH   6  11
ENDBRANCH   2   6
ENDBRANCH   1   3
BRANCH   1  15
ATOM     15  O   UNK A   0       4.104   0.728  18.250  0.00  0.00    +0.000 OA
ATOM     16  H   UNK A   0       4.997   0.801  17.867  0.00  0.00    +0.000 HD
ENDBRANCH   1  15
BRANCH   1  17
ATOM     17  C   UNK A   0       2.426   2.189  19.277  0.00  0.00    +0.000 C 
BRANCH  17  18
ATOM     18  N   UNK A   0       2.950   2.563  20.607  0.00  0.00    +0.000 NA
ATOM     19  H   UNK A   0       2.253   3.070  21.151  0.00  0.00    +0.000 HD
ATOM     20  H   UNK A   0       3.788   3.133  20.530  0.00  0.00    +0.000 HD
ENDBRANCH  17  18
BRANCH  17  21
ATOM     21  C   UNK A   0       1.264   3.137  18.896  0.00  0.00    +0.000 C 
BRANCH  21  22
ATOM     22  C   UNK A   0       1.596   4.593  19.126  0.00  0.00    +0.000 A 
ATOM     23  C   UNK A   0       2.086   5.384  18.077  0.00  0.00    +0.000 A 
ATOM     24  C   UNK A   0       2.457   6.709  18.304  0.00  0.00    +0.000 A 
ATOM     25  C   UNK A   0       2.330   7.259  19.578  0.00  0.00    +0.000 A 
ATOM     26  C   UNK A   0       1.817   6.489  20.621  0.00  0.00    +0.000 A 
ATOM     27  C   UNK A   0       1.450   5.162  20.397  0.00  0.00    +0.000 A 
ENDBRANCH  21  22
ENDBRANCH  17  21
ENDBRANCH   1  17
TORSDOF 11
ENDMDL
MODEL 2
REMARK VINA RESULT:      -7.1      1.334      1.957
REMARK  Name = 
REMARK  13 active torsions:
REMARK  status: ('A' for Active; 'I' for Inactive)
REMARK    1  A    between atoms: CD1_1  and  CG_2
REMARK    2  A    between atoms: CG_2  and  CD2_3
REMARK    3  A    between atoms: CG_2  and  CB_4
REMARK    4  A    between atoms: CB_4  and  CA_5
REMARK    5  A    between atoms: CA_5  and  N_6
REMARK    6  A    between atoms: CA_5  and  C_20
REMARK    7  A    between atoms: C_7  and  C_9
REMARK    8  A    between atoms: C_9  and  O_10
REMARK    9  A    between atoms: C_9  and  C_11
REMARK   10  A    between atoms: C_11  and  N_12
REMARK   11  A    between atoms: C_11  and  C_13
REMARK   12  A    between atoms: C_13  and  C_14
REMARK   13  A    between atoms: C_20  and  OXT_22
REMARK                            x       y       z     vdW  Elec       q    Type
REMARK                         _______ _______ _______ _____ _____    ______ ____
ROOT
ATOM      1  C   UNK A   0       3.314   3.462  18.544  0.00  0.00    +0.000 C 
ENDROOT
BRANCH   1   3
ATOM      2  N   LEU A   1       5.014   4.612  17.195  0.00  0.00    +0.000 N 
ATOM      3  C   UNK A   0       4.752   3.990  18.400  0.00  0.00    +0.000 C 
ATOM      4  O   UNK A   0       5.651   3.826  19.222  0.00  0.00    +0.000 OA
ATOM      5  H   LEU A   1       4.327   4.459  16.459  0.00  0.00    +0.000 HD
BRANCH   2   6
ATOM      6  CA  LEU A   1       6.361   5.074  16.831  0.00  0.00    +0.000 C 
BRANCH   6   7
ATOM      7  C   LEU A   1       6.730   4.603  15.407  0.00  0.00    +0.000 C 
ATOM      8  O   LEU A   1       7.502   5.179  14.656  0.00  0.00    +0.000 OA
BRANCH   7   9
ATOM      9  OXT LEU A   1       6.155   3.424  15.055  0.00  0.00    +0.000 OA
ATOM     10  HXT LEU A   1       6.458   3.108  14.169  0.00  0.00    +0.000 HD
ENDBRANCH   7   9
ENDBRANCH   6   7
BRANCH   6  11
ATOM     11  CB  LEU A   1       6.499   6.604  16.927  0.00  0.00    +0.000 C 
BRANCH  11  13
ATOM     12  CD1 LEU A   1       7.778   8.644  17.795  0.00  0.00    +0.000 C 
ATOM     13  CG  LEU A   1       7.790   7.130  17.585  0.00  0.00    +0.000 C 
ATOM     14  CD2 LEU A   1       8.005   6.433  18.935  0.00  0.00    +0.000 C 
ENDBRANCH  11  13
ENDBRANCH   6  11
ENDBRANCH   2   6
ENDBRANCH   1   3
BRANCH   1  15
ATOM     15  O   UNK A   0       3.355   2.322  19.423  0.00  0.00    +0.000 OA
ATOM     16  H   UNK A   0       4.162   1.827  19.194  0.00  0.00    +0.000 HD
ENDBRANCH   1  15
BRANCH   1  17
ATOM     17  C   UNK A   0       2.271   4.492  19.073  0.00  0.00    +0.000 C 
BRANCH  17  18
ATOM     18  N   UNK A   0       1.171   3.888  19.854  0.00  0.00    +0.000 NA
ATOM     19  H   UNK A   0       1.378   3.895  20.853  0.00  0.00    +0.000 HD
ATOM     20  H   UNK A   0       0.990   2.931  19.561  0.00  0.00    +0.000 HD
ENDBRANCH  17  18
BRANCH  17  21
ATOM     21  C   UNK A   0       2.883   5.669  19.870  0.00  0.00    +0.000 C 
BRANCH  21  22
ATOM     22  C   UNK A   0       2.338   7.012  19.442  0.00  0.00    +0.000 A 
ATOM     23  C   UNK A   0       2.550   7.481  18.138  0.00  0.00    +0.000 A 
ATOM     24  C   UNK A   0       2.107   8.748  17.762  0.00  0.00    +0.000 A 
ATOM     25  C   UNK A   0       1.436   9.552  18.681  0.00  0.00    +0.000 A 
ATOM     26  C   UNK A   0       1.194   9.084  19.971  0.00  0.00    +0.000 A 
ATOM     27  C   UNK A   0       1.642   7.817  20.352  0.00  0.00    +0.000 A 
ENDBRANCH  21  22
ENDBRANCH  17  21
ENDBRANCH   1  17
TORSDOF 11
ENDMDL
MODEL 3
REMARK VINA RESULT:      -7.1      1.684      2.274
REMARK  Name = 
REMARK  13 active torsions:
REMARK  status: ('A' for Active; 'I' for Inactive)
REMARK    1  A    between atoms: CD1_1  and  CG_2
REMARK    2  A    between atoms: CG_2  and  CD2_3
REMARK    3  A    between atoms: CG_2  and  CB_4
REMARK    4  A    between atoms: CB_4  and  CA_5
REMARK    5  A    between atoms: CA_5  and  N_6
REMARK    6  A    between atoms: CA_5  and  C_20
REMARK    7  A    between atoms: C_7  and  C_9
REMARK    8  A    between atoms: C_9  and  O_10
REMARK    9  A    between atoms: C_9  and  C_11
REMARK   10  A    between atoms: C_11  and  N_12
REMARK   11  A    between atoms: C_11  and  C_13
REMARK   12  A    between atoms: C_13  and  C_14
REMARK   13  A    between atoms: C_20  and  OXT_22
REMARK                            x       y       z     vdW  Elec       q    Type
REMARK                         _______ _______ _______ _____ _____    ______ ____
ROOT
ATOM      1  C   UNK A   0       2.539   4.529  17.659  0.00  0.00    +0.000 C 
ENDROOT
BRANCH   1   3
ATOM      2  N   LEU A   1       4.837   4.634  16.798  0.00  0.00    +0.000 N 
ATOM      3  C   UNK A   0       3.880   3.827  17.382  0.00  0.00    +0.000 C 
ATOM      4  O   UNK A   0       4.105   2.633  17.569  0.00  0.00    +0.000 OA
ATOM      5  H   LEU A   1       4.499   5.512  16.410  0.00  0.00    +0.000 HD
BRANCH   2   6
ATOM      6  CA  LEU A   1       6.136   4.108  16.355  0.00  0.00    +0.000 C 
BRANCH   6   7
ATOM      7  C   LEU A   1       6.390   4.470  14.874  0.00  0.00    +0.000 C 
ATOM      8  O   LEU A   1       6.702   5.578  14.467  0.00  0.00    +0.000 OA
BRANCH   7   9
ATOM      9  OXT LEU A   1       6.294   3.411  14.028  0.00  0.00    +0.000 OA
ATOM     10  HXT LEU A   1       5.357   3.200  13.797  0.00  0.00    +0.000 HD
ENDBRANCH   7   9
ENDBRANCH   6   7
BRANCH   6  11
ATOM     11  CB  LEU A   1       7.300   4.618  17.223  0.00  0.00    +0.000 C 
BRANCH  11  13
ATOM     12  CD1 LEU A   1       7.639   5.704  19.516  0.00  0.00    +0.000 C 
ATOM     13  CG  LEU A   1       6.989   5.820  18.137  0.00  0.00    +0.000 C 
ATOM     14  CD2 LEU A   1       7.456   7.118  17.465  0.00  0.00    +0.000 C 
ENDBRANCH  11  13
ENDBRANCH   6  11
ENDBRANCH   2   6
ENDBRANCH   1   3
BRANCH   1  15
ATOM     15  O   UNK A   0       1.487   3.637  17.245  0.00  0.00    +0.000 OA
ATOM     16  H   UNK A   0       0.956   3.451  18.041  0.00  0.00    +0.000 HD
ENDBRANCH   1  15
BRANCH   1  17
ATOM     17  C   UNK A   0       2.302   4.965  19.137  0.00  0.00    +0.000 C 
BRANCH  17  18
ATOM     18  N   UNK A   0       2.543   3.894  20.126  0.00  0.00    +0.000 NA
ATOM     19  H   UNK A   0       3.468   3.481  20.007  0.00  0.00    +0.000 HD
ATOM     20  H   UNK A   0       1.843   3.160  20.057  0.00  0.00    +0.000 HD
ENDBRANCH  17  18
BRANCH  17  21
ATOM     21  C   UNK A   0       3.073   6.239  19.558  0.00  0.00    +0.000 C 
BRANCH  21  22
ATOM     22  C   UNK A   0       2.252   7.498  19.404  0.00  0.00    +0.000 A 
ATOM     23  C   UNK A   0       2.187   8.156  18.167  0.00  0.00    +0.000 A 
ATOM     24  C   UNK A   0       1.485   9.354  18.040  0.00  0.00    +0.000 A 
ATOM     25  C   UNK A   0       0.831   9.898  19.143  0.00  0.00    +0.000 A 
ATOM     26  C   UNK A   0       0.865   9.237  20.370  0.00  0.00    +0.000 A 
ATOM     27  C   UNK A   0       1.571   8.040  20.501  0.00  0.00    +0.000 A 
ENDBRANCH  21  22
ENDBRANCH  17  21
ENDBRANCH   1  17
TORSDOF 11
ENDMDL
MODEL 4
REMARK VINA RESULT:      -7.0      2.598      6.646
REMARK  Name = 
REMARK  13 active torsions:
REMARK  status: ('A' for Active; 'I' for Inactive)
REMARK    1  A    between atoms: CD1_1  and  CG_2
REMARK    2  A    between atoms: CG_2  and  CD2_3
REMARK    3  A    between atoms: CG_2  and  CB_4
REMARK    4  A    between atoms: CB_4  and  CA_5
REMARK    5  A    between atoms: CA_5  and  N_6
REMARK    6  A    between atoms: CA_5  and  C_20
REMARK    7  A    between atoms: C_7  and  C_9
REMARK    8  A    between atoms: C_9  and  O_10
REMARK    9  A    between atoms: C_9  and  C_11
REMARK   10  A    between atoms: C_11  and  N_12
REMARK   11  A    between atoms: C_11  and  C_13
REMARK   12  A    between atoms: C_13  and  C_14
REMARK   13  A    between atoms: C_20  and  OXT_22
REMARK                            x       y       z     vdW  Elec       q    Type
REMARK                         _______ _______ _______ _____ _____    ______ ____
ROOT
ATOM      1  C   UNK A   0       6.633   6.226  17.803  0.00  0.00    +0.000 C 
ENDROOT
BRANCH   1   3
ATOM      2  N   LEU A   1       4.464   5.685  18.818  0.00  0.00    +0.000 N 
ATOM      3  C   UNK A   0       5.834   5.559  18.936  0.00  0.00    +0.000 C 
ATOM      4  O   UNK A   0       6.325   5.020  19.926  0.00  0.00    +0.000 OA
ATOM      5  H   LEU A   1       4.138   6.378  18.147  0.00  0.00    +0.000 HD
BRANCH   2   6
ATOM      6  CA  LEU A   1       3.544   5.214  19.864  0.00  0.00    +0.000 C 
BRANCH   6   7
ATOM      7  C   LEU A   1       2.329   6.161  19.983  0.00  0.00    +0.000 C 
ATOM      8  O   LEU A   1       1.420   6.037  20.789  0.00  0.00    +0.000 OA
BRANCH   7   9
ATOM      9  OXT LEU A   1       2.373   7.218  19.131  0.00  0.00    +0.000 OA
ATOM     10  HXT LEU A   1       3.299   7.500  18.930  0.00  0.00    +0.000 HD
ENDBRANCH   7   9
ENDBRANCH   6   7
BRANCH   6  11
ATOM     11  CB  LEU A   1       3.060   3.775  19.613  0.00  0.00    +0.000 C 
BRANCH  11  13
ATOM     12  CD1 LEU A   1       2.695   3.111  17.168  0.00  0.00    +0.000 C 
ATOM     13  CG  LEU A   1       2.046   3.590  18.467  0.00  0.00    +0.000 C 
ATOM     14  CD2 LEU A   1       0.962   2.590  18.890  0.00  0.00    +0.000 C 
ENDBRANCH  11  13
ENDBRANCH   6  11
ENDBRANCH   2   6
ENDBRANCH   1   3
BRANCH   1  15
ATOM     15  O   UNK A   0       7.787   6.852  18.394  0.00  0.00    +0.000 OA
ATOM     16  H   UNK A   0       7.491   7.230  19.242  0.00  0.00    +0.000 HD
ENDBRANCH   1  15
BRANCH   1  17
ATOM     17  C   UNK A   0       7.087   5.276  16.653  0.00  0.00    +0.000 C 
BRANCH  17  18
ATOM     18  N   UNK A   0       7.953   4.163  17.099  0.00  0.00    +0.000 NA
ATOM     19  H   UNK A   0       7.679   3.283  16.662  0.00  0.00    +0.000 HD
ATOM     20  H   UNK A   0       7.926   4.053  18.109  0.00  0.00    +0.000 HD
ENDBRANCH  17  18
BRANCH  17  21
ATOM     21  C   UNK A   0       5.930   4.716  15.793  0.00  0.00    +0.000 C 
BRANCH  21  22
ATOM     22  C   UNK A   0       6.317   4.525  14.345  0.00  0.00    +0.000 A 
ATOM     23  C   UNK A   0       5.633   3.598  13.544  0.00  0.00    +0.000 A 
ATOM     24  C   UNK A   0       6.032   3.370  12.228  0.00  0.00    +0.000 A 
ATOM     25  C   UNK A   0       7.109   4.077  11.695  0.00  0.00    +0.000 A 
ATOM     26  C   UNK A   0       7.777   5.021  12.473  0.00  0.00    +0.000 A 
ATOM     27  C   UNK A   0       7.382   5.246  13.793  0.00  0.00    +0.000 A 
ENDBRANCH  21  22
ENDBRANCH  17  21
ENDBRANCH   1  17
TORSDOF 11
ENDMDL
MODEL 5
REMARK VINA RESULT:      -6.9      2.492      6.531
REMARK  Name = 
REMARK  13 active torsions:
REMARK  status: ('A' for Active; 'I' for Inactive)
REMARK    1  A    between atoms: CD1_1  and  CG_2
REMARK    2  A    between atoms: CG_2  and  CD2_3
REMARK    3  A    between atoms: CG_2  and  CB_4
REMARK    4  A    between atoms: CB_4  and  CA_5
REMARK    5  A    between atoms: CA_5  and  N_6
REMARK    6  A    between atoms: CA_5  and  C_20
REMARK    7  A    between atoms: C_7  and  C_9
REMARK    8  A    between atoms: C_9  and  O_10
REMARK    9  A    between atoms: C_9  and  C_11
REMARK   10  A    between atoms: C_11  and  N_12
REMARK   11  A    between atoms: C_11  and  C_13
REMARK   12  A    between atoms: C_13  and  C_14
REMARK   13  A    between atoms: C_20  and  OXT_22
REMARK                            x       y       z     vdW  Elec       q    Type
REMARK                         _______ _______ _______ _____ _____    ______ ____
ROOT
ATOM      1  C   UNK A   0       6.557   5.649  18.438  0.00  0.00    +0.000 C 
ENDROOT
BRANCH   1   3
ATOM      2  N   LEU A   1       4.130   5.842  18.760  0.00  0.00    +0.000 N 
ATOM      3  C   UNK A   0       5.232   5.022  18.906  0.00  0.00    +0.000 C 
ATOM      4  O   UNK A   0       5.122   3.923  19.446  0.00  0.00    +0.000 OA
ATOM      5  H   LEU A   1       4.329   6.824  18.582  0.00  0.00    +0.000 HD
BRANCH   2   6
ATOM      6  CA  LEU A   1       2.802   5.459  19.259  0.00  0.00    +0.000 C 
BRANCH   6   7
ATOM      7  C   LEU A   1       2.093   6.674  19.899  0.00  0.00    +0.000 C 
ATOM      8  O   LEU A   1       1.483   6.653  20.957  0.00  0.00    +0.000 OA
BRANCH   7   9
ATOM      9  OXT LEU A   1       2.250   7.829  19.201  0.00  0.00    +0.000 OA
ATOM     10  HXT LEU A   1       1.941   8.619  19.708  0.00  0.00    +0.000 HD
ENDBRANCH   7   9
ENDBRANCH   6   7
BRANCH   6  11
ATOM     11  CB  LEU A   1       1.913   4.859  18.155  0.00  0.00    +0.000 C 
BRANCH  11  13
ATOM     12  CD1 LEU A   1       2.419   2.382  17.758  0.00  0.00    +0.000 C 
ATOM     13  CG  LEU A   1       1.457   3.402  18.367  0.00  0.00    +0.000 C 
ATOM     14  CD2 LEU A   1       1.302   3.120  19.867  0.00  0.00    +0.000 C 
ENDBRANCH  11  13
ENDBRANCH   6  11
ENDBRANCH   2   6
ENDBRANCH   1   3
BRANCH   1  15
ATOM     15  O   UNK A   0       7.571   5.290  19.395  0.00  0.00    +0.000 OA
ATOM     16  H   UNK A   0       7.102   5.043  20.213  0.00  0.00    +0.000 HD
ENDBRANCH   1  15
BRANCH   1  17
ATOM     17  C   UNK A   0       7.024   5.241  17.007  0.00  0.00    +0.000 C 
BRANCH  17  18
ATOM     18  N   UNK A   0       7.984   4.118  16.984  0.00  0.00    +0.000 NA
ATOM     19  H   UNK A   0       8.928   4.442  16.775  0.00  0.00    +0.000 HD
ATOM     20  H   UNK A   0       7.717   3.414  16.301  0.00  0.00    +0.000 HD
ENDBRANCH  17  18
BRANCH  17  21
ATOM     21  C   UNK A   0       5.870   4.953  16.017  0.00  0.00    +0.000 C 
BRANCH  21  22
ATOM     22  C   UNK A   0       6.358   4.665  14.617  0.00  0.00    +0.000 A 
ATOM     23  C   UNK A   0       7.439   5.381  14.080  0.00  0.00    +0.000 A 
ATOM     24  C   UNK A   0       7.847   5.164  12.765  0.00  0.00    +0.000 A 
ATOM     25  C   UNK A   0       7.190   4.220  11.978  0.00  0.00    +0.000 A 
ATOM     26  C   UNK A   0       6.134   3.483  12.511  0.00  0.00    +0.000 A 
ATOM     27  C   UNK A   0       5.720   3.702  13.826  0.00  0.00    +0.000 A 
ENDBRANCH  21  22
ENDBRANCH  17  21
ENDBRANCH   1  17
TORSDOF 11
ENDMDL
MODEL 6
REMARK VINA RESULT:      -6.9      1.175      1.862
REMARK  Name = 
REMARK  13 active torsions:
REMARK  status: ('A' for Active; 'I' for Inactive)
REMARK    1  A    between atoms: CD1_1  and  CG_2
REMARK    2  A    between atoms: CG_2  and  CD2_3
REMARK    3  A    between atoms: CG_2  and  CB_4
REMARK    4  A    between atoms: CB_4  and  CA_5
REMARK    5  A    between atoms: CA_5  and  N_6
REMARK    6  A    between atoms: CA_5  and  C_20
REMARK    7  A    between atoms: C_7  and  C_9
REMARK    8  A    between atoms: C_9  and  O_10
REMARK    9  A    between atoms: C_9  and  C_11
REMARK   10  A    between atoms: C_11  and  N_12
REMARK   11  A    between atoms: C_11  and  C_13
REMARK   12  A    between atoms: C_13  and  C_14
REMARK   13  A    between atoms: C_20  and  OXT_22
REMARK                            x       y       z     vdW  Elec       q    Type
REMARK                         _______ _______ _______ _____ _____    ______ ____
ROOT
ATOM      1  C   UNK A   0       4.058   2.676  18.928  0.00  0.00    +0.000 C 
ENDROOT
BRANCH   1   3
ATOM      2  N   LEU A   1       5.423   3.880  17.279  0.00  0.00    +0.000 N 
ATOM      3  C   UNK A   0       5.214   3.644  18.624  0.00  0.00    +0.000 C 
ATOM      4  O   UNK A   0       5.970   4.129  19.464  0.00  0.00    +0.000 OA
ATOM      5  H   LEU A   1       4.963   3.235  16.639  0.00  0.00    +0.000 HD
BRANCH   2   6
ATOM      6  CA  LEU A   1       6.555   4.683  16.794  0.00  0.00    +0.000 C 
BRANCH   6   7
ATOM      7  C   LEU A   1       6.763   4.466  15.279  0.00  0.00    +0.000 C 
ATOM      8  O   LEU A   1       6.172   3.639  14.601  0.00  0.00    +0.000 OA
BRANCH   7   9
ATOM      9  OXT LEU A   1       7.645   5.334  14.718  0.00  0.00    +0.000 OA
ATOM     10  HXT LEU A   1       7.610   5.319  13.730  0.00  0.00    +0.000 HD
ENDBRANCH   7   9
ENDBRANCH   6   7
BRANCH   6  11
ATOM     11  CB  LEU A   1       6.373   6.184  17.086  0.00  0.00    +0.000 C 
BRANCH  11  13
ATOM     12  CD1 LEU A   1       7.427   8.456  17.614  0.00  0.00    +0.000 C 
ATOM     13  CG  LEU A   1       7.632   6.942  17.552  0.00  0.00    +0.000 C 
ATOM     14  CD2 LEU A   1       8.064   6.432  18.933  0.00  0.00    +0.000 C 
ENDBRANCH  11  13
ENDBRANCH   6  11
ENDBRANCH   2   6
ENDBRANCH   1   3
BRANCH   1  15
ATOM     15  O   UNK A   0       3.882   2.642  20.356  0.00  0.00    +0.000 OA
ATOM     16  H   UNK A   0       4.713   2.293  20.727  0.00  0.00    +0.000 HD
ENDBRANCH   1  15
BRANCH   1  17
ATOM     17  C   UNK A   0       2.699   3.018  18.243  0.00  0.00    +0.000 C 
BRANCH  17  18
ATOM     18  N   UNK A   0       2.050   1.864  17.586  0.00  0.00    +0.000 NA
ATOM     19  H   UNK A   0       2.646   1.037  17.615  0.00  0.00    +0.000 HD
ATOM     20  H   UNK A   0       1.817   2.070  16.618  0.00  0.00    +0.000 HD
ENDBRANCH  17  18
BRANCH  17  21
ATOM     21  C   UNK A   0       1.679   3.727  19.166  0.00  0.00    +0.000 C 
BRANCH  21  22
ATOM     22  C   UNK A   0       1.900   5.219  19.245  0.00  0.00    +0.000 A 
ATOM     23  C   UNK A   0       1.659   5.911  20.441  0.00  0.00    +0.000 A 
ATOM     24  C   UNK A   0       1.796   7.297  20.497  0.00  0.00    +0.000 A 
ATOM     25  C   UNK A   0       2.189   8.003  19.361  0.00  0.00    +0.000 A 
ATOM     26  C   UNK A   0       2.459   7.323  18.176  0.00  0.00    +0.000 A 
ATOM     27  C   UNK A   0       2.317   5.935  18.116  0.00  0.00    +0.000 A 
ENDBRANCH  21  22
ENDBRANCH  17  21
ENDBRANCH   1  17
TORSDOF 11
ENDMDL
MODEL 7
REMARK VINA RESULT:      -6.9      2.637      4.659
REMARK  Name = 
REMARK  13 active torsions:
REMARK  status: ('A' for Active; 'I' for Inactive)
REMARK    1  A    between atoms: CD1_1  and  CG_2
REMARK    2  A    between atoms: CG_2  and  CD2_3
REMARK    3  A    between atoms: CG_2  and  CB_4
REMARK    4  A    between atoms: CB_4  and  CA_5
REMARK    5  A    between atoms: CA_5  and  N_6
REMARK    6  A    between atoms: CA_5  and  C_20
REMARK    7  A    between atoms: C_7  and  C_9
REMARK    8  A    between atoms: C_9  and  O_10
REMARK    9  A    between atoms: C_9  and  C_11
REMARK   10  A    between atoms: C_11  and  N_12
REMARK   11  A    between atoms: C_11  and  C_13
REMARK   12  A    between atoms: C_13  and  C_14
REMARK   13  A    between atoms: C_20  and  OXT_22
REMARK                            x       y       z     vdW  Elec       q    Type
REMARK                         _______ _______ _______ _____ _____    ______ ____
ROOT
ATOM      1  C   UNK A   0       6.436   4.684  16.840  0.00  0.00    +0.000 C 
ENDROOT
BRANCH   1   3
ATOM      2  N   LEU A   1       6.858   4.425  14.435  0.00  0.00    +0.000 N 
ATOM      3  C   UNK A   0       6.220   5.180  15.399  0.00  0.00    +0.000 C 
ATOM      4  O   UNK A   0       5.610   6.200  15.087  0.00  0.00    +0.000 OA
ATOM      5  H   LEU A   1       7.569   3.781  14.774  0.00  0.00    +0.000 HD
BRANCH   2   6
ATOM      6  CA  LEU A   1       6.862   4.813  13.017  0.00  0.00    +0.000 C 
BRANCH   6   7
ATOM      7  C   LEU A   1       8.044   5.762  12.719  0.00  0.00    +0.000 C 
ATOM      8  O   LEU A   1       9.042   5.878  13.414  0.00  0.00    +0.000 OA
BRANCH   7   9
ATOM      9  OXT LEU A   1       7.917   6.445  11.552  0.00  0.00    +0.000 OA
ATOM     10  HXT LEU A   1       8.389   7.313  11.571  0.00  0.00    +0.000 HD
ENDBRANCH   7   9
ENDBRANCH   6   7
BRANCH   6  11
ATOM     11  CB  LEU A   1       6.922   3.595  12.078  0.00  0.00    +0.000 C 
BRANCH  11  13
ATOM     12  CD1 LEU A   1       4.441   3.366  11.490  0.00  0.00    +0.000 C 
ATOM     13  CG  LEU A   1       5.679   2.683  12.070  0.00  0.00    +0.000 C 
ATOM     14  CD2 LEU A   1       5.976   1.408  11.269  0.00  0.00    +0.000 C 
ENDBRANCH  11  13
ENDBRANCH   6  11
ENDBRANCH   2   6
ENDBRANCH   1   3
BRANCH   1  15
ATOM     15  O   UNK A   0       6.925   5.795  17.614  0.00  0.00    +0.000 OA
ATOM     16  H   UNK A   0       7.017   6.542  16.995  0.00  0.00    +0.000 HD
ENDBRANCH   1  15
BRANCH   1  17
ATOM     17  C   UNK A   0       5.180   4.076  17.536  0.00  0.00    +0.000 C 
BRANCH  17  18
ATOM     18  N   UNK A   0       5.460   3.460  18.850  0.00  0.00    +0.000 NA
ATOM     19  H   UNK A   0       4.648   2.953  19.202  0.00  0.00    +0.000 HD
ATOM     20  H   UNK A   0       5.737   4.157  19.536  0.00  0.00    +0.000 HD
ENDBRANCH  17  18
BRANCH  17  21
ATOM     21  C   UNK A   0       3.987   5.053  17.668  0.00  0.00    +0.000 C 
BRANCH  21  22
ATOM     22  C   UNK A   0       2.890   4.520  18.559  0.00  0.00    +0.000 A 
ATOM     23  C   UNK A   0       2.088   3.450  18.135  0.00  0.00    +0.000 A 
ATOM     24  C   UNK A   0       1.031   3.002  18.926  0.00  0.00    +0.000 A 
ATOM     25  C   UNK A   0       0.775   3.608  20.154  0.00  0.00    +0.000 A 
ATOM     26  C   UNK A   0       1.584   4.653  20.598  0.00  0.00    +0.000 A 
ATOM     27  C   UNK A   0       2.639   5.107  19.805  0.00  0.00    +0.000 A 
ENDBRANCH  21  22
ENDBRANCH  17  21
ENDBRANCH   1  17
TORSDOF 11
ENDMDL
MODEL 8
REMARK VINA RESULT:      -6.9      2.002      2.985
REMARK  Name = 
REMARK  13 active torsions:
REMARK  status: ('A' for Active; 'I' for Inactive)
REMARK    1  A    between atoms: CD1_1  and  CG_2
REMARK    2  A    between atoms: CG_2  and  CD2_3
REMARK    3  A    between atoms: CG_2  and  CB_4
REMARK    4  A    between atoms: CB_4  and  CA_5
REMARK    5  A    between atoms: CA_5  and  N_6
REMARK    6  A    between atoms: CA_5  and  C_20
REMARK    7  A    between atoms: C_7  and  C_9
REMARK    8  A    between atoms: C_9  and  O_10
REMARK    9  A    between atoms: C_9  and  C_11
REMARK   10  A    between atoms: C_11  and  N_12
REMARK   11  A    between atoms: C_11  and  C_13
REMARK   12  A    between atoms: C_13  and  C_14
REMARK   13  A    between atoms: C_20  and  OXT_22
REMARK                            x       y       z     vdW  Elec       q    Type
REMARK                         _______ _______ _______ _____ _____    ______ ____
ROOT
ATOM      1  C   UNK A   0       2.698   4.950  17.515  0.00  0.00    +0.000 C 
ENDROOT
BRANCH   1   3
ATOM      2  N   LEU A   1       5.006   4.830  16.684  0.00  0.00    +0.000 N 
ATOM      3  C   UNK A   0       4.005   4.154  17.352  0.00  0.00    +0.000 C 
ATOM      4  O   UNK A   0       4.168   2.985  17.696  0.00  0.00    +0.000 OA
ATOM      5  H   LEU A   1       4.716   5.666  16.180  0.00  0.00    +0.000 HD
BRANCH   2   6
ATOM      6  CA  LEU A   1       6.281   4.189  16.333  0.00  0.00    +0.000 C 
BRANCH   6   7
ATOM      7  C   LEU A   1       6.583   4.372  14.829  0.00  0.00    +0.000 C 
ATOM      8  O   LEU A   1       6.039   3.758  13.924  0.00  0.00    +0.000 OA
BRANCH   7   9
ATOM      9  OXT LEU A   1       7.495   5.345  14.568  0.00  0.00    +0.000 OA
ATOM     10  HXT LEU A   1       7.537   5.572  13.607  0.00  0.00    +0.000 HD
ENDBRANCH   7   9
ENDBRANCH   6   7
BRANCH   6  11
ATOM     11  CB  LEU A   1       7.456   4.727  17.170  0.00  0.00    +0.000 C 
BRANCH  11  13
ATOM     12  CD1 LEU A   1       7.822   5.710  19.504  0.00  0.00    +0.000 C 
ATOM     13  CG  LEU A   1       7.123   5.866  18.153  0.00  0.00    +0.000 C 
ATOM     14  CD2 LEU A   1       7.510   7.215  17.535  0.00  0.00    +0.000 C 
ENDBRANCH  11  13
ENDBRANCH   6  11
ENDBRANCH   2   6
ENDBRANCH   1   3
BRANCH   1  15
ATOM     15  O   UNK A   0       1.616   4.003  17.576  0.00  0.00    +0.000 OA
ATOM     16  H   UNK A   0       1.031   4.299  18.297  0.00  0.00    +0.000 HD
ENDBRANCH   1  15
BRANCH   1  17
ATOM     17  C   UNK A   0       2.637   5.893  18.755  0.00  0.00    +0.000 C 
BRANCH  17  18
ATOM     18  N   UNK A   0       3.409   5.408  19.918  0.00  0.00    +0.000 NA
ATOM     19  H   UNK A   0       4.128   6.078  20.191  0.00  0.00    +0.000 HD
ATOM     20  H   UNK A   0       3.849   4.512  19.725  0.00  0.00    +0.000 HD
ENDBRANCH  17  18
BRANCH  17  21
ATOM     21  C   UNK A   0       3.018   7.363  18.459  0.00  0.00    +0.000 C 
BRANCH  21  22
ATOM     22  C   UNK A   0       1.946   8.341  18.878  0.00  0.00    +0.000 A 
ATOM     23  C   UNK A   0       1.531   8.411  20.216  0.00  0.00    +0.000 A 
ATOM     24  C   UNK A   0       0.495   9.264  20.593  0.00  0.00    +0.000 A 
ATOM     25  C   UNK A   0      -0.127  10.067  19.638  0.00  0.00    +0.000 A 
ATOM     26  C   UNK A   0       0.297  10.027  18.311  0.00  0.00    +0.000 A 
ATOM     27  C   UNK A   0       1.331   9.169  17.931  0.00  0.00    +0.000 A 
ENDBRANCH  21  22
ENDBRANCH  17  21
ENDBRANCH   1  17
TORSDOF 11
ENDMDL
MODEL 9
REMARK VINA RESULT:      -6.8      2.325      6.494
REMARK  Name = 
REMARK  13 active torsions:
REMARK  status: ('A' for Active; 'I' for Inactive)
REMARK    1  A    between atoms: CD1_1  and  CG_2
REMARK    2  A    between atoms: CG_2  and  CD2_3
REMARK    3  A    between atoms: CG_2  and  CB_4
REMARK    4  A    between atoms: CB_4  and  CA_5
REMARK    5  A    between atoms: CA_5  and  N_6
REMARK    6  A    between atoms: CA_5  and  C_20
REMARK    7  A    between atoms: C_7  and  C_9
REMARK    8  A    between atoms: C_9  and  O_10
REMARK    9  A    between atoms: C_9  and  C_11
REMARK   10  A    between atoms: C_11  and  N_12
REMARK   11  A    between atoms: C_11  and  C_13
REMARK   12  A    between atoms: C_13  and  C_14
REMARK   13  A    between atoms: C_20  and  OXT_22
REMARK                            x       y       z     vdW  Elec       q    Type
REMARK                         _______ _______ _______ _____ _____    ______ ____
ROOT
ATOM      1  C   UNK A   0       6.419   6.040  18.095  0.00  0.00    +0.000 C 
ENDROOT
BRANCH   1   3
ATOM      2  N   LEU A   1       5.058   4.190  18.964  0.00  0.00    +0.000 N 
ATOM      3  C   UNK A   0       5.058   5.520  18.591  0.00  0.00    +0.000 C 
ATOM      4  O   UNK A   0       4.013   6.167  18.597  0.00  0.00    +0.000 OA
ATOM      5  H   LEU A   1       5.864   3.646  18.666  0.00  0.00    +0.000 HD
BRANCH   2   6
ATOM      6  CA  LEU A   1       3.825   3.489  19.352  0.00  0.00    +0.000 C 
BRANCH   6   7
ATOM      7  C   LEU A   1       4.008   1.961  19.223  0.00  0.00    +0.000 C 
ATOM      8  O   LEU A   1       3.353   1.236  18.490  0.00  0.00    +0.000 OA
BRANCH   7   9
ATOM      9  OXT LEU A   1       5.027   1.466  19.972  0.00  0.00    +0.000 OA
ATOM     10  HXT LEU A   1       4.783   0.626  20.432  0.00  0.00    +0.000 HD
ENDBRANCH   7   9
ENDBRANCH   6   7
BRANCH   6  11
ATOM     11  CB  LEU A   1       3.378   3.842  20.782  0.00  0.00    +0.000 C 
BRANCH  11  13
ATOM     12  CD1 LEU A   1       1.031   3.916  19.762  0.00  0.00    +0.000 C 
ATOM     13  CG  LEU A   1       1.859   3.818  21.044  0.00  0.00    +0.000 C 
ATOM     14  CD2 LEU A   1       1.482   2.533  21.793  0.00  0.00    +0.000 C 
ENDBRANCH  11  13
ENDBRANCH   6  11
ENDBRANCH   2   6
ENDBRANCH   1   3
BRANCH   1  15
ATOM     15  O   UNK A   0       7.378   5.820  19.146  0.00  0.00    +0.000 OA
ATOM     16  H   UNK A   0       7.476   4.854  19.231  0.00  0.00    +0.000 HD
ENDBRANCH   1  15
BRANCH   1  17
ATOM     17  C   UNK A   0       6.939   5.402  16.771  0.00  0.00    +0.000 C 
BRANCH  17  18
ATOM     18  N   UNK A   0       7.793   4.212  16.973  0.00  0.00    +0.000 NA
ATOM     19  H   UNK A   0       7.951   4.032  17.964  0.00  0.00    +0.000 HD
ATOM     20  H   UNK A   0       8.692   4.317  16.509  0.00  0.00    +0.000 HD
ENDBRANCH  17  18
BRANCH  17  21
ATOM     21  C   UNK A   0       5.832   5.074  15.742  0.00  0.00    +0.000 C 
BRANCH  21  22
ATOM     22  C   UNK A   0       6.383   4.737  14.376  0.00  0.00    +0.000 A 
ATOM     23  C   UNK A   0       7.453   5.471  13.842  0.00  0.00    +0.000 A 
ATOM     24  C   UNK A   0       7.919   5.206  12.555  0.00  0.00    +0.000 A 
ATOM     25  C   UNK A   0       7.329   4.197  11.795  0.00  0.00    +0.000 A 
ATOM     26  C   UNK A   0       6.285   3.443  12.328  0.00  0.00    +0.000 A 
ATOM     27  C   UNK A   0       5.814   3.710  13.614  0.00  0.00    +0.000 A 
ENDBRANCH  21  22
ENDBRANCH  17  21
ENDBRANCH   1  17
TORSDOF 11
ENDMDL
