MODEL 1
REMARK VINA RESULT:      -8.1      0.000      0.000
REMARK  Name = 
REMARK  9 active torsions:
REMARK  status: ('A' for Active; 'I' for Inactive)
REMARK    1  A    between atoms: C_1  and  C_2
REMARK    2  A    between atoms: N_4  and  C_5
REMARK    3  A    between atoms: C_8  and  C_9
REMARK    4  A    between atoms: C_9  and  N_10
REMARK    5  A    between atoms: N_10  and  C_11
REMARK    6  A    between atoms: N_10  and  C_12
REMARK    7  A    between atoms: C_13  and  C_14
REMARK    8  A    between atoms: C_19  and  C_20
REMARK    9  A    between atoms: C_26  and  C_27
REMARK                            x       y       z     vdW  Elec       q    Type
REMARK                         _______ _______ _______ _____ _____    ______ ____
ROOT
ATOM      1  C   UNL     1      -0.767  11.968  20.963  0.00  0.00    +0.000 A 
ATOM      2  C   UNL     1      -1.127  12.218  22.290  0.00  0.00    +0.000 A 
ATOM      3  C   UNL     1      -1.995  13.250  22.901  0.00  0.00    +0.000 C 
ATOM      4  N   UNL     1      -0.639  11.248  23.132  0.00  0.00    +0.000 NA
ATOM      5  C   UNL     1      -0.016  10.412  22.353  0.00  0.00    +0.000 A 
ATOM      6  C   UNL     1       0.691   9.220  22.686  0.00  0.00    +0.000 A 
ATOM      7  C   UNL     1       1.309   8.538  21.731  0.00  0.00    +0.000 A 
ATOM      8  C   UNL     1       1.219   8.879  20.315  0.00  0.00    +0.000 A 
ATOM      9  C   UNL     1       0.577  10.020  20.010  0.00  0.00    +0.000 A 
ATOM     10  N   UNL     1      -0.036  10.778  21.021  0.00  0.00    +0.000 N 
ENDROOT
BRANCH   8  11
ATOM     11  C   UNL     1       1.943   8.118  19.246  0.00  0.00    +0.000 C 
ATOM     12  O   UNL     1       2.415   8.737  18.272  0.00  0.00    +0.000 OA
ATOM     13  N   UNL     1       2.090   6.755  19.390  0.00  0.00    +0.000 N 
ATOM     14  C   UNL     1       3.045   6.036  18.547  0.00  0.00    +0.000 C 
ATOM     15  C   UNL     1       3.956   5.149  19.419  0.00  0.00    +0.000 C 
ATOM     16  N   UNL     1       3.167   4.246  20.275  0.00  0.00    +0.000 N 
ATOM     17  C   UNL     1       3.397   2.906  20.512  0.00  0.00    +0.000 C 
ATOM     18  C   UNL     1       4.554   2.210  19.847  0.00  0.00    +0.000 C 
ATOM     19  O   UNL     1       2.666   2.246  21.257  0.00  0.00    +0.000 OA
ATOM     20  C   UNL     1       2.131   4.917  21.074  0.00  0.00    +0.000 C 
ATOM     21  C   UNL     1       1.259   5.840  20.200  0.00  0.00    +0.000 C 
ENDBRANCH   8  11
BRANCH   1  22
ATOM     22  N   UNL     1      -1.039  12.587  19.760  0.00  0.00    +0.000 N 
ATOM     23  C   UNL     1      -2.305  12.134  19.149  0.00  0.00    +0.000 C 
BRANCH  22  24
ATOM     24  C   UNL     1      -0.634  14.006  19.590  0.00  0.00    +0.000 C 
BRANCH  24  28
ATOM     25  C   UNL     1       3.362  14.628  17.994  0.00  0.00    +0.000 A 
ATOM     26  C   UNL     1       2.791  13.359  18.031  0.00  0.00    +0.000 A 
ATOM     27  C   UNL     1       1.488  13.180  18.506  0.00  0.00    +0.000 A 
ATOM     28  C   UNL     1       0.708  14.275  18.923  0.00  0.00    +0.000 A 
ATOM     29  C   UNL     1       1.217  15.553  18.691  0.00  0.00    +0.000 A 
ATOM     30  C   UNL     1       2.563  15.725  18.325  0.00  0.00    +0.000 A 
BRANCH  25  34
ATOM     31  C   UNL     1       7.082  15.220  17.887  0.00  0.00    +0.000 C 
ATOM     32  C   UNL     1       5.748  14.992  18.539  0.00  0.00    +0.000 C 
ATOM     33  O   UNL     1       5.667  14.933  19.760  0.00  0.00    +0.000 OA
ATOM     34  N   UNL     1       4.710  14.845  17.632  0.00  0.00    +0.000 N 
ATOM     35  H   UNL     1       4.941  14.759  16.650  0.00  0.00    +0.000 HD
ENDBRANCH  25  34
ENDBRANCH  24  28
ENDBRANCH  22  24
ENDBRANCH   1  22
TORSDOF 5
ENDMDL
MODEL 2
REMARK VINA RESULT:      -7.9      1.401      1.723
REMARK  Name = 
REMARK  9 active torsions:
REMARK  status: ('A' for Active; 'I' for Inactive)
REMARK    1  A    between atoms: C_1  and  C_2
REMARK    2  A    between atoms: N_4  and  C_5
REMARK    3  A    between atoms: C_8  and  C_9
REMARK    4  A    between atoms: C_9  and  N_10
REMARK    5  A    between atoms: N_10  and  C_11
REMARK    6  A    between atoms: N_10  and  C_12
REMARK    7  A    between atoms: C_13  and  C_14
REMARK    8  A    between atoms: C_19  and  C_20
REMARK    9  A    between atoms: C_26  and  C_27
REMARK                            x       y       z     vdW  Elec       q    Type
REMARK                         _______ _______ _______ _____ _____    ______ ____
ROOT
ATOM      1  C   UNL     1      -0.936  11.625  21.200  0.00  0.00    +0.000 A 
ATOM      2  C   UNL     1      -1.228  11.443  22.554  0.00  0.00    +0.000 A 
ATOM      3  C   UNL     1      -2.138  12.162  23.474  0.00  0.00    +0.000 C 
ATOM      4  N   UNL     1      -0.606  10.324  23.054  0.00  0.00    +0.000 NA
ATOM      5  C   UNL     1       0.032   9.815  22.041  0.00  0.00    +0.000 A 
ATOM      6  C   UNL     1       0.857   8.655  21.981  0.00  0.00    +0.000 A 
ATOM      7  C   UNL     1       1.466   8.343  20.846  0.00  0.00    +0.000 A 
ATOM      8  C   UNL     1       1.255   9.068  19.597  0.00  0.00    +0.000 A 
ATOM      9  C   UNL     1       0.501  10.179  19.666  0.00  0.00    +0.000 A 
ATOM     10  N   UNL     1      -0.106  10.547  20.878  0.00  0.00    +0.000 N 
ENDROOT
BRANCH   8  11
ATOM     11  C   UNL     1       1.969   8.725  18.324  0.00  0.00    +0.000 C 
ATOM     12  O   UNL     1       1.946   9.534  17.376  0.00  0.00    +0.000 OA
ATOM     13  N   UNL     1       2.657   7.532  18.255  0.00  0.00    +0.000 N 
ATOM     14  C   UNL     1       3.610   7.308  17.168  0.00  0.00    +0.000 C 
ATOM     15  C   UNL     1       4.956   6.820  17.740  0.00  0.00    +0.000 C 
ATOM     16  N   UNL     1       4.780   5.629  18.589  0.00  0.00    +0.000 N 
ATOM     17  C   UNL     1       5.552   4.487  18.599  0.00  0.00    +0.000 C 
ATOM     18  C   UNL     1       6.717   4.356  17.654  0.00  0.00    +0.000 C 
ATOM     19  O   UNL     1       5.310   3.547  19.363  0.00  0.00    +0.000 OA
ATOM     20  C   UNL     1       3.762   5.780  19.640  0.00  0.00    +0.000 C 
ATOM     21  C   UNL     1       2.436   6.317  19.065  0.00  0.00    +0.000 C 
ENDBRANCH   8  11
BRANCH   1  22
ATOM     22  N   UNL     1      -1.338  12.534  20.243  0.00  0.00    +0.000 N 
ATOM     23  C   UNL     1      -2.733  12.334  19.802  0.00  0.00    +0.000 C 
BRANCH  22  24
ATOM     24  C   UNL     1      -0.809  13.920  20.322  0.00  0.00    +0.000 C 
BRANCH  24  28
ATOM     25  C   UNL     1       3.179  14.410  18.659  0.00  0.00    +0.000 A 
ATOM     26  C   UNL     1       2.120  15.209  18.238  0.00  0.00    +0.000 A 
ATOM     27  C   UNL     1       0.852  15.070  18.813  0.00  0.00    +0.000 A 
ATOM     28  C   UNL     1       0.621  14.151  19.853  0.00  0.00    +0.000 A 
ATOM     29  C   UNL     1       1.732  13.506  20.399  0.00  0.00    +0.000 A 
ATOM     30  C   UNL     1       2.975  13.558  19.747  0.00  0.00    +0.000 A 
BRANCH  25  34
ATOM     31  C   UNL     1       6.790  14.898  17.700  0.00  0.00    +0.000 C 
ATOM     32  C   UNL     1       5.578  15.008  18.581  0.00  0.00    +0.000 C 
ATOM     33  O   UNL     1       5.667  15.550  19.676  0.00  0.00    +0.000 OA
ATOM     34  N   UNL     1       4.444  14.432  18.031  0.00  0.00    +0.000 N 
ATOM     35  H   UNL     1       4.548  13.881  17.188  0.00  0.00    +0.000 HD
ENDBRANCH  25  34
ENDBRANCH  24  28
ENDBRANCH  22  24
ENDBRANCH   1  22
TORSDOF 5
ENDMDL
MODEL 3
REMARK VINA RESULT:      -7.7      1.616      1.800
REMARK  Name = 
REMARK  9 active torsions:
REMARK  status: ('A' for Active; 'I' for Inactive)
REMARK    1  A    between atoms: C_1  and  C_2
REMARK    2  A    between atoms: N_4  and  C_5
REMARK    3  A    between atoms: C_8  and  C_9
REMARK    4  A    between atoms: C_9  and  N_10
REMARK    5  A    between atoms: N_10  and  C_11
REMARK    6  A    between atoms: N_10  and  C_12
REMARK    7  A    between atoms: C_13  and  C_14
REMARK    8  A    between atoms: C_19  and  C_20
REMARK    9  A    between atoms: C_26  and  C_27
REMARK                            x       y       z     vdW  Elec       q    Type
REMARK                         _______ _______ _______ _____ _____    ______ ____
ROOT
ATOM      1  C   UNL     1      -0.909  11.520  21.113  0.00  0.00    +0.000 A 
ATOM      2  C   UNL     1      -1.263  11.284  22.444  0.00  0.00    +0.000 A 
ATOM      3  C   UNL     1      -2.203  11.978  23.354  0.00  0.00    +0.000 C 
ATOM      4  N   UNL     1      -0.679  10.136  22.922  0.00  0.00    +0.000 NA
ATOM      5  C   UNL     1      -0.004   9.661  21.916  0.00  0.00    +0.000 A 
ATOM      6  C   UNL     1       0.807   8.491  21.842  0.00  0.00    +0.000 A 
ATOM      7  C   UNL     1       1.461   8.220  20.721  0.00  0.00    +0.000 A 
ATOM      8  C   UNL     1       1.315   9.000  19.497  0.00  0.00    +0.000 A 
ATOM      9  C   UNL     1       0.574  10.119  19.581  0.00  0.00    +0.000 A 
ATOM     10  N   UNL     1      -0.081  10.444  20.781  0.00  0.00    +0.000 N 
ENDROOT
BRANCH   8  11
ATOM     11  C   UNL     1       2.080   8.702  18.243  0.00  0.00    +0.000 C 
ATOM     12  O   UNL     1       2.082   9.536  17.317  0.00  0.00    +0.000 OA
ATOM     13  N   UNL     1       2.786   7.519  18.167  0.00  0.00    +0.000 N 
ATOM     14  C   UNL     1       3.782   7.337  17.111  0.00  0.00    +0.000 C 
ATOM     15  C   UNL     1       5.112   6.850  17.719  0.00  0.00    +0.000 C 
ATOM     16  N   UNL     1       4.920   5.634  18.529  0.00  0.00    +0.000 N 
ATOM     17  C   UNL     1       5.707   4.501  18.536  0.00  0.00    +0.000 C 
ATOM     18  C   UNL     1       6.908   4.411  17.632  0.00  0.00    +0.000 C 
ATOM     19  O   UNL     1       5.449   3.538  19.265  0.00  0.00    +0.000 OA
ATOM     20  C   UNL     1       3.862   5.743  19.545  0.00  0.00    +0.000 C 
ATOM     21  C   UNL     1       2.552   6.280  18.936  0.00  0.00    +0.000 C 
ENDBRANCH   8  11
BRANCH   1  22
ATOM     22  N   UNL     1      -1.256  12.476  20.180  0.00  0.00    +0.000 N 
ATOM     23  C   UNL     1      -2.552  12.206  19.528  0.00  0.00    +0.000 C 
BRANCH  22  24
ATOM     24  C   UNL     1      -0.871  13.887  20.441  0.00  0.00    +0.000 C 
BRANCH  24  28
ATOM     25  C   UNL     1       3.146  15.283  19.532  0.00  0.00    +0.000 A 
ATOM     26  C   UNL     1       2.937  14.158  20.325  0.00  0.00    +0.000 A 
ATOM     27  C   UNL     1       1.640  13.695  20.573  0.00  0.00    +0.000 A 
ATOM     28  C   UNL     1       0.519  14.325  20.001  0.00  0.00    +0.000 A 
ATOM     29  C   UNL     1       0.756  15.320  19.052  0.00  0.00    +0.000 A 
ATOM     30  C   UNL     1       2.044  15.859  18.895  0.00  0.00    +0.000 A 
BRANCH  25  34
ATOM     31  C   UNL     1       6.674  16.131  18.518  0.00  0.00    +0.000 C 
ATOM     32  C   UNL     1       5.405  15.326  18.526  0.00  0.00    +0.000 C 
ATOM     33  O   UNL     1       5.315  14.321  17.832  0.00  0.00    +0.000 OA
ATOM     34  N   UNL     1       4.423  15.856  19.347  0.00  0.00    +0.000 N 
ATOM     35  H   UNL     1       4.575  16.776  19.743  0.00  0.00    +0.000 HD
ENDBRANCH  25  34
ENDBRANCH  24  28
ENDBRANCH  22  24
ENDBRANCH   1  22
TORSDOF 5
ENDMDL
MODEL 4
REMARK VINA RESULT:      -7.7      3.477      9.158
REMARK  Name = 
REMARK  9 active torsions:
REMARK  status: ('A' for Active; 'I' for Inactive)
REMARK    1  A    between atoms: C_1  and  C_2
REMARK    2  A    between atoms: N_4  and  C_5
REMARK    3  A    between atoms: C_8  and  C_9
REMARK    4  A    between atoms: C_9  and  N_10
REMARK    5  A    between atoms: N_10  and  C_11
REMARK    6  A    between atoms: N_10  and  C_12
REMARK    7  A    between atoms: C_13  and  C_14
REMARK    8  A    between atoms: C_19  and  C_20
REMARK    9  A    between atoms: C_26  and  C_27
REMARK                            x       y       z     vdW  Elec       q    Type
REMARK                         _______ _______ _______ _____ _____    ______ ____
ROOT
ATOM      1  C   UNL     1      -2.318  11.859  18.474  0.00  0.00    +0.000 A 
ATOM      2  C   UNL     1      -3.090  11.491  17.369  0.00  0.00    +0.000 A 
ATOM      3  C   UNL     1      -2.717  10.995  16.024  0.00  0.00    +0.000 C 
ATOM      4  N   UNL     1      -4.431  11.520  17.663  0.00  0.00    +0.000 NA
ATOM      5  C   UNL     1      -4.492  11.873  18.914  0.00  0.00    +0.000 A 
ATOM      6  C   UNL     1      -5.632  12.074  19.744  0.00  0.00    +0.000 A 
ATOM      7  C   UNL     1      -5.469  12.494  20.991  0.00  0.00    +0.000 A 
ATOM      8  C   UNL     1      -4.161  12.663  21.615  0.00  0.00    +0.000 A 
ATOM      9  C   UNL     1      -3.089  12.502  20.820  0.00  0.00    +0.000 A 
ATOM     10  N   UNL     1      -3.254  12.108  19.482  0.00  0.00    +0.000 N 
ENDROOT
BRANCH   8  11
ATOM     11  C   UNL     1      -3.984  13.165  23.017  0.00  0.00    +0.000 C 
ATOM     12  O   UNL     1      -4.277  12.420  23.972  0.00  0.00    +0.000 OA
ATOM     13  N   UNL     1      -3.473  14.432  23.204  0.00  0.00    +0.000 N 
ATOM     14  C   UNL     1      -2.997  14.832  24.528  0.00  0.00    +0.000 C 
ATOM     15  C   UNL     1      -1.583  15.436  24.420  0.00  0.00    +0.000 C 
ATOM     16  N   UNL     1      -1.544  16.543  23.449  0.00  0.00    +0.000 N 
ATOM     17  C   UNL     1      -0.921  17.765  23.598  0.00  0.00    +0.000 C 
ATOM     18  C   UNL     1      -0.190  18.089  24.873  0.00  0.00    +0.000 C 
ATOM     19  O   UNL     1      -0.952  18.621  22.707  0.00  0.00    +0.000 OA
ATOM     20  C   UNL     1      -2.099  16.211  22.128  0.00  0.00    +0.000 C 
ATOM     21  C   UNL     1      -3.491  15.560  22.251  0.00  0.00    +0.000 C 
ENDBRANCH   8  11
BRANCH   1  22
ATOM     22  N   UNL     1      -0.962  11.938  18.717  0.00  0.00    +0.000 N 
ATOM     23  C   UNL     1      -0.416  13.296  18.523  0.00  0.00    +0.000 C 
BRANCH  22  24
ATOM     24  C   UNL     1      -0.388  11.088  19.792  0.00  0.00    +0.000 C 
BRANCH  24  28
ATOM     25  C   UNL     1       2.290   7.825  18.751  0.00  0.00    +0.000 A 
ATOM     26  C   UNL     1       1.788   7.960  20.042  0.00  0.00    +0.000 A 
ATOM     27  C   UNL     1       0.892   8.989  20.352  0.00  0.00    +0.000 A 
ATOM     28  C   UNL     1       0.447   9.889  19.365  0.00  0.00    +0.000 A 
ATOM     29  C   UNL     1       0.799   9.619  18.043  0.00  0.00    +0.000 A 
ATOM     30  C   UNL     1       1.787   8.662  17.752  0.00  0.00    +0.000 A 
BRANCH  25  34
ATOM     31  C   UNL     1       4.255   4.780  17.717  0.00  0.00    +0.000 C 
ATOM     32  C   UNL     1       3.016   5.582  18.001  0.00  0.00    +0.000 C 
ATOM     33  O   UNL     1       1.912   5.078  17.838  0.00  0.00    +0.000 OA
ATOM     34  N   UNL     1       3.282   6.877  18.417  0.00  0.00    +0.000 N 
ATOM     35  H   UNL     1       4.236   7.212  18.358  0.00  0.00    +0.000 HD
ENDBRANCH  25  34
ENDBRANCH  24  28
ENDBRANCH  22  24
ENDBRANCH   1  22
TORSDOF 5
ENDMDL
MODEL 5
REMARK VINA RESULT:      -7.5      2.928      5.810
REMARK  Name = 
REMARK  9 active torsions:
REMARK  status: ('A' for Active; 'I' for Inactive)
REMARK    1  A    between atoms: C_1  and  C_2
REMARK    2  A    between atoms: N_4  and  C_5
REMARK    3  A    between atoms: C_8  and  C_9
REMARK    4  A    between atoms: C_9  and  N_10
REMARK    5  A    between atoms: N_10  and  C_11
REMARK    6  A    between atoms: N_10  and  C_12
REMARK    7  A    between atoms: C_13  and  C_14
REMARK    8  A    between atoms: C_19  and  C_20
REMARK    9  A    between atoms: C_26  and  C_27
REMARK                            x       y       z     vdW  Elec       q    Type
REMARK                         _______ _______ _______ _____ _____    ______ ____
ROOT
ATOM      1  C   UNL     1       0.428  13.369  20.184  0.00  0.00    +0.000 A 
ATOM      2  C   UNL     1      -0.162  14.008  19.091  0.00  0.00    +0.000 A 
ATOM      3  C   UNL     1      -0.294  15.440  18.738  0.00  0.00    +0.000 C 
ATOM      4  N   UNL     1      -0.602  13.101  18.158  0.00  0.00    +0.000 NA
ATOM      5  C   UNL     1      -0.276  11.939  18.642  0.00  0.00    +0.000 A 
ATOM      6  C   UNL     1      -0.498  10.639  18.102  0.00  0.00    +0.000 A 
ATOM      7  C   UNL     1      -0.131   9.571  18.797  0.00  0.00    +0.000 A 
ATOM      8  C   UNL     1       0.598   9.645  20.058  0.00  0.00    +0.000 A 
ATOM      9  C   UNL     1       0.777  10.872  20.578  0.00  0.00    +0.000 A 
ATOM     10  N   UNL     1       0.345  12.008  19.874  0.00  0.00    +0.000 N 
ENDROOT
BRANCH   8  11
ATOM     11  C   UNL     1       0.985   8.433  20.851  0.00  0.00    +0.000 C 
ATOM     12  O   UNL     1       0.574   8.313  22.021  0.00  0.00    +0.000 OA
ATOM     13  N   UNL     1       1.762   7.469  20.244  0.00  0.00    +0.000 N 
ATOM     14  C   UNL     1       1.894   6.150  20.862  0.00  0.00    +0.000 C 
ATOM     15  C   UNL     1       1.607   5.048  19.823  0.00  0.00    +0.000 C 
ATOM     16  N   UNL     1       2.458   5.200  18.630  0.00  0.00    +0.000 N 
ATOM     17  C   UNL     1       3.134   4.205  17.954  0.00  0.00    +0.000 C 
ATOM     18  C   UNL     1       3.059   2.780  18.434  0.00  0.00    +0.000 C 
ATOM     19  O   UNL     1       3.819   4.451  16.956  0.00  0.00    +0.000 OA
ATOM     20  C   UNL     1       2.426   6.541  18.028  0.00  0.00    +0.000 C 
ATOM     21  C   UNL     1       2.664   7.637  19.086  0.00  0.00    +0.000 C 
ENDBRANCH   8  11
BRANCH   1  22
ATOM     22  N   UNL     1       1.058  13.808  21.331  0.00  0.00    +0.000 N 
ATOM     23  C   UNL     1       2.416  14.332  21.083  0.00  0.00    +0.000 C 
BRANCH  22  24
ATOM     24  C   UNL     1       0.232  14.445  22.388  0.00  0.00    +0.000 C 
BRANCH  24  28
ATOM     25  C   UNL     1      -3.875  13.016  22.366  0.00  0.00    +0.000 A 
ATOM     26  C   UNL     1      -2.853  12.260  22.932  0.00  0.00    +0.000 A 
ATOM     27  C   UNL     1      -1.544  12.752  22.971  0.00  0.00    +0.000 A 
ATOM     28  C   UNL     1      -1.231  14.032  22.477  0.00  0.00    +0.000 A 
ATOM     29  C   UNL     1      -2.294  14.853  22.100  0.00  0.00    +0.000 A 
ATOM     30  C   UNL     1      -3.586  14.319  21.952  0.00  0.00    +0.000 A 
BRANCH  25  34
ATOM     31  C   UNL     1      -7.172  11.724  21.076  0.00  0.00    +0.000 C 
ATOM     32  C   UNL     1      -5.762  12.235  20.970  0.00  0.00    +0.000 C 
ATOM     33  O   UNL     1      -5.234  12.344  19.870  0.00  0.00    +0.000 OA
ATOM     34  N   UNL     1      -5.186  12.518  22.198  0.00  0.00    +0.000 N 
ATOM     35  H   UNL     1      -5.680  12.235  23.035  0.00  0.00    +0.000 HD
ENDBRANCH  25  34
ENDBRANCH  24  28
ENDBRANCH  22  24
ENDBRANCH   1  22
TORSDOF 5
ENDMDL
MODEL 6
REMARK VINA RESULT:      -7.5      3.887      7.615
REMARK  Name = 
REMARK  9 active torsions:
REMARK  status: ('A' for Active; 'I' for Inactive)
REMARK    1  A    between atoms: C_1  and  C_2
REMARK    2  A    between atoms: N_4  and  C_5
REMARK    3  A    between atoms: C_8  and  C_9
REMARK    4  A    between atoms: C_9  and  N_10
REMARK    5  A    between atoms: N_10  and  C_11
REMARK    6  A    between atoms: N_10  and  C_12
REMARK    7  A    between atoms: C_13  and  C_14
REMARK    8  A    between atoms: C_19  and  C_20
REMARK    9  A    between atoms: C_26  and  C_27
REMARK                            x       y       z     vdW  Elec       q    Type
REMARK                         _______ _______ _______ _____ _____    ______ ____
ROOT
ATOM      1  C   UNL     1      -0.202  10.876  19.203  0.00  0.00    +0.000 A 
ATOM      2  C   UNL     1       0.732   9.841  19.107  0.00  0.00    +0.000 A 
ATOM      3  C   UNL     1       1.570   9.367  17.982  0.00  0.00    +0.000 C 
ATOM      4  N   UNL     1       0.947   9.247  20.327  0.00  0.00    +0.000 NA
ATOM      5  C   UNL     1       0.190   9.903  21.157  0.00  0.00    +0.000 A 
ATOM      6  C   UNL     1       0.003   9.712  22.557  0.00  0.00    +0.000 A 
ATOM      7  C   UNL     1      -0.870  10.466  23.209  0.00  0.00    +0.000 A 
ATOM      8  C   UNL     1      -1.590  11.576  22.593  0.00  0.00    +0.000 A 
ATOM      9  C   UNL     1      -1.434  11.732  21.267  0.00  0.00    +0.000 A 
ATOM     10  N   UNL     1      -0.549  10.903  20.557  0.00  0.00    +0.000 N 
ENDROOT
BRANCH   8  11
ATOM     11  C   UNL     1      -2.597  12.406  23.331  0.00  0.00    +0.000 C 
ATOM     12  O   UNL     1      -3.612  11.856  23.801  0.00  0.00    +0.000 OA
ATOM     13  N   UNL     1      -2.350  13.753  23.492  0.00  0.00    +0.000 N 
ATOM     14  C   UNL     1      -3.133  14.522  24.459  0.00  0.00    +0.000 C 
ATOM     15  C   UNL     1      -2.193  15.331  25.375  0.00  0.00    +0.000 C 
ATOM     16  N   UNL     1      -1.276  16.177  24.592  0.00  0.00    +0.000 N 
ATOM     17  C   UNL     1      -0.939  17.492  24.834  0.00  0.00    +0.000 C 
ATOM     18  C   UNL     1      -1.545  18.223  26.003  0.00  0.00    +0.000 C 
ATOM     19  O   UNL     1      -0.150  18.104  24.106  0.00  0.00    +0.000 OA
ATOM     20  C   UNL     1      -0.534  15.459  23.544  0.00  0.00    +0.000 C 
ATOM     21  C   UNL     1      -1.478  14.614  22.667  0.00  0.00    +0.000 C 
ENDBRANCH   8  11
BRANCH   1  22
ATOM     22  N   UNL     1      -0.714  11.795  18.310  0.00  0.00    +0.000 N 
ATOM     23  C   UNL     1      -2.047  11.424  17.796  0.00  0.00    +0.000 C 
BRANCH  22  24
ATOM     24  C   UNL     1      -0.411  13.233  18.529  0.00  0.00    +0.000 C 
BRANCH  24  28
ATOM     25  C   UNL     1       3.596  14.648  19.451  0.00  0.00    +0.000 A 
ATOM     26  C   UNL     1       2.560  14.770  20.372  0.00  0.00    +0.000 A 
ATOM     27  C   UNL     1       1.286  14.271  20.079  0.00  0.00    +0.000 A 
ATOM     28  C   UNL     1       1.027  13.602  18.868  0.00  0.00    +0.000 A 
ATOM     29  C   UNL     1       2.118  13.311  18.048  0.00  0.00    +0.000 A 
ATOM     30  C   UNL     1       3.365  13.912  18.287  0.00  0.00    +0.000 A 
BRANCH  25  34
ATOM     31  C   UNL     1       6.586  16.929  19.691  0.00  0.00    +0.000 C 
ATOM     32  C   UNL     1       5.157  16.567  19.398  0.00  0.00    +0.000 C 
ATOM     33  O   UNL     1       4.380  17.423  18.995  0.00  0.00    +0.000 OA
ATOM     34  N   UNL     1       4.864  15.236  19.652  0.00  0.00    +0.000 N 
ATOM     35  H   UNL     1       5.559  14.676  20.130  0.00  0.00    +0.000 HD
ENDBRANCH  25  34
ENDBRANCH  24  28
ENDBRANCH  22  24
ENDBRANCH   1  22
TORSDOF 5
ENDMDL
MODEL 7
REMARK VINA RESULT:      -7.4      2.389      8.807
REMARK  Name = 
REMARK  9 active torsions:
REMARK  status: ('A' for Active; 'I' for Inactive)
REMARK    1  A    between atoms: C_1  and  C_2
REMARK    2  A    between atoms: N_4  and  C_5
REMARK    3  A    between atoms: C_8  and  C_9
REMARK    4  A    between atoms: C_9  and  N_10
REMARK    5  A    between atoms: N_10  and  C_11
REMARK    6  A    between atoms: N_10  and  C_12
REMARK    7  A    between atoms: C_13  and  C_14
REMARK    8  A    between atoms: C_19  and  C_20
REMARK    9  A    between atoms: C_26  and  C_27
REMARK                            x       y       z     vdW  Elec       q    Type
REMARK                         _______ _______ _______ _____ _____    ______ ____
ROOT
ATOM      1  C   UNL     1       0.380  11.157  18.944  0.00  0.00    +0.000 A 
ATOM      2  C   UNL     1      -0.812  11.258  18.222  0.00  0.00    +0.000 A 
ATOM      3  C   UNL     1      -1.648  10.239  17.547  0.00  0.00    +0.000 C 
ATOM      4  N   UNL     1      -1.307  12.539  18.251  0.00  0.00    +0.000 NA
ATOM      5  C   UNL     1      -0.465  13.207  18.985  0.00  0.00    +0.000 A 
ATOM      6  C   UNL     1      -0.473  14.586  19.345  0.00  0.00    +0.000 A 
ATOM      7  C   UNL     1       0.525  15.080  20.063  0.00  0.00    +0.000 A 
ATOM      8  C   UNL     1       1.601  14.261  20.612  0.00  0.00    +0.000 A 
ATOM      9  C   UNL     1       1.621  12.968  20.244  0.00  0.00    +0.000 A 
ATOM     10  N   UNL     1       0.595  12.446  19.439  0.00  0.00    +0.000 N 
ENDROOT
BRANCH   8  11
ATOM     11  C   UNL     1       2.741  14.832  21.400  0.00  0.00    +0.000 C 
ATOM     12  O   UNL     1       2.646  14.909  22.641  0.00  0.00    +0.000 OA
ATOM     13  N   UNL     1       3.876  15.230  20.725  0.00  0.00    +0.000 N 
ATOM     14  C   UNL     1       5.107  15.492  21.470  0.00  0.00    +0.000 C 
ATOM     15  C   UNL     1       6.284  14.733  20.827  0.00  0.00    +0.000 C 
ATOM     16  N   UNL     1       6.413  15.053  19.394  0.00  0.00    +0.000 N 
ATOM     17  C   UNL     1       7.572  15.329  18.699  0.00  0.00    +0.000 C 
ATOM     18  C   UNL     1       8.897  15.338  19.415  0.00  0.00    +0.000 C 
ATOM     19  O   UNL     1       7.558  15.581  17.490  0.00  0.00    +0.000 OA
ATOM     20  C   UNL     1       5.171  14.891  18.623  0.00  0.00    +0.000 C 
ATOM     21  C   UNL     1       3.990  15.611  19.303  0.00  0.00    +0.000 C 
ENDBRANCH   8  11
BRANCH   1  22
ATOM     22  N   UNL     1       1.226  10.114  19.263  0.00  0.00    +0.000 N 
ATOM     23  C   UNL     1       0.772   9.335  20.432  0.00  0.00    +0.000 C 
BRANCH  22  24
ATOM     24  C   UNL     1       1.913   9.401  18.155  0.00  0.00    +0.000 C 
BRANCH  24  28
ATOM     25  C   UNL     1       3.296   5.314  18.694  0.00  0.00    +0.000 A 
ATOM     26  C   UNL     1       3.832   6.131  17.703  0.00  0.00    +0.000 A 
ATOM     27  C   UNL     1       3.408   7.457  17.569  0.00  0.00    +0.000 A 
ATOM     28  C   UNL     1       2.462   8.013  18.451  0.00  0.00    +0.000 A 
ATOM     29  C   UNL     1       2.089   7.248  19.557  0.00  0.00    +0.000 A 
ATOM     30  C   UNL     1       2.422   5.885  19.623  0.00  0.00    +0.000 A 
BRANCH  25  34
ATOM     31  C   UNL     1       3.490   1.565  18.378  0.00  0.00    +0.000 C 
ATOM     32  C   UNL     1       2.974   2.942  18.070  0.00  0.00    +0.000 C 
ATOM     33  O   UNL     1       2.094   3.092  17.232  0.00  0.00    +0.000 OA
ATOM     34  N   UNL     1       3.605   3.940  18.797  0.00  0.00    +0.000 N 
ATOM     35  H   UNL     1       4.422   3.693  19.341  0.00  0.00    +0.000 HD
ENDBRANCH  25  34
ENDBRANCH  24  28
ENDBRANCH  22  24
ENDBRANCH   1  22
TORSDOF 5
ENDMDL
MODEL 8
REMARK VINA RESULT:      -7.4      2.002      8.636
REMARK  Name = 
REMARK  9 active torsions:
REMARK  status: ('A' for Active; 'I' for Inactive)
REMARK    1  A    between atoms: C_1  and  C_2
REMARK    2  A    between atoms: N_4  and  C_5
REMARK    3  A    between atoms: C_8  and  C_9
REMARK    4  A    between atoms: C_9  and  N_10
REMARK    5  A    between atoms: N_10  and  C_11
REMARK    6  A    between atoms: N_10  and  C_12
REMARK    7  A    between atoms: C_13  and  C_14
REMARK    8  A    between atoms: C_19  and  C_20
REMARK    9  A    between atoms: C_26  and  C_27
REMARK                            x       y       z     vdW  Elec       q    Type
REMARK                         _______ _______ _______ _____ _____    ______ ____
ROOT
ATOM      1  C   UNL     1       0.030  10.401  20.038  0.00  0.00    +0.000 A 
ATOM      2  C   UNL     1      -0.447   9.922  21.261  0.00  0.00    +0.000 A 
ATOM      3  C   UNL     1      -0.783   8.556  21.724  0.00  0.00    +0.000 C 
ATOM      4  N   UNL     1      -0.510  10.923  22.200  0.00  0.00    +0.000 NA
ATOM      5  C   UNL     1      -0.067  11.982  21.589  0.00  0.00    +0.000 A 
ATOM      6  C   UNL     1       0.079  13.313  22.077  0.00  0.00    +0.000 A 
ATOM      7  C   UNL     1       0.502  14.267  21.259  0.00  0.00    +0.000 A 
ATOM      8  C   UNL     1       0.941  14.014  19.890  0.00  0.00    +0.000 A 
ATOM      9  C   UNL     1       0.773  12.764  19.426  0.00  0.00    +0.000 A 
ATOM     10  N   UNL     1       0.275  11.757  20.270  0.00  0.00    +0.000 N 
ENDROOT
BRANCH   8  11
ATOM     11  C   UNL     1       1.392  15.102  18.964  0.00  0.00    +0.000 C 
ATOM     12  O   UNL     1       0.547  15.879  18.479  0.00  0.00    +0.000 OA
ATOM     13  N   UNL     1       2.740  15.227  18.700  0.00  0.00    +0.000 N 
ATOM     14  C   UNL     1       3.244  16.446  18.067  0.00  0.00    +0.000 C 
ATOM     15  C   UNL     1       4.439  17.000  18.867  0.00  0.00    +0.000 C 
ATOM     16  N   UNL     1       5.488  15.980  19.043  0.00  0.00    +0.000 N 
ATOM     17  C   UNL     1       6.850  16.148  18.897  0.00  0.00    +0.000 C 
ATOM     18  C   UNL     1       7.407  17.489  18.500  0.00  0.00    +0.000 C 
ATOM     19  O   UNL     1       7.640  15.214  19.075  0.00  0.00    +0.000 OA
ATOM     20  C   UNL     1       5.007  14.704  19.592  0.00  0.00    +0.000 C 
ATOM     21  C   UNL     1       3.781  14.185  18.817  0.00  0.00    +0.000 C 
ENDBRANCH   8  11
BRANCH   1  22
ATOM     22  N   UNL     1       0.324   9.814  18.824  0.00  0.00    +0.000 N 
ATOM     23  C   UNL     1      -0.645  10.157  17.764  0.00  0.00    +0.000 C 
BRANCH  22  24
ATOM     24  C   UNL     1       1.752   9.641  18.453  0.00  0.00    +0.000 C 
BRANCH  24  28
ATOM     25  C   UNL     1       3.246   5.560  18.577  0.00  0.00    +0.000 A 
ATOM     26  C   UNL     1       3.672   6.452  17.598  0.00  0.00    +0.000 A 
ATOM     27  C   UNL     1       3.216   7.775  17.597  0.00  0.00    +0.000 A 
ATOM     28  C   UNL     1       2.350   8.249  18.600  0.00  0.00    +0.000 A 
ATOM     29  C   UNL     1       2.096   7.404  19.680  0.00  0.00    +0.000 A 
ATOM     30  C   UNL     1       2.456   6.047  19.621  0.00  0.00    +0.000 A 
BRANCH  25  34
ATOM     31  C   UNL     1       3.413   1.830  18.069  0.00  0.00    +0.000 C 
ATOM     32  C   UNL     1       2.829   3.208  17.933  0.00  0.00    +0.000 C 
ATOM     33  O   UNL     1       1.792   3.372  17.302  0.00  0.00    +0.000 OA
ATOM     34  N   UNL     1       3.585   4.189  18.555  0.00  0.00    +0.000 N 
ATOM     35  H   UNL     1       4.500   3.937  18.908  0.00  0.00    +0.000 HD
ENDBRANCH  25  34
ENDBRANCH  24  28
ENDBRANCH  22  24
ENDBRANCH   1  22
TORSDOF 5
ENDMDL
MODEL 9
REMARK VINA RESULT:      -7.3      4.765      9.796
REMARK  Name = 
REMARK  9 active torsions:
REMARK  status: ('A' for Active; 'I' for Inactive)
REMARK    1  A    between atoms: C_1  and  C_2
REMARK    2  A    between atoms: N_4  and  C_5
REMARK    3  A    between atoms: C_8  and  C_9
REMARK    4  A    between atoms: C_9  and  N_10
REMARK    5  A    between atoms: N_10  and  C_11
REMARK    6  A    between atoms: N_10  and  C_12
REMARK    7  A    between atoms: C_13  and  C_14
REMARK    8  A    between atoms: C_19  and  C_20
REMARK    9  A    between atoms: C_26  and  C_27
REMARK                            x       y       z     vdW  Elec       q    Type
REMARK                         _______ _______ _______ _____ _____    ______ ____
ROOT
ATOM      1  C   UNL     1       0.413  11.892  18.991  0.00  0.00    +0.000 A 
ATOM      2  C   UNL     1       1.589  11.331  18.487  0.00  0.00    +0.000 A 
ATOM      3  C   UNL     1       1.956   9.933  18.163  0.00  0.00    +0.000 C 
ATOM      4  N   UNL     1       2.507  12.300  18.161  0.00  0.00    +0.000 NA
ATOM      5  C   UNL     1       1.914  13.426  18.431  0.00  0.00    +0.000 A 
ATOM      6  C   UNL     1       2.400  14.759  18.299  0.00  0.00    +0.000 A 
ATOM      7  C   UNL     1       1.642  15.773  18.691  0.00  0.00    +0.000 A 
ATOM      8  C   UNL     1       0.269  15.615  19.160  0.00  0.00    +0.000 A 
ATOM      9  C   UNL     1      -0.173  14.355  19.312  0.00  0.00    +0.000 A 
ATOM     10  N   UNL     1       0.643  13.271  18.949  0.00  0.00    +0.000 N 
ENDROOT
BRANCH   8  11
ATOM     11  C   UNL     1      -0.571  16.765  19.628  0.00  0.00    +0.000 C 
ATOM     12  O   UNL     1      -0.942  17.624  18.803  0.00  0.00    +0.000 OA
ATOM     13  N   UNL     1      -0.932  16.820  20.957  0.00  0.00    +0.000 N 
ATOM     14  C   UNL     1      -1.992  17.734  21.382  0.00  0.00    +0.000 C 
ATOM     15  C   UNL     1      -3.029  16.978  22.236  0.00  0.00    +0.000 C 
ATOM     16  N   UNL     1      -2.391  16.287  23.371  0.00  0.00    +0.000 N 
ATOM     17  C   UNL     1      -2.830  16.246  24.678  0.00  0.00    +0.000 C 
ATOM     18  C   UNL     1      -4.086  16.974  25.076  0.00  0.00    +0.000 C 
ATOM     19  O   UNL     1      -2.211  15.627  25.549  0.00  0.00    +0.000 OA
ATOM     20  C   UNL     1      -1.258  15.427  22.998  0.00  0.00    +0.000 C 
ATOM     21  C   UNL     1      -0.254  16.178  22.102  0.00  0.00    +0.000 C 
ENDBRANCH   8  11
BRANCH   1  22
ATOM     22  N   UNL     1      -0.800  11.378  19.402  0.00  0.00    +0.000 N 
ATOM     23  C   UNL     1      -1.384  10.426  18.436  0.00  0.00    +0.000 C 
BRANCH  22  24
ATOM     24  C   UNL     1      -1.007  11.136  20.853  0.00  0.00    +0.000 C 
BRANCH  24  28
ATOM     25  C   UNL     1      -4.264  13.139  22.924  0.00  0.00    +0.000 A 
ATOM     26  C   UNL     1      -3.282  12.446  23.626  0.00  0.00    +0.000 A 
ATOM     27  C   UNL     1      -2.216  11.843  22.950  0.00  0.00    +0.000 A 
ATOM     28  C   UNL     1      -2.085  11.951  21.553  0.00  0.00    +0.000 A 
ATOM     29  C   UNL     1      -2.959  12.814  20.890  0.00  0.00    +0.000 A 
ATOM     30  C   UNL     1      -4.092  13.321  21.549  0.00  0.00    +0.000 A 
BRANCH  25  34
ATOM     31  C   UNL     1      -7.689  13.780  24.357  0.00  0.00    +0.000 C 
ATOM     32  C   UNL     1      -6.622  12.988  23.654  0.00  0.00    +0.000 C 
ATOM     33  O   UNL     1      -6.864  11.854  23.260  0.00  0.00    +0.000 OA
ATOM     34  N   UNL     1      -5.417  13.664  23.547  0.00  0.00    +0.000 N 
ATOM     35  H   UNL     1      -5.309  14.534  24.054  0.00  0.00    +0.000 HD
ENDBRANCH  25  34
ENDBRANCH  24  28
ENDBRANCH  22  24
ENDBRANCH   1  22
TORSDOF 5
ENDMDL
