MODEL 1
REMARK VINA RESULT:      -7.6      0.000      0.000
REMARK  Name = 
REMARK  7 active torsions:
REMARK  status: ('A' for Active; 'I' for Inactive)
REMARK    1  A    between atoms: N_1  and  C_2
REMARK    2  A    between atoms: C_5  and  S_6
REMARK    3  A    between atoms: S_6  and  N_9
REMARK    4  A    between atoms: N_9  and  C_10
REMARK    5  A    between atoms: N_9  and  C_19
REMARK    6  A    between atoms: C_10  and  C_11
REMARK    7  A    between atoms: C_23  and  O_24
REMARK                            x       y       z     vdW  Elec       q    Type
REMARK                         _______ _______ _______ _____ _____    ______ ____
ROOT
ATOM      1  N   UNL     1      -0.002  11.185  19.032  0.00  0.00    +0.000 N 
ENDROOT
BRANCH   1   2
ATOM      2  C   UNL     1      -1.320  11.119  18.467  0.00  0.00    +0.000 A 
ATOM      3  C   UNL     1      -2.393  11.828  19.008  0.00  0.00    +0.000 A 
ATOM      4  C   UNL     1      -3.654  11.707  18.424  0.00  0.00    +0.000 A 
ATOM      5  F   UNL     1      -4.688  12.388  18.940  0.00  0.00    +0.000 F 
ATOM      6  C   UNL     1      -3.862  10.898  17.312  0.00  0.00    +0.000 A 
ATOM      7  C   UNL     1      -2.790  10.197  16.776  0.00  0.00    +0.000 A 
ATOM      8  F   UNL     1      -2.957   9.420  15.697  0.00  0.00    +0.000 F 
ATOM      9  C   UNL     1      -1.525  10.294  17.353  0.00  0.00    +0.000 A 
BRANCH   6  10
ATOM     10  O   UNL     1      -5.103  10.782  16.749  0.00  0.00    +0.000 OA
ATOM     11  H   UNL     1      -5.236  11.544  16.156  0.00  0.00    +0.000 HD
ENDBRANCH   6  10
ENDBRANCH   1   2
BRANCH   1  12
ATOM     12  S   UNL     1       0.424  12.583  19.898  0.00  0.00    +0.000 S 
ATOM     13  O   UNL     1      -0.016  13.721  19.118  0.00  0.00    +0.000 OA
ATOM     14  O   UNL     1       1.809  12.470  20.314  0.00  0.00    +0.000 OA
BRANCH  12  18
ATOM     15  C   UNL     1      -2.600  12.278  23.340  0.00  0.00    +0.000 A 
ATOM     16  C   UNL     1      -2.495  13.454  22.591  0.00  0.00    +0.000 A 
ATOM     17  C   UNL     1      -1.484  13.620  21.629  0.00  0.00    +0.000 A 
ATOM     18  C   UNL     1      -0.563  12.593  21.404  0.00  0.00    +0.000 A 
ATOM     19  C   UNL     1      -0.647  11.421  22.166  0.00  0.00    +0.000 A 
ATOM     20  C   UNL     1      -1.670  11.262  23.109  0.00  0.00    +0.000 A 
BRANCH  15  21
ATOM     21  N   UNL     1      -3.757  12.013  24.077  0.00  0.00    +0.000 N 
ATOM     22  H   UNL     1      -4.281  12.827  24.380  0.00  0.00    +0.000 HD
ATOM     23  H   UNL     1      -3.666  11.306  24.801  0.00  0.00    +0.000 HD
ENDBRANCH  15  21
ENDBRANCH  12  18
ENDBRANCH   1  12
BRANCH   1  24
ATOM     24  C   UNL     1       1.088  10.397  18.416  0.00  0.00    +0.000 C 
BRANCH  24  25
ATOM     25  C   UNL     1       1.510   9.136  19.144  0.00  0.00    +0.000 A 
ATOM     26  C   UNL     1       1.099   8.812  20.445  0.00  0.00    +0.000 A 
ATOM     27  C   UNL     1       1.329   7.530  20.965  0.00  0.00    +0.000 A 
ATOM     28  C   UNL     1       1.976   6.568  20.189  0.00  0.00    +0.000 A 
ATOM     29 BR   UNL     1       2.135   4.794  20.825  0.00  0.00    +0.000 Br
ATOM     30  C   UNL     1       2.456   6.890  18.928  0.00  0.00    +0.000 A 
ATOM     31  C   UNL     1       2.225   8.168  18.424  0.00  0.00    +0.000 A 
ATOM     32  F   UNL     1       2.656   8.454  17.187  0.00  0.00    +0.000 F 
ENDBRANCH  24  25
ENDBRANCH   1  24
TORSDOF 7
ENDMDL
MODEL 2
REMARK VINA RESULT:      -7.5      0.105      1.532
REMARK  Name = 
REMARK  7 active torsions:
REMARK  status: ('A' for Active; 'I' for Inactive)
REMARK    1  A    between atoms: N_1  and  C_2
REMARK    2  A    between atoms: C_5  and  S_6
REMARK    3  A    between atoms: S_6  and  N_9
REMARK    4  A    between atoms: N_9  and  C_10
REMARK    5  A    between atoms: N_9  and  C_19
REMARK    6  A    between atoms: C_10  and  C_11
REMARK    7  A    between atoms: C_23  and  O_24
REMARK                            x       y       z     vdW  Elec       q    Type
REMARK                         _______ _______ _______ _____ _____    ______ ____
ROOT
ATOM      1  N   UNL     1       0.028  11.103  18.966  0.00  0.00    +0.000 N 
ENDROOT
BRANCH   1   2
ATOM      2  C   UNL     1      -1.287  10.998  18.400  0.00  0.00    +0.000 A 
ATOM      3  C   UNL     1      -1.556  10.187  17.297  0.00  0.00    +0.000 A 
ATOM      4  C   UNL     1      -2.852  10.142  16.782  0.00  0.00    +0.000 A 
ATOM      5  F   UNL     1      -3.113   9.364  15.723  0.00  0.00    +0.000 F 
ATOM      6  C   UNL     1      -3.881  10.886  17.349  0.00  0.00    +0.000 A 
ATOM      7  C   UNL     1      -3.610  11.688  18.449  0.00  0.00    +0.000 A 
ATOM      8  F   UNL     1      -4.584  12.405  19.025  0.00  0.00    +0.000 F 
ATOM      9  C   UNL     1      -2.318  11.757  18.969  0.00  0.00    +0.000 A 
BRANCH   6  10
ATOM     10  O   UNL     1      -5.147  10.839  16.834  0.00  0.00    +0.000 OA
ATOM     11  H   UNL     1      -5.108  11.150  15.911  0.00  0.00    +0.000 HD
ENDBRANCH   6  10
ENDBRANCH   1   2
BRANCH   1  12
ATOM     12  S   UNL     1       0.428  12.534  19.788  0.00  0.00    +0.000 S 
ATOM     13  O   UNL     1      -0.050  13.639  18.985  0.00  0.00    +0.000 OA
ATOM     14  O   UNL     1       1.821  12.468  20.188  0.00  0.00    +0.000 OA
BRANCH  12  18
ATOM     15  C   UNL     1      -2.544  12.250  23.276  0.00  0.00    +0.000 A 
ATOM     16  C   UNL     1      -2.471  13.411  22.499  0.00  0.00    +0.000 A 
ATOM     17  C   UNL     1      -1.476  13.574  21.521  0.00  0.00    +0.000 A 
ATOM     18  C   UNL     1      -0.539  12.560  21.307  0.00  0.00    +0.000 A 
ATOM     19  C   UNL     1      -0.590  11.404  22.095  0.00  0.00    +0.000 A 
ATOM     20  C   UNL     1      -1.598  11.247  23.055  0.00  0.00    +0.000 A 
BRANCH  15  21
ATOM     21  N   UNL     1      -3.687  11.980  24.034  0.00  0.00    +0.000 N 
ATOM     22  H   UNL     1      -3.774  12.504  24.898  0.00  0.00    +0.000 HD
ATOM     23  H   UNL     1      -3.924  10.998  24.139  0.00  0.00    +0.000 HD
ENDBRANCH  15  21
ENDBRANCH  12  18
ENDBRANCH   1  12
BRANCH   1  24
ATOM     24  C   UNL     1       1.132  10.315  18.376  0.00  0.00    +0.000 C 
BRANCH  24  25
ATOM     25  C   UNL     1       1.545   9.061  19.121  0.00  0.00    +0.000 A 
ATOM     26  C   UNL     1       1.117   8.749  20.419  0.00  0.00    +0.000 A 
ATOM     27  C   UNL     1       1.340   7.471  20.954  0.00  0.00    +0.000 A 
ATOM     28  C   UNL     1       1.997   6.502  20.196  0.00  0.00    +0.000 A 
ATOM     29 BR   UNL     1       2.148   4.734  20.849  0.00  0.00    +0.000 Br
ATOM     30  C   UNL     1       2.493   6.813  18.938  0.00  0.00    +0.000 A 
ATOM     31  C   UNL     1       2.269   8.087  18.419  0.00  0.00    +0.000 A 
ATOM     32  F   UNL     1       2.717   8.361  17.186  0.00  0.00    +0.000 F 
ENDBRANCH  24  25
ENDBRANCH   1  24
TORSDOF 7
ENDMDL
MODEL 3
REMARK VINA RESULT:      -7.4      7.484     10.284
REMARK  Name = 
REMARK  7 active torsions:
REMARK  status: ('A' for Active; 'I' for Inactive)
REMARK    1  A    between atoms: N_1  and  C_2
REMARK    2  A    between atoms: C_5  and  S_6
REMARK    3  A    between atoms: S_6  and  N_9
REMARK    4  A    between atoms: N_9  and  C_10
REMARK    5  A    between atoms: N_9  and  C_19
REMARK    6  A    between atoms: C_10  and  C_11
REMARK    7  A    between atoms: C_23  and  O_24
REMARK                            x       y       z     vdW  Elec       q    Type
REMARK                         _______ _______ _______ _____ _____    ______ ____
ROOT
ATOM      1  N   UNL     1       5.733   4.623  16.544  0.00  0.00    +0.000 N 
ENDROOT
BRANCH   1   2
ATOM      2  C   UNL     1       6.192   4.534  15.186  0.00  0.00    +0.000 A 
ATOM      3  C   UNL     1       7.306   5.243  14.734  0.00  0.00    +0.000 A 
ATOM      4  C   UNL     1       7.691   5.129  13.398  0.00  0.00    +0.000 A 
ATOM      5  F   UNL     1       8.761   5.808  12.960  0.00  0.00    +0.000 F 
ATOM      6  C   UNL     1       6.990   4.321  12.509  0.00  0.00    +0.000 A 
ATOM      7  C   UNL     1       5.884   3.616  12.965  0.00  0.00    +0.000 A 
ATOM      8  F   UNL     1       5.197   2.818  12.136  0.00  0.00    +0.000 F 
ATOM      9  C   UNL     1       5.476   3.726  14.293  0.00  0.00    +0.000 A 
BRANCH   6  10
ATOM     10  O   UNL     1       7.372   4.220  11.200  0.00  0.00    +0.000 OA
ATOM     11  H   UNL     1       7.448   3.273  10.982  0.00  0.00    +0.000 HD
ENDBRANCH   6  10
ENDBRANCH   1   2
BRANCH   1  12
ATOM     12  S   UNL     1       6.900   4.666  17.777  0.00  0.00    +0.000 S 
ATOM     13  O   UNL     1       8.126   4.126  17.227  0.00  0.00    +0.000 OA
ATOM     14  O   UNL     1       6.326   4.099  18.982  0.00  0.00    +0.000 OA
BRANCH  12  18
ATOM     15  C   UNL     1       8.259   9.033  18.184  0.00  0.00    +0.000 A 
ATOM     16  C   UNL     1       8.731   8.058  19.069  0.00  0.00    +0.000 A 
ATOM     17  C   UNL     1       8.222   6.748  19.053  0.00  0.00    +0.000 A 
ATOM     18  C   UNL     1       7.229   6.400  18.133  0.00  0.00    +0.000 A 
ATOM     19  C   UNL     1       6.734   7.376  17.259  0.00  0.00    +0.000 A 
ATOM     20  C   UNL     1       7.263   8.672  17.274  0.00  0.00    +0.000 A 
BRANCH  15  21
ATOM     21  N   UNL     1       8.958  10.232  18.018  0.00  0.00    +0.000 N 
ATOM     22  H   UNL     1       8.859  10.675  17.111  0.00  0.00    +0.000 HD
ATOM     23  H   UNL     1       9.914  10.235  18.360  0.00  0.00    +0.000 HD
ENDBRANCH  15  21
ENDBRANCH  12  18
ENDBRANCH   1  12
BRANCH   1  24
ATOM     24  C   UNL     1       4.388   4.112  16.885  0.00  0.00    +0.000 C 
BRANCH  24  25
ATOM     25  C   UNL     1       3.510   5.018  17.726  0.00  0.00    +0.000 A 
ATOM     26  C   UNL     1       2.851   4.602  18.892  0.00  0.00    +0.000 A 
ATOM     27  C   UNL     1       2.256   5.542  19.746  0.00  0.00    +0.000 A 
ATOM     28  C   UNL     1       2.311   6.900  19.435  0.00  0.00    +0.000 A 
ATOM     29 BR   UNL     1       1.658   8.178  20.668  0.00  0.00    +0.000 Br
ATOM     30  C   UNL     1       2.893   7.326  18.251  0.00  0.00    +0.000 A 
ATOM     31  C   UNL     1       3.478   6.383  17.408  0.00  0.00    +0.000 A 
ATOM     32  F   UNL     1       4.075   6.812  16.287  0.00  0.00    +0.000 F 
ENDBRANCH  24  25
ENDBRANCH   1  24
TORSDOF 7
ENDMDL
MODEL 4
REMARK VINA RESULT:      -7.4      5.492      9.612
REMARK  Name = 
REMARK  7 active torsions:
REMARK  status: ('A' for Active; 'I' for Inactive)
REMARK    1  A    between atoms: N_1  and  C_2
REMARK    2  A    between atoms: C_5  and  S_6
REMARK    3  A    between atoms: S_6  and  N_9
REMARK    4  A    between atoms: N_9  and  C_10
REMARK    5  A    between atoms: N_9  and  C_19
REMARK    6  A    between atoms: C_10  and  C_11
REMARK    7  A    between atoms: C_23  and  O_24
REMARK                            x       y       z     vdW  Elec       q    Type
REMARK                         _______ _______ _______ _____ _____    ______ ____
ROOT
ATOM      1  N   UNL     1       3.034   5.919  18.517  0.00  0.00    +0.000 N 
ENDROOT
BRANCH   1   2
ATOM      2  C   UNL     1       4.358   5.464  18.200  0.00  0.00    +0.000 A 
ATOM      3  C   UNL     1       4.657   4.848  16.984  0.00  0.00    +0.000 A 
ATOM      4  C   UNL     1       5.959   4.410  16.743  0.00  0.00    +0.000 A 
ATOM      5  F   UNL     1       6.250   3.819  15.575  0.00  0.00    +0.000 F 
ATOM      6  C   UNL     1       6.966   4.578  17.688  0.00  0.00    +0.000 A 
ATOM      7  C   UNL     1       6.664   5.195  18.894  0.00  0.00    +0.000 A 
ATOM      8  F   UNL     1       7.615   5.383  19.818  0.00  0.00    +0.000 F 
ATOM      9  C   UNL     1       5.365   5.627  19.160  0.00  0.00    +0.000 A 
BRANCH   6  10
ATOM     10  O   UNL     1       8.238   4.142  17.443  0.00  0.00    +0.000 OA
ATOM     11  H   UNL     1       8.603   3.797  18.279  0.00  0.00    +0.000 HD
ENDBRANCH   6  10
ENDBRANCH   1   2
BRANCH   1  12
ATOM     12  S   UNL     1       1.802   4.756  18.647  0.00  0.00    +0.000 S 
ATOM     13  O   UNL     1       1.289   4.524  17.314  0.00  0.00    +0.000 OA
ATOM     14  O   UNL     1       0.906   5.144  19.720  0.00  0.00    +0.000 OA
BRANCH  12  18
ATOM     15  C   UNL     1       4.414   1.165  19.816  0.00  0.00    +0.000 A 
ATOM     16  C   UNL     1       3.846   1.243  18.540  0.00  0.00    +0.000 A 
ATOM     17  C   UNL     1       2.931   2.258  18.209  0.00  0.00    +0.000 A 
ATOM     18  C   UNL     1       2.581   3.216  19.163  0.00  0.00    +0.000 A 
ATOM     19  C   UNL     1       3.127   3.133  20.449  0.00  0.00    +0.000 A 
ATOM     20  C   UNL     1       4.050   2.127  20.761  0.00  0.00    +0.000 A 
BRANCH  15  21
ATOM     21  N   UNL     1       5.517   0.340  20.046  0.00  0.00    +0.000 N 
ATOM     22  H   UNL     1       5.305  -0.635  20.231  0.00  0.00    +0.000 HD
ATOM     23  H   UNL     1       6.227   0.717  20.666  0.00  0.00    +0.000 HD
ENDBRANCH  15  21
ENDBRANCH  12  18
ENDBRANCH   1  12
BRANCH   1  24
ATOM     24  C   UNL     1       2.642   7.301  18.166  0.00  0.00    +0.000 C 
BRANCH  24  25
ATOM     25  C   UNL     1       1.781   8.040  19.172  0.00  0.00    +0.000 A 
ATOM     26  C   UNL     1       1.838   7.822  20.556  0.00  0.00    +0.000 A 
ATOM     27  C   UNL     1       1.195   8.699  21.441  0.00  0.00    +0.000 A 
ATOM     28  C   UNL     1       0.487   9.795  20.947  0.00  0.00    +0.000 A 
ATOM     29 BR   UNL     1      -0.237  11.069  22.143  0.00  0.00    +0.000 Br
ATOM     30  C   UNL     1       0.357   9.987  19.579  0.00  0.00    +0.000 A 
ATOM     31  C   UNL     1       0.997   9.107  18.709  0.00  0.00    +0.000 A 
ATOM     32  F   UNL     1       0.899   9.327  17.391  0.00  0.00    +0.000 F 
ENDBRANCH  24  25
ENDBRANCH   1  24
TORSDOF 7
ENDMDL
MODEL 5
REMARK VINA RESULT:      -7.4      5.477      9.504
REMARK  Name = 
REMARK  7 active torsions:
REMARK  status: ('A' for Active; 'I' for Inactive)
REMARK    1  A    between atoms: N_1  and  C_2
REMARK    2  A    between atoms: C_5  and  S_6
REMARK    3  A    between atoms: S_6  and  N_9
REMARK    4  A    between atoms: N_9  and  C_10
REMARK    5  A    between atoms: N_9  and  C_19
REMARK    6  A    between atoms: C_10  and  C_11
REMARK    7  A    between atoms: C_23  and  O_24
REMARK                            x       y       z     vdW  Elec       q    Type
REMARK                         _______ _______ _______ _____ _____    ______ ____
ROOT
ATOM      1  N   UNL     1       2.996   5.929  18.585  0.00  0.00    +0.000 N 
ENDROOT
BRANCH   1   2
ATOM      2  C   UNL     1       4.330   5.473  18.310  0.00  0.00    +0.000 A 
ATOM      3  C   UNL     1       5.369   5.630  19.227  0.00  0.00    +0.000 A 
ATOM      4  C   UNL     1       6.648   5.183  18.892  0.00  0.00    +0.000 A 
ATOM      5  F   UNL     1       7.649   5.330  19.772  0.00  0.00    +0.000 F 
ATOM      6  C   UNL     1       6.905   4.582  17.665  0.00  0.00    +0.000 A 
ATOM      7  C   UNL     1       5.867   4.426  16.757  0.00  0.00    +0.000 A 
ATOM      8  F   UNL     1       6.081   3.838  15.572  0.00  0.00    +0.000 F 
ATOM      9  C   UNL     1       4.585   4.878  17.067  0.00  0.00    +0.000 A 
BRANCH   6  10
ATOM     10  O   UNL     1       8.163   4.151  17.344  0.00  0.00    +0.000 OA
ATOM     11  H   UNL     1       8.161   3.176  17.366  0.00  0.00    +0.000 HD
ENDBRANCH   6  10
ENDBRANCH   1   2
BRANCH   1  12
ATOM     12  S   UNL     1       1.770   4.762  18.726  0.00  0.00    +0.000 S 
ATOM     13  O   UNL     1       1.238   4.536  17.399  0.00  0.00    +0.000 OA
ATOM     14  O   UNL     1       0.888   5.142  19.814  0.00  0.00    +0.000 OA
BRANCH  12  18
ATOM     15  C   UNL     1       4.407   1.173  19.840  0.00  0.00    +0.000 A 
ATOM     16  C   UNL     1       3.825   1.258  18.572  0.00  0.00    +0.000 A 
ATOM     17  C   UNL     1       2.903   2.271  18.257  0.00  0.00    +0.000 A 
ATOM     18  C   UNL     1       2.560   3.222  19.222  0.00  0.00    +0.000 A 
ATOM     19  C   UNL     1       3.121   3.131  20.502  0.00  0.00    +0.000 A 
ATOM     20  C   UNL     1       4.051   2.127  20.797  0.00  0.00    +0.000 A 
BRANCH  15  21
ATOM     21  N   UNL     1       5.516   0.350  20.053  0.00  0.00    +0.000 N 
ATOM     22  H   UNL     1       5.308  -0.618  20.275  0.00  0.00    +0.000 HD
ATOM     23  H   UNL     1       6.251   0.742  20.634  0.00  0.00    +0.000 HD
ENDBRANCH  15  21
ENDBRANCH  12  18
ENDBRANCH   1  12
BRANCH   1  24
ATOM     24  C   UNL     1       2.603   7.297  18.183  0.00  0.00    +0.000 C 
BRANCH  24  25
ATOM     25  C   UNL     1       1.749   8.075  19.164  0.00  0.00    +0.000 A 
ATOM     26  C   UNL     1       1.798   7.894  20.554  0.00  0.00    +0.000 A 
ATOM     27  C   UNL     1       1.163   8.804  21.412  0.00  0.00    +0.000 A 
ATOM     28  C   UNL     1       0.472   9.895  20.885  0.00  0.00    +0.000 A 
ATOM     29 BR   UNL     1      -0.239  11.212  22.042  0.00  0.00    +0.000 Br
ATOM     30  C   UNL     1       0.349  10.051  19.512  0.00  0.00    +0.000 A 
ATOM     31  C   UNL     1       0.981   9.138  18.669  0.00  0.00    +0.000 A 
ATOM     32  F   UNL     1       0.890   9.324  17.345  0.00  0.00    +0.000 F 
ENDBRANCH  24  25
ENDBRANCH   1  24
TORSDOF 7
ENDMDL
MODEL 6
REMARK VINA RESULT:      -7.4      5.980      9.229
REMARK  Name = 
REMARK  7 active torsions:
REMARK  status: ('A' for Active; 'I' for Inactive)
REMARK    1  A    between atoms: N_1  and  C_2
REMARK    2  A    between atoms: C_5  and  S_6
REMARK    3  A    between atoms: S_6  and  N_9
REMARK    4  A    between atoms: N_9  and  C_10
REMARK    5  A    between atoms: N_9  and  C_19
REMARK    6  A    between atoms: C_10  and  C_11
REMARK    7  A    between atoms: C_23  and  O_24
REMARK                            x       y       z     vdW  Elec       q    Type
REMARK                         _______ _______ _______ _____ _____    ______ ____
ROOT
ATOM      1  N   UNL     1       3.723   5.406  17.877  0.00  0.00    +0.000 N 
ENDROOT
BRANCH   1   2
ATOM      2  C   UNL     1       5.058   5.850  18.164  0.00  0.00    +0.000 A 
ATOM      3  C   UNL     1       5.803   5.321  19.219  0.00  0.00    +0.000 A 
ATOM      4  C   UNL     1       7.088   5.809  19.458  0.00  0.00    +0.000 A 
ATOM      5  F   UNL     1       7.807   5.303  20.470  0.00  0.00    +0.000 F 
ATOM      6  C   UNL     1       7.642   6.808  18.664  0.00  0.00    +0.000 A 
ATOM      7  C   UNL     1       6.898   7.328  17.614  0.00  0.00    +0.000 A 
ATOM      8  F   UNL     1       7.410   8.281  16.824  0.00  0.00    +0.000 F 
ATOM      9  C   UNL     1       5.607   6.864  17.367  0.00  0.00    +0.000 A 
BRANCH   6  10
ATOM     10  O   UNL     1       8.901   7.282  18.910  0.00  0.00    +0.000 OA
ATOM     11  H   UNL     1       9.058   8.038  18.314  0.00  0.00    +0.000 HD
ENDBRANCH   6  10
ENDBRANCH   1   2
BRANCH   1  12
ATOM     12  S   UNL     1       3.497   3.769  17.483  0.00  0.00    +0.000 S 
ATOM     13  O   UNL     1       4.810   3.176  17.341  0.00  0.00    +0.000 OA
ATOM     14  O   UNL     1       2.532   3.678  16.404  0.00  0.00    +0.000 OA
BRANCH  12  18
ATOM     15  C   UNL     1       1.472   2.431  21.380  0.00  0.00    +0.000 A 
ATOM     16  C   UNL     1       2.867   2.452  21.277  0.00  0.00    +0.000 A 
ATOM     17  C   UNL     1       3.505   2.721  20.054  0.00  0.00    +0.000 A 
ATOM     18  C   UNL     1       2.740   2.980  18.914  0.00  0.00    +0.000 A 
ATOM     19  C   UNL     1       1.343   2.938  19.003  0.00  0.00    +0.000 A 
ATOM     20  C   UNL     1       0.720   2.686  20.231  0.00  0.00    +0.000 A 
BRANCH  15  21
ATOM     21  N   UNL     1       0.858   2.445  22.635  0.00  0.00    +0.000 N 
ATOM     22  H   UNL     1       0.180   1.709  22.801  0.00  0.00    +0.000 HD
ATOM     23  H   UNL     1       0.546   3.354  22.963  0.00  0.00    +0.000 HD
ENDBRANCH  15  21
ENDBRANCH  12  18
ENDBRANCH   1  12
BRANCH   1  24
ATOM     24  C   UNL     1       2.731   6.380  17.372  0.00  0.00    +0.000 C 
BRANCH  24  25
ATOM     25  C   UNL     1       2.325   7.490  18.322  0.00  0.00    +0.000 A 
ATOM     26  C   UNL     1       2.009   8.792  17.909  0.00  0.00    +0.000 A 
ATOM     27  C   UNL     1       1.416   9.697  18.802  0.00  0.00    +0.000 A 
ATOM     28  C   UNL     1       1.141   9.306  20.112  0.00  0.00    +0.000 A 
ATOM     29 BR   UNL     1       0.189  10.466  21.263  0.00  0.00    +0.000 Br
ATOM     30  C   UNL     1       1.512   8.047  20.561  0.00  0.00    +0.000 A 
ATOM     31  C   UNL     1       2.105   7.158  19.667  0.00  0.00    +0.000 A 
ATOM     32  F   UNL     1       2.421   5.930  20.102  0.00  0.00    +0.000 F 
ENDBRANCH  24  25
ENDBRANCH   1  24
TORSDOF 7
ENDMDL
MODEL 7
REMARK VINA RESULT:      -7.3      5.976      9.236
REMARK  Name = 
REMARK  7 active torsions:
REMARK  status: ('A' for Active; 'I' for Inactive)
REMARK    1  A    between atoms: N_1  and  C_2
REMARK    2  A    between atoms: C_5  and  S_6
REMARK    3  A    between atoms: S_6  and  N_9
REMARK    4  A    between atoms: N_9  and  C_10
REMARK    5  A    between atoms: N_9  and  C_19
REMARK    6  A    between atoms: C_10  and  C_11
REMARK    7  A    between atoms: C_23  and  O_24
REMARK                            x       y       z     vdW  Elec       q    Type
REMARK                         _______ _______ _______ _____ _____    ______ ____
ROOT
ATOM      1  N   UNL     1       3.700   5.429  17.882  0.00  0.00    +0.000 N 
ENDROOT
BRANCH   1   2
ATOM      2  C   UNL     1       5.026   5.924  18.122  0.00  0.00    +0.000 A 
ATOM      3  C   UNL     1       5.608   6.903  17.316  0.00  0.00    +0.000 A 
ATOM      4  C   UNL     1       6.908   7.328  17.590  0.00  0.00    +0.000 A 
ATOM      5  F   UNL     1       7.470   8.270  16.819  0.00  0.00    +0.000 F 
ATOM      6  C   UNL     1       7.634   6.799  18.653  0.00  0.00    +0.000 A 
ATOM      7  C   UNL     1       7.049   5.828  19.453  0.00  0.00    +0.000 A 
ATOM      8  F   UNL     1       7.718   5.309  20.492  0.00  0.00    +0.000 F 
ATOM      9  C   UNL     1       5.756   5.379  19.188  0.00  0.00    +0.000 A 
BRANCH   6  10
ATOM     10  O   UNL     1       8.909   7.220  18.910  0.00  0.00    +0.000 OA
ATOM     11  H   UNL     1       8.861   7.940  19.566  0.00  0.00    +0.000 HD
ENDBRANCH   6  10
ENDBRANCH   1   2
BRANCH   1  12
ATOM     12  S   UNL     1       3.522   3.783  17.502  0.00  0.00    +0.000 S 
ATOM     13  O   UNL     1       4.851   3.222  17.388  0.00  0.00    +0.000 OA
ATOM     14  O   UNL     1       2.577   3.657  16.409  0.00  0.00    +0.000 OA
BRANCH  12  18
ATOM     15  C   UNL     1       1.498   2.434  21.397  0.00  0.00    +0.000 A 
ATOM     16  C   UNL     1       2.893   2.438  21.287  0.00  0.00    +0.000 A 
ATOM     17  C   UNL     1       3.528   2.711  20.063  0.00  0.00    +0.000 A 
ATOM     18  C   UNL     1       2.762   2.990  18.929  0.00  0.00    +0.000 A 
ATOM     19  C   UNL     1       1.365   2.965  19.024  0.00  0.00    +0.000 A 
ATOM     20  C   UNL     1       0.744   2.709  20.254  0.00  0.00    +0.000 A 
BRANCH  15  21
ATOM     21  N   UNL     1       0.891   2.444  22.655  0.00  0.00    +0.000 N 
ATOM     22  H   UNL     1       0.915   1.565  23.161  0.00  0.00    +0.000 HD
ATOM     23  H   UNL     1      -0.012   2.906  22.704  0.00  0.00    +0.000 HD
ENDBRANCH  15  21
ENDBRANCH  12  18
ENDBRANCH   1  12
BRANCH   1  24
ATOM     24  C   UNL     1       2.657   6.363  17.407  0.00  0.00    +0.000 C 
BRANCH  24  25
ATOM     25  C   UNL     1       2.272   7.488  18.349  0.00  0.00    +0.000 A 
ATOM     26  C   UNL     1       1.941   8.782  17.922  0.00  0.00    +0.000 A 
ATOM     27  C   UNL     1       1.368   9.700  18.815  0.00  0.00    +0.000 A 
ATOM     28  C   UNL     1       1.129   9.330  20.138  0.00  0.00    +0.000 A 
ATOM     29 BR   UNL     1       0.204  10.506  21.295  0.00  0.00    +0.000 Br
ATOM     30  C   UNL     1       1.516   8.080  20.599  0.00  0.00    +0.000 A 
ATOM     31  C   UNL     1       2.089   7.178  19.704  0.00  0.00    +0.000 A 
ATOM     32  F   UNL     1       2.420   5.958  20.151  0.00  0.00    +0.000 F 
ENDBRANCH  24  25
ENDBRANCH   1  24
TORSDOF 7
ENDMDL
MODEL 8
REMARK VINA RESULT:      -7.3      3.541      5.830
REMARK  Name = 
REMARK  7 active torsions:
REMARK  status: ('A' for Active; 'I' for Inactive)
REMARK    1  A    between atoms: N_1  and  C_2
REMARK    2  A    between atoms: C_5  and  S_6
REMARK    3  A    between atoms: S_6  and  N_9
REMARK    4  A    between atoms: N_9  and  C_10
REMARK    5  A    between atoms: N_9  and  C_19
REMARK    6  A    between atoms: C_10  and  C_11
REMARK    7  A    between atoms: C_23  and  O_24
REMARK                            x       y       z     vdW  Elec       q    Type
REMARK                         _______ _______ _______ _____ _____    ______ ____
ROOT
ATOM      1  N   UNL     1       0.569  10.744  20.379  0.00  0.00    +0.000 N 
ENDROOT
BRANCH   1   2
ATOM      2  C   UNL     1      -0.606  11.071  19.622  0.00  0.00    +0.000 A 
ATOM      3  C   UNL     1      -1.623  11.872  20.143  0.00  0.00    +0.000 A 
ATOM      4  C   UNL     1      -2.749  12.137  19.364  0.00  0.00    +0.000 A 
ATOM      5  F   UNL     1      -3.728  12.907  19.861  0.00  0.00    +0.000 F 
ATOM      6  C   UNL     1      -2.876  11.624  18.077  0.00  0.00    +0.000 A 
ATOM      7  C   UNL     1      -1.860  10.831  17.562  0.00  0.00    +0.000 A 
ATOM      8  F   UNL     1      -1.947  10.334  16.321  0.00  0.00    +0.000 F 
ATOM      9  C   UNL     1      -0.733  10.542  18.330  0.00  0.00    +0.000 A 
BRANCH   6  10
ATOM     10  O   UNL     1      -3.986  11.887  17.323  0.00  0.00    +0.000 OA
ATOM     11  H   UNL     1      -4.522  12.548  17.798  0.00  0.00    +0.000 HD
ENDBRANCH   6  10
ENDBRANCH   1   2
BRANCH   1  12
ATOM     12  S   UNL     1       0.571   9.289  21.257  0.00  0.00    +0.000 S 
ATOM     13  O   UNL     1      -0.774   8.756  21.206  0.00  0.00    +0.000 OA
ATOM     14  O   UNL     1       1.222   9.515  22.533  0.00  0.00    +0.000 OA
BRANCH  12  18
ATOM     15  C   UNL     1       2.600   6.123  18.623  0.00  0.00    +0.000 A 
ATOM     16  C   UNL     1       2.232   5.821  19.938  0.00  0.00    +0.000 A 
ATOM     17  C   UNL     1       1.741   6.812  20.805  0.00  0.00    +0.000 A 
ATOM     18  C   UNL     1       1.607   8.127  20.352  0.00  0.00    +0.000 A 
ATOM     19  C   UNL     1       1.995   8.443  19.044  0.00  0.00    +0.000 A 
ATOM     20  C   UNL     1       2.466   7.443  18.185  0.00  0.00    +0.000 A 
BRANCH  15  21
ATOM     21  N   UNL     1       2.814   5.098  17.698  0.00  0.00    +0.000 N 
ATOM     22  H   UNL     1       1.996   4.549  17.454  0.00  0.00    +0.000 HD
ATOM     23  H   UNL     1       3.642   4.531  17.852  0.00  0.00    +0.000 HD
ENDBRANCH  15  21
ENDBRANCH  12  18
ENDBRANCH   1  12
BRANCH   1  24
ATOM     24  C   UNL     1       1.450  11.834  20.850  0.00  0.00    +0.000 C 
BRANCH  24  25
ATOM     25  C   UNL     1       1.590  13.037  19.938  0.00  0.00    +0.000 A 
ATOM     26  C   UNL     1       1.198  14.335  20.294  0.00  0.00    +0.000 A 
ATOM     27  C   UNL     1       1.571  15.432  19.505  0.00  0.00    +0.000 A 
ATOM     28  C   UNL     1       2.334  15.236  18.353  0.00  0.00    +0.000 A 
ATOM     29 BR   UNL     1       2.979  16.726  17.383  0.00  0.00    +0.000 Br
ATOM     30  C   UNL     1       2.670  13.955  17.943  0.00  0.00    +0.000 A 
ATOM     31  C   UNL     1       2.289  12.872  18.734  0.00  0.00    +0.000 A 
ATOM     32  F   UNL     1       2.656  11.641  18.349  0.00  0.00    +0.000 F 
ENDBRANCH  24  25
ENDBRANCH   1  24
TORSDOF 7
ENDMDL
MODEL 9
REMARK VINA RESULT:      -7.3      5.800      8.862
REMARK  Name = 
REMARK  7 active torsions:
REMARK  status: ('A' for Active; 'I' for Inactive)
REMARK    1  A    between atoms: N_1  and  C_2
REMARK    2  A    between atoms: C_5  and  S_6
REMARK    3  A    between atoms: S_6  and  N_9
REMARK    4  A    between atoms: N_9  and  C_10
REMARK    5  A    between atoms: N_9  and  C_19
REMARK    6  A    between atoms: C_10  and  C_11
REMARK    7  A    between atoms: C_23  and  O_24
REMARK                            x       y       z     vdW  Elec       q    Type
REMARK                         _______ _______ _______ _____ _____    ______ ____
ROOT
ATOM      1  N   UNL     1       3.644   5.532  18.278  0.00  0.00    +0.000 N 
ENDROOT
BRANCH   1   2
ATOM      2  C   UNL     1       2.806   4.644  19.035  0.00  0.00    +0.000 A 
ATOM      3  C   UNL     1       1.811   3.873  18.433  0.00  0.00    +0.000 A 
ATOM      4  C   UNL     1       1.017   3.044  19.227  0.00  0.00    +0.000 A 
ATOM      5  F   UNL     1       0.061   2.301  18.652  0.00  0.00    +0.000 F 
ATOM      6  C   UNL     1       1.201   2.968  20.603  0.00  0.00    +0.000 A 
ATOM      7  C   UNL     1       2.195   3.735  21.196  0.00  0.00    +0.000 A 
ATOM      8  F   UNL     1       2.405   3.672  22.518  0.00  0.00    +0.000 F 
ATOM      9  C   UNL     1       2.989   4.579  20.422  0.00  0.00    +0.000 A 
BRANCH   6  10
ATOM     10  O   UNL     1       0.415   2.155  21.372  0.00  0.00    +0.000 OA
ATOM     11  H   UNL     1       0.102   2.676  22.135  0.00  0.00    +0.000 HD
ENDBRANCH   6  10
ENDBRANCH   1   2
BRANCH   1  12
ATOM     12  S   UNL     1       4.868   4.847  17.319  0.00  0.00    +0.000 S 
ATOM     13  O   UNL     1       4.494   5.051  15.936  0.00  0.00    +0.000 OA
ATOM     14  O   UNL     1       5.154   3.513  17.812  0.00  0.00    +0.000 OA
BRANCH  12  18
ATOM     15  C   UNL     1       8.275   7.689  18.499  0.00  0.00    +0.000 A 
ATOM     16  C   UNL     1       7.479   7.962  17.383  0.00  0.00    +0.000 A 
ATOM     17  C   UNL     1       6.526   7.038  16.921  0.00  0.00    +0.000 A 
ATOM     18  C   UNL     1       6.357   5.822  17.588  0.00  0.00    +0.000 A 
ATOM     19  C   UNL     1       7.166   5.530  18.693  0.00  0.00    +0.000 A 
ATOM     20  C   UNL     1       8.100   6.467  19.153  0.00  0.00    +0.000 A 
BRANCH  15  21
ATOM     21  N   UNL     1       9.006   8.711  19.111  0.00  0.00    +0.000 N 
ATOM     22  H   UNL     1       9.386   8.492  20.026  0.00  0.00    +0.000 HD
ATOM     23  H   UNL     1       8.592   9.637  19.065  0.00  0.00    +0.000 HD
ENDBRANCH  15  21
ENDBRANCH  12  18
ENDBRANCH   1  12
BRANCH   1  24
ATOM     24  C   UNL     1       3.831   6.922  18.746  0.00  0.00    +0.000 C 
BRANCH  24  25
ATOM     25  C   UNL     1       2.577   7.756  18.920  0.00  0.00    +0.000 A 
ATOM     26  C   UNL     1       1.901   7.902  20.139  0.00  0.00    +0.000 A 
ATOM     27  C   UNL     1       0.895   8.870  20.283  0.00  0.00    +0.000 A 
ATOM     28  C   UNL     1       0.558   9.691  19.207  0.00  0.00    +0.000 A 
ATOM     29 BR   UNL     1      -0.675  11.105  19.449  0.00  0.00    +0.000 Br
ATOM     30  C   UNL     1       1.163   9.513  17.972  0.00  0.00    +0.000 A 
ATOM     31  C   UNL     1       2.157   8.546  17.840  0.00  0.00    +0.000 A 
ATOM     32  F   UNL     1       2.764   8.412  16.652  0.00  0.00    +0.000 F 
ENDBRANCH  24  25
ENDBRANCH   1  24
TORSDOF 7
ENDMDL
