MODEL 1
REMARK VINA RESULT:      -8.7      0.000      0.000
REMARK  Name = 
REMARK  3 active torsions:
REMARK  status: ('A' for Active; 'I' for Inactive)
REMARK    1  A    between atoms: C_2  and  C_19
REMARK    2  A    between atoms: N_3  and  N_4
REMARK    3  A    between atoms: C_5  and  C_6
REMARK                            x       y       z     vdW  Elec       q    Type
REMARK                         _______ _______ _______ _____ _____    ______ ____
ROOT
ATOM      1  N   UNL     1       4.865   3.893  17.357  0.00  0.00    +0.000 N 
ATOM      2  C   UNL     1       5.376   4.758  18.325  0.00  0.00    +0.000 A 
ATOM      3  N   UNL     1       4.688   5.125  19.364  0.00  0.00    +0.000 NA
ATOM      4  C   UNL     1       3.387   4.622  19.521  0.00  0.00    +0.000 A 
ATOM      5  C   UNL     1       2.642   5.001  20.639  0.00  0.00    +0.000 A 
ATOM      6  C   UNL     1       1.317   4.576  20.798  0.00  0.00    +0.000 A 
ATOM      7  C   UNL     1       0.730   3.737  19.850  0.00  0.00    +0.000 A 
ATOM      8  C   UNL     1       1.463   3.341  18.734  0.00  0.00    +0.000 A 
ATOM      9  C   UNL     1       2.775   3.804  18.567  0.00  0.00    +0.000 A 
ATOM     10  C   UNL     1       3.526   3.509  17.343  0.00  0.00    +0.000 A 
ATOM     11  O   UNL     1       2.931   3.052  16.361  0.00  0.00    +0.000 OA
ENDROOT
BRANCH   1  14
ATOM     12  O   UNL     1       5.007   5.446  15.079  0.00  0.00    +0.000 OA
ATOM     13  C   UNL     1       5.694   4.424  15.147  0.00  0.00    +0.000 C 
ATOM     14  N   UNL     1       5.651   3.561  16.234  0.00  0.00    +0.000 N 
ATOM     15  H   UNL     1       6.316   2.807  16.338  0.00  0.00    +0.000 HD
BRANCH  13  16
ATOM     16  C   UNL     1       6.610   3.920  13.995  0.00  0.00    +0.000 C 
ATOM     17  C   UNL     1       5.874   3.533  12.684  0.00  0.00    +0.000 C 
ATOM     18  C   UNL     1       7.050   4.118  11.895  0.00  0.00    +0.000 C 
ATOM     19  C   UNL     1       7.420   4.935  13.150  0.00  0.00    +0.000 C 
ENDBRANCH  13  16
ENDBRANCH   1  14
BRANCH   2  20
ATOM     20  C   UNL     1       6.798   5.388  18.098  0.00  0.00    +0.000 C 
ATOM     21  C   UNL     1       6.900   6.879  17.656  0.00  0.00    +0.000 C 
ATOM     22  C   UNL     1       8.161   6.999  18.528  0.00  0.00    +0.000 C 
ATOM     23  C   UNL     1       7.647   5.791  19.332  0.00  0.00    +0.000 C 
ENDBRANCH   2  20
TORSDOF 3
ENDMDL
MODEL 2
REMARK VINA RESULT:      -7.7      1.417      5.916
REMARK  Name = 
REMARK  3 active torsions:
REMARK  status: ('A' for Active; 'I' for Inactive)
REMARK    1  A    between atoms: C_2  and  C_19
REMARK    2  A    between atoms: N_3  and  N_4
REMARK    3  A    between atoms: C_5  and  C_6
REMARK                            x       y       z     vdW  Elec       q    Type
REMARK                         _______ _______ _______ _____ _____    ______ ____
ROOT
ATOM      1  N   UNL     1       5.178   5.364  16.608  0.00  0.00    +0.000 N 
ATOM      2  C   UNL     1       6.394   6.044  16.531  0.00  0.00    +0.000 A 
ATOM      3  N   UNL     1       7.192   5.929  15.511  0.00  0.00    +0.000 NA
ATOM      4  C   UNL     1       6.807   5.100  14.446  0.00  0.00    +0.000 A 
ATOM      5  C   UNL     1       7.652   4.978  13.341  0.00  0.00    +0.000 A 
ATOM      6  C   UNL     1       7.337   4.110  12.288  0.00  0.00    +0.000 A 
ATOM      7  C   UNL     1       6.153   3.372  12.317  0.00  0.00    +0.000 A 
ATOM      8  C   UNL     1       5.294   3.490  13.406  0.00  0.00    +0.000 A 
ATOM      9  C   UNL     1       5.638   4.335  14.471  0.00  0.00    +0.000 A 
ATOM     10  C   UNL     1       4.820   4.382  15.687  0.00  0.00    +0.000 A 
ATOM     11  O   UNL     1       3.959   3.515  15.874  0.00  0.00    +0.000 OA
ENDROOT
BRANCH   1  14
ATOM     12  O   UNL     1       5.468   3.812  18.872  0.00  0.00    +0.000 OA
ATOM     13  C   UNL     1       4.618   4.706  18.868  0.00  0.00    +0.000 C 
ATOM     14  N   UNL     1       4.373   5.504  17.758  0.00  0.00    +0.000 N 
ATOM     15  H   UNL     1       3.776   6.318  17.812  0.00  0.00    +0.000 HD
BRANCH  13  16
ATOM     16  C   UNL     1       3.652   4.987  20.054  0.00  0.00    +0.000 C 
ATOM     17  C   UNL     1       2.511   5.997  19.755  0.00  0.00    +0.000 C 
ATOM     18  C   UNL     1       1.580   5.144  20.624  0.00  0.00    +0.000 C 
ATOM     19  C   UNL     1       2.547   3.961  20.412  0.00  0.00    +0.000 C 
ENDBRANCH  13  16
ENDBRANCH   1  14
BRANCH   2  20
ATOM     20  C   UNL     1       6.860   6.899  17.764  0.00  0.00    +0.000 C 
ATOM     21  C   UNL     1       7.985   6.341  18.686  0.00  0.00    +0.000 C 
ATOM     22  C   UNL     1       8.497   7.781  18.848  0.00  0.00    +0.000 C 
ATOM     23  C   UNL     1       7.787   8.119  17.525  0.00  0.00    +0.000 C 
ENDBRANCH   2  20
TORSDOF 3
ENDMDL
MODEL 3
REMARK VINA RESULT:      -7.4      3.129      4.838
REMARK  Name = 
REMARK  3 active torsions:
REMARK  status: ('A' for Active; 'I' for Inactive)
REMARK    1  A    between atoms: C_2  and  C_19
REMARK    2  A    between atoms: N_3  and  N_4
REMARK    3  A    between atoms: C_5  and  C_6
REMARK                            x       y       z     vdW  Elec       q    Type
REMARK                         _______ _______ _______ _____ _____    ______ ____
ROOT
ATOM      1  N   UNL     1       2.599   6.243  18.617  0.00  0.00    +0.000 N 
ATOM      2  C   UNL     1       2.172   5.734  19.843  0.00  0.00    +0.000 A 
ATOM      3  N   UNL     1       1.553   6.463  20.723  0.00  0.00    +0.000 NA
ATOM      4  C   UNL     1       1.297   7.809  20.419  0.00  0.00    +0.000 A 
ATOM      5  C   UNL     1       0.623   8.599  21.353  0.00  0.00    +0.000 A 
ATOM      6  C   UNL     1       0.408   9.963  21.117  0.00  0.00    +0.000 A 
ATOM      7  C   UNL     1       0.840  10.547  19.926  0.00  0.00    +0.000 A 
ATOM      8  C   UNL     1       1.504   9.771  18.980  0.00  0.00    +0.000 A 
ATOM      9  C   UNL     1       1.746   8.416  19.244  0.00  0.00    +0.000 A 
ATOM     10  C   UNL     1       2.554   7.605  18.327  0.00  0.00    +0.000 A 
ATOM     11  O   UNL     1       3.213   8.163  17.442  0.00  0.00    +0.000 OA
ENDROOT
BRANCH   1  14
ATOM     12  O   UNL     1       5.336   5.883  18.679  0.00  0.00    +0.000 OA
ATOM     13  C   UNL     1       4.671   5.255  17.852  0.00  0.00    +0.000 C 
ATOM     14  N   UNL     1       3.297   5.407  17.721  0.00  0.00    +0.000 N 
ATOM     15  H   UNL     1       2.748   4.789  17.138  0.00  0.00    +0.000 HD
BRANCH  13  16
ATOM     16  C   UNL     1       5.289   4.297  16.795  0.00  0.00    +0.000 C 
ATOM     17  C   UNL     1       5.093   4.727  15.315  0.00  0.00    +0.000 C 
ATOM     18  C   UNL     1       6.501   4.202  15.015  0.00  0.00    +0.000 C 
ATOM     19  C   UNL     1       6.814   4.327  16.521  0.00  0.00    +0.000 C 
ENDBRANCH  13  16
ENDBRANCH   1  14
BRANCH   2  20
ATOM     20  C   UNL     1       2.541   4.252  20.214  0.00  0.00    +0.000 C 
ATOM     21  C   UNL     1       2.290   3.754  21.670  0.00  0.00    +0.000 C 
ATOM     22  C   UNL     1       1.909   2.385  21.082  0.00  0.00    +0.000 C 
ATOM     23  C   UNL     1       1.599   3.106  19.758  0.00  0.00    +0.000 C 
ENDBRANCH   2  20
TORSDOF 3
ENDMDL
MODEL 4
REMARK VINA RESULT:      -7.3      1.957      4.392
REMARK  Name = 
REMARK  3 active torsions:
REMARK  status: ('A' for Active; 'I' for Inactive)
REMARK    1  A    between atoms: C_2  and  C_19
REMARK    2  A    between atoms: N_3  and  N_4
REMARK    3  A    between atoms: C_5  and  C_6
REMARK                            x       y       z     vdW  Elec       q    Type
REMARK                         _______ _______ _______ _____ _____    ______ ____
ROOT
ATOM      1  N   UNL     1       4.914   5.533  17.578  0.00  0.00    +0.000 N 
ATOM      2  C   UNL     1       4.690   4.695  16.486  0.00  0.00    +0.000 A 
ATOM      3  N   UNL     1       3.875   3.683  16.539  0.00  0.00    +0.000 NA
ATOM      4  C   UNL     1       3.189   3.436  17.739  0.00  0.00    +0.000 A 
ATOM      5  C   UNL     1       2.304   2.358  17.804  0.00  0.00    +0.000 A 
ATOM      6  C   UNL     1       1.651   2.036  19.001  0.00  0.00    +0.000 A 
ATOM      7  C   UNL     1       1.856   2.811  20.143  0.00  0.00    +0.000 A 
ATOM      8  C   UNL     1       2.728   3.895  20.092  0.00  0.00    +0.000 A 
ATOM      9  C   UNL     1       3.403   4.185  18.898  0.00  0.00    +0.000 A 
ATOM     10  C   UNL     1       4.422   5.238  18.848  0.00  0.00    +0.000 A 
ATOM     11  O   UNL     1       4.853   5.717  19.903  0.00  0.00    +0.000 OA
ENDROOT
BRANCH   1  14
ATOM     12  O   UNL     1       7.572   5.325  18.295  0.00  0.00    +0.000 OA
ATOM     13  C   UNL     1       7.166   6.385  17.812  0.00  0.00    +0.000 C 
ATOM     14  N   UNL     1       5.837   6.593  17.466  0.00  0.00    +0.000 N 
ATOM     15  H   UNL     1       5.546   7.410  16.946  0.00  0.00    +0.000 HD
BRANCH  13  16
ATOM     16  C   UNL     1       8.057   7.646  17.624  0.00  0.00    +0.000 C 
ATOM     17  C   UNL     1       7.285   8.977  17.414  0.00  0.00    +0.000 C 
ATOM     18  C   UNL     1       8.356   9.686  18.250  0.00  0.00    +0.000 C 
ATOM     19  C   UNL     1       8.721   8.315  18.854  0.00  0.00    +0.000 C 
ENDBRANCH  13  16
ENDBRANCH   1  14
BRANCH   2  20
ATOM     20  C   UNL     1       5.527   4.923  15.176  0.00  0.00    +0.000 C 
ATOM     21  C   UNL     1       6.918   4.234  15.040  0.00  0.00    +0.000 C 
ATOM     22  C   UNL     1       6.622   4.045  13.543  0.00  0.00    +0.000 C 
ATOM     23  C   UNL     1       5.125   4.162  13.885  0.00  0.00    +0.000 C 
ENDBRANCH   2  20
TORSDOF 3
ENDMDL
MODEL 5
REMARK VINA RESULT:      -7.2      1.117      1.285
REMARK  Name = 
REMARK  3 active torsions:
REMARK  status: ('A' for Active; 'I' for Inactive)
REMARK    1  A    between atoms: C_2  and  C_19
REMARK    2  A    between atoms: N_3  and  N_4
REMARK    3  A    between atoms: C_5  and  C_6
REMARK                            x       y       z     vdW  Elec       q    Type
REMARK                         _______ _______ _______ _____ _____    ______ ____
ROOT
ATOM      1  N   UNL     1       4.242   4.298  17.270  0.00  0.00    +0.000 N 
ATOM      2  C   UNL     1       5.132   4.529  18.318  0.00  0.00    +0.000 A 
ATOM      3  N   UNL     1       4.841   4.249  19.554  0.00  0.00    +0.000 NA
ATOM      4  C   UNL     1       3.588   3.682  19.837  0.00  0.00    +0.000 A 
ATOM      5  C   UNL     1       3.269   3.368  21.159  0.00  0.00    +0.000 A 
ATOM      6  C   UNL     1       2.005   2.864  21.493  0.00  0.00    +0.000 A 
ATOM      7  C   UNL     1       1.053   2.642  20.498  0.00  0.00    +0.000 A 
ATOM      8  C   UNL     1       1.358   2.940  19.173  0.00  0.00    +0.000 A 
ATOM      9  C   UNL     1       2.614   3.479  18.857  0.00  0.00    +0.000 A 
ATOM     10  C   UNL     1       2.919   3.923  17.493  0.00  0.00    +0.000 A 
ATOM     11  O   UNL     1       2.001   4.038  16.673  0.00  0.00    +0.000 OA
ENDROOT
BRANCH   1  14
ATOM     12  O   UNL     1       5.946   2.804  15.694  0.00  0.00    +0.000 OA
ATOM     13  C   UNL     1       5.437   3.822  15.221  0.00  0.00    +0.000 C 
ATOM     14  N   UNL     1       4.605   4.658  15.955  0.00  0.00    +0.000 N 
ATOM     15  H   UNL     1       4.088   5.408  15.518  0.00  0.00    +0.000 HD
BRANCH  13  16
ATOM     16  C   UNL     1       5.737   4.354  13.790  0.00  0.00    +0.000 C 
ATOM     17  C   UNL     1       7.207   4.787  13.538  0.00  0.00    +0.000 C 
ATOM     18  C   UNL     1       7.092   4.217  12.120  0.00  0.00    +0.000 C 
ATOM     19  C   UNL     1       5.909   3.359  12.615  0.00  0.00    +0.000 C 
ENDBRANCH  13  16
ENDBRANCH   1  14
BRANCH   2  20
ATOM     20  C   UNL     1       6.496   5.245  18.007  0.00  0.00    +0.000 C 
ATOM     21  C   UNL     1       6.482   6.752  17.606  0.00  0.00    +0.000 C 
ATOM     22  C   UNL     1       7.797   6.918  18.385  0.00  0.00    +0.000 C 
ATOM     23  C   UNL     1       7.413   5.661  19.187  0.00  0.00    +0.000 C 
ENDBRANCH   2  20
TORSDOF 3
ENDMDL
MODEL 6
REMARK VINA RESULT:      -7.0      2.574      6.896
REMARK  Name = 
REMARK  3 active torsions:
REMARK  status: ('A' for Active; 'I' for Inactive)
REMARK    1  A    between atoms: C_2  and  C_19
REMARK    2  A    between atoms: N_3  and  N_4
REMARK    3  A    between atoms: C_5  and  C_6
REMARK                            x       y       z     vdW  Elec       q    Type
REMARK                         _______ _______ _______ _____ _____    ______ ____
ROOT
ATOM      1  N   UNL     1       3.766   5.874  18.437  0.00  0.00    +0.000 N 
ATOM      2  C   UNL     1       3.131   4.678  18.099  0.00  0.00    +0.000 A 
ATOM      3  N   UNL     1       3.578   3.892  17.165  0.00  0.00    +0.000 NA
ATOM      4  C   UNL     1       4.748   4.258  16.481  0.00  0.00    +0.000 A 
ATOM      5  C   UNL     1       5.243   3.416  15.484  0.00  0.00    +0.000 A 
ATOM      6  C   UNL     1       6.369   3.777  14.732  0.00  0.00    +0.000 A 
ATOM      7  C   UNL     1       7.032   4.977  14.993  0.00  0.00    +0.000 A 
ATOM      8  C   UNL     1       6.558   5.823  15.992  0.00  0.00    +0.000 A 
ATOM      9  C   UNL     1       5.409   5.468  16.712  0.00  0.00    +0.000 A 
ATOM     10  C   UNL     1       4.812   6.395  17.679  0.00  0.00    +0.000 A 
ATOM     11  O   UNL     1       5.181   7.574  17.696  0.00  0.00    +0.000 OA
ENDROOT
BRANCH   1  14
ATOM     12  O   UNL     1       1.921   7.862  17.924  0.00  0.00    +0.000 OA
ATOM     13  C   UNL     1       2.256   7.648  19.091  0.00  0.00    +0.000 C 
ATOM     14  N   UNL     1       3.210   6.699  19.436  0.00  0.00    +0.000 N 
ATOM     15  H   UNL     1       3.374   6.438  20.399  0.00  0.00    +0.000 HD
BRANCH  13  16
ATOM     16  C   UNL     1       1.737   8.470  20.305  0.00  0.00    +0.000 C 
ATOM     17  C   UNL     1       0.616   9.495  19.981  0.00  0.00    +0.000 C 
ATOM     18  C   UNL     1      -0.032   9.154  21.328  0.00  0.00    +0.000 C 
ATOM     19  C   UNL     1       0.751   7.825  21.312  0.00  0.00    +0.000 C 
ENDBRANCH  13  16
ENDBRANCH   1  14
BRANCH   2  20
ATOM     20  C   UNL     1       1.774   4.319  18.805  0.00  0.00    +0.000 C 
ATOM     21  C   UNL     1       1.139   2.918  18.550  0.00  0.00    +0.000 C 
ATOM     22  C   UNL     1       0.670   2.921  20.013  0.00  0.00    +0.000 C 
ATOM     23  C   UNL     1       1.787   3.937  20.308  0.00  0.00    +0.000 C 
ENDBRANCH   2  20
TORSDOF 3
ENDMDL
MODEL 7
REMARK VINA RESULT:      -7.0      1.796      4.008
REMARK  Name = 
REMARK  3 active torsions:
REMARK  status: ('A' for Active; 'I' for Inactive)
REMARK    1  A    between atoms: C_2  and  C_19
REMARK    2  A    between atoms: N_3  and  N_4
REMARK    3  A    between atoms: C_5  and  C_6
REMARK                            x       y       z     vdW  Elec       q    Type
REMARK                         _______ _______ _______ _____ _____    ______ ____
ROOT
ATOM      1  N   UNL     1       4.890   4.850  17.923  0.00  0.00    +0.000 N 
ATOM      2  C   UNL     1       4.569   3.938  16.918  0.00  0.00    +0.000 A 
ATOM      3  N   UNL     1       3.508   3.189  16.970  0.00  0.00    +0.000 NA
ATOM      4  C   UNL     1       2.650   3.315  18.074  0.00  0.00    +0.000 A 
ATOM      5  C   UNL     1       1.501   2.524  18.135  0.00  0.00    +0.000 A 
ATOM      6  C   UNL     1       0.655   2.570  19.250  0.00  0.00    +0.000 A 
ATOM      7  C   UNL     1       0.935   3.435  20.309  0.00  0.00    +0.000 A 
ATOM      8  C   UNL     1       2.071   4.239  20.259  0.00  0.00    +0.000 A 
ATOM      9  C   UNL     1       2.930   4.156  19.154  0.00  0.00    +0.000 A 
ATOM     10  C   UNL     1       4.198   4.893  19.131  0.00  0.00    +0.000 A 
ATOM     11  O   UNL     1       4.622   5.403  20.174  0.00  0.00    +0.000 OA
ENDROOT
BRANCH   1  14
ATOM     12  O   UNL     1       4.963   7.464  17.040  0.00  0.00    +0.000 OA
ATOM     13  C   UNL     1       6.012   6.931  17.408  0.00  0.00    +0.000 C 
ATOM     14  N   UNL     1       6.076   5.607  17.824  0.00  0.00    +0.000 N 
ATOM     15  H   UNL     1       6.909   5.226  18.251  0.00  0.00    +0.000 HD
BRANCH  13  16
ATOM     16  C   UNL     1       7.400   7.630  17.359  0.00  0.00    +0.000 C 
ATOM     17  C   UNL     1       7.375   9.170  17.556  0.00  0.00    +0.000 C 
ATOM     18  C   UNL     1       8.680   9.052  18.351  0.00  0.00    +0.000 C 
ATOM     19  C   UNL     1       8.343   7.565  18.587  0.00  0.00    +0.000 C 
ENDBRANCH  13  16
ENDBRANCH   1  14
BRANCH   2  20
ATOM     20  C   UNL     1       5.578   3.738  15.730  0.00  0.00    +0.000 C 
ATOM     21  C   UNL     1       5.527   4.721  14.522  0.00  0.00    +0.000 C 
ATOM     22  C   UNL     1       7.058   4.616  14.436  0.00  0.00    +0.000 C 
ATOM     23  C   UNL     1       7.052   4.185  15.914  0.00  0.00    +0.000 C 
ENDBRANCH   2  20
TORSDOF 3
ENDMDL
MODEL 8
REMARK VINA RESULT:      -6.9      2.315      3.577
REMARK  Name = 
REMARK  3 active torsions:
REMARK  status: ('A' for Active; 'I' for Inactive)
REMARK    1  A    between atoms: C_2  and  C_19
REMARK    2  A    between atoms: N_3  and  N_4
REMARK    3  A    between atoms: C_5  and  C_6
REMARK                            x       y       z     vdW  Elec       q    Type
REMARK                         _______ _______ _______ _____ _____    ______ ____
ROOT
ATOM      1  N   UNL     1       3.800   5.286  17.522  0.00  0.00    +0.000 N 
ATOM      2  C   UNL     1       3.547   4.476  18.629  0.00  0.00    +0.000 A 
ATOM      3  N   UNL     1       2.884   4.897  19.664  0.00  0.00    +0.000 NA
ATOM      4  C   UNL     1       2.396   6.214  19.659  0.00  0.00    +0.000 A 
ATOM      5  C   UNL     1       1.673   6.674  20.761  0.00  0.00    +0.000 A 
ATOM      6  C   UNL     1       1.228   8.000  20.825  0.00  0.00    +0.000 A 
ATOM      7  C   UNL     1       1.476   8.876  19.768  0.00  0.00    +0.000 A 
ATOM      8  C   UNL     1       2.186   8.431  18.657  0.00  0.00    +0.000 A 
ATOM      9  C   UNL     1       2.659   7.111  18.621  0.00  0.00    +0.000 A 
ATOM     10  C   UNL     1       3.518   6.650  17.525  0.00  0.00    +0.000 A 
ATOM     11  O   UNL     1       4.016   7.479  16.755  0.00  0.00    +0.000 OA
ENDROOT
BRANCH   1  14
ATOM     12  O   UNL     1       6.557   5.374  17.417  0.00  0.00    +0.000 OA
ATOM     13  C   UNL     1       5.943   4.829  16.497  0.00  0.00    +0.000 C 
ATOM     14  N   UNL     1       4.556   4.779  16.445  0.00  0.00    +0.000 N 
ATOM     15  H   UNL     1       4.071   4.213  15.761  0.00  0.00    +0.000 HD
BRANCH  13  16
ATOM     16  C   UNL     1       6.629   4.224  15.239  0.00  0.00    +0.000 C 
ATOM     17  C   UNL     1       5.667   3.826  14.086  0.00  0.00    +0.000 C 
ATOM     18  C   UNL     1       6.726   4.307  13.088  0.00  0.00    +0.000 C 
ATOM     19  C   UNL     1       7.340   5.153  14.223  0.00  0.00    +0.000 C 
ENDBRANCH  13  16
ENDBRANCH   1  14
BRANCH   2  20
ATOM     20  C   UNL     1       4.172   3.034  18.666  0.00  0.00    +0.000 C 
ATOM     21  C   UNL     1       4.102   2.216  19.991  0.00  0.00    +0.000 C 
ATOM     22  C   UNL     1       3.906   0.951  19.141  0.00  0.00    +0.000 C 
ATOM     23  C   UNL     1       3.397   1.862  18.009  0.00  0.00    +0.000 C 
ENDBRANCH   2  20
TORSDOF 3
ENDMDL
MODEL 9
REMARK VINA RESULT:      -6.9      1.946      4.024
REMARK  Name = 
REMARK  3 active torsions:
REMARK  status: ('A' for Active; 'I' for Inactive)
REMARK    1  A    between atoms: C_2  and  C_19
REMARK    2  A    between atoms: N_3  and  N_4
REMARK    3  A    between atoms: C_5  and  C_6
REMARK                            x       y       z     vdW  Elec       q    Type
REMARK                         _______ _______ _______ _____ _____    ______ ____
ROOT
ATOM      1  N   UNL     1       4.415   5.244  17.799  0.00  0.00    +0.000 N 
ATOM      2  C   UNL     1       4.105   4.295  16.824  0.00  0.00    +0.000 A 
ATOM      3  N   UNL     1       3.162   3.415  16.985  0.00  0.00    +0.000 NA
ATOM      4  C   UNL     1       2.423   3.431  18.178  0.00  0.00    +0.000 A 
ATOM      5  C   UNL     1       1.401   2.497  18.356  0.00  0.00    +0.000 A 
ATOM      6  C   UNL     1       0.686   2.436  19.559  0.00  0.00    +0.000 A 
ATOM      7  C   UNL     1       0.967   3.332  20.590  0.00  0.00    +0.000 A 
ATOM      8  C   UNL     1       1.976   4.277  20.425  0.00  0.00    +0.000 A 
ATOM      9  C   UNL     1       2.710   4.304  19.231  0.00  0.00    +0.000 A 
ATOM     10  C   UNL     1       3.861   5.200  19.076  0.00  0.00    +0.000 A 
ATOM     11  O   UNL     1       4.329   5.764  20.071  0.00  0.00    +0.000 OA
ENDROOT
BRANCH   1  14
ATOM     12  O   UNL     1       6.943   4.926  18.860  0.00  0.00    +0.000 OA
ATOM     13  C   UNL     1       6.725   5.887  18.119  0.00  0.00    +0.000 C 
ATOM     14  N   UNL     1       5.473   6.150  17.578  0.00  0.00    +0.000 N 
ATOM     15  H   UNL     1       5.341   6.856  16.866  0.00  0.00    +0.000 HD
BRANCH  13  16
ATOM     16  C   UNL     1       7.784   6.974  17.778  0.00  0.00    +0.000 C 
ATOM     17  C   UNL     1       7.207   8.348  17.340  0.00  0.00    +0.000 C 
ATOM     18  C   UNL     1       8.350   9.028  18.101  0.00  0.00    +0.000 C 
ATOM     19  C   UNL     1       8.512   7.730  18.919  0.00  0.00    +0.000 C 
ENDBRANCH  13  16
ENDBRANCH   1  14
BRANCH   2  20
ATOM     20  C   UNL     1       4.993   4.225  15.530  0.00  0.00    +0.000 C 
ATOM     21  C   UNL     1       5.565   5.547  14.935  0.00  0.00    +0.000 C 
ATOM     22  C   UNL     1       6.836   4.769  14.560  0.00  0.00    +0.000 C 
ATOM     23  C   UNL     1       6.465   3.752  15.654  0.00  0.00    +0.000 C 
ENDBRANCH   2  20
TORSDOF 3
ENDMDL
