MODEL 1
REMARK VINA RESULT:      -7.5      0.000      0.000
REMARK  Name = 
REMARK  5 active torsions:
REMARK  status: ('A' for Active; 'I' for Inactive)
REMARK    1  A    between atoms: C_1  and  C_2
REMARK    2  A    between atoms: C_4  and  C_5
REMARK    3  A    between atoms: C_5  and  N_6
REMARK    4  A    between atoms: C_10  and  C_11
REMARK    5  A    between atoms: C_13  and  C_14
REMARK                            x       y       z     vdW  Elec       q    Type
REMARK                         _______ _______ _______ _____ _____    ______ ____
ROOT
ATOM      1  N   UNL     1       6.387   4.108  17.376  0.00  0.00    +0.000 N 
ATOM      2  C   UNL     1       6.818   5.418  17.625  0.00  0.00    +0.000 A 
ATOM      3  C   UNL     1       7.778   5.612  18.611  0.00  0.00    +0.000 A 
ATOM      4  C   UNL     1       8.289   6.892  18.831  0.00  0.00    +0.000 A 
ATOM      5  C   UNL     1       7.866   7.953  18.031  0.00  0.00    +0.000 A 
ATOM      6  C   UNL     1       6.916   7.661  17.061  0.00  0.00    +0.000 A 
ATOM      7  N   UNL     1       6.381   6.431  16.854  0.00  0.00    +0.000 NA
ATOM      8  H   UNL     1       7.100   3.670  16.792  0.00  0.00    +0.000 HD
ENDROOT
BRANCH   5   9
ATOM      9  C   UNL     1       8.404   9.286  18.218  0.00  0.00    +0.000 A 
ATOM     10  N   UNL     1       8.209  10.378  17.512  0.00  0.00    +0.000 NA
ATOM     11  C   UNL     1       9.004  11.287  18.160  0.00  0.00    +0.000 A 
ATOM     12  N   UNL     1       9.662  10.807  19.221  0.00  0.00    +0.000 NA
ATOM     13  O   UNL     1       9.259   9.473  19.268  0.00  0.00    +0.000 OA
BRANCH  11  14
ATOM     14  C   UNL     1       9.147  12.730  17.711  0.00  0.00    +0.000 C 
ATOM     15  C   UNL     1       7.965  13.663  17.889  0.00  0.00    +0.000 C 
ATOM     16  C   UNL     1       9.161  13.820  18.764  0.00  0.00    +0.000 C 
ENDBRANCH  11  14
ENDBRANCH   5   9
BRANCH   1  17
ATOM     17  C   UNL     1       5.088   4.021  16.700  0.00  0.00    +0.000 C 
BRANCH  17  21
ATOM     18  C   UNL     1       0.684   2.459  18.773  0.00  0.00    +0.000 C 
ATOM     19  C   UNL     1       2.052   2.833  18.384  0.00  0.00    +0.000 A 
ATOM     20  C   UNL     1       2.617   3.353  17.242  0.00  0.00    +0.000 A 
ATOM     21  C   UNL     1       3.993   3.474  17.556  0.00  0.00    +0.000 A 
ATOM     22  N   UNL     1       4.240   3.061  18.812  0.00  0.00    +0.000 NA
ATOM     23  O   UNL     1       3.020   2.653  19.321  0.00  0.00    +0.000 OA
ENDBRANCH  17  21
ENDBRANCH   1  17
TORSDOF 4
ENDMDL
MODEL 2
REMARK VINA RESULT:      -7.4      4.898      6.597
REMARK  Name = 
REMARK  5 active torsions:
REMARK  status: ('A' for Active; 'I' for Inactive)
REMARK    1  A    between atoms: C_1  and  C_2
REMARK    2  A    between atoms: C_4  and  C_5
REMARK    3  A    between atoms: C_5  and  N_6
REMARK    4  A    between atoms: C_10  and  C_11
REMARK    5  A    between atoms: C_13  and  C_14
REMARK                            x       y       z     vdW  Elec       q    Type
REMARK                         _______ _______ _______ _____ _____    ______ ____
ROOT
ATOM      1  N   UNL     1       5.894   3.927  16.437  0.00  0.00    +0.000 N 
ATOM      2  C   UNL     1       4.998   4.907  16.883  0.00  0.00    +0.000 A 
ATOM      3  C   UNL     1       3.833   4.486  17.515  0.00  0.00    +0.000 A 
ATOM      4  C   UNL     1       2.956   5.434  18.043  0.00  0.00    +0.000 A 
ATOM      5  C   UNL     1       3.278   6.789  17.973  0.00  0.00    +0.000 A 
ATOM      6  C   UNL     1       4.469   7.114  17.338  0.00  0.00    +0.000 A 
ATOM      7  N   UNL     1       5.318   6.210  16.787  0.00  0.00    +0.000 NA
ATOM      8  H   UNL     1       6.426   3.622  17.253  0.00  0.00    +0.000 HD
ENDROOT
BRANCH   5   9
ATOM      9  C   UNL     1       2.399   7.792  18.542  0.00  0.00    +0.000 A 
ATOM     10  N   UNL     1       1.970   7.930  19.778  0.00  0.00    +0.000 NA
ATOM     11  C   UNL     1       1.158   9.030  19.680  0.00  0.00    +0.000 A 
ATOM     12  N   UNL     1       1.079   9.568  18.458  0.00  0.00    +0.000 NA
ATOM     13  O   UNL     1       1.912   8.749  17.696  0.00  0.00    +0.000 OA
BRANCH  11  14
ATOM     14  C   UNL     1       0.390   9.599  20.859  0.00  0.00    +0.000 C 
ATOM     15  C   UNL     1      -0.319   8.636  21.793  0.00  0.00    +0.000 C 
ATOM     16  C   UNL     1       0.911   9.339  22.259  0.00  0.00    +0.000 C 
ENDBRANCH  11  14
ENDBRANCH   5   9
BRANCH   1  17
ATOM     17  C   UNL     1       6.822   4.389  15.399  0.00  0.00    +0.000 C 
BRANCH  17  21
ATOM     18  C   UNL     1       4.303   3.135  11.130  0.00  0.00    +0.000 C 
ATOM     19  C   UNL     1       5.217   3.534  12.212  0.00  0.00    +0.000 A 
ATOM     20  C   UNL     1       5.078   3.716  13.568  0.00  0.00    +0.000 A 
ATOM     21  C   UNL     1       6.369   4.099  14.005  0.00  0.00    +0.000 A 
ATOM     22  N   UNL     1       7.235   4.136  12.977  0.00  0.00    +0.000 NA
ATOM     23  O   UNL     1       6.504   3.789  11.856  0.00  0.00    +0.000 OA
ENDBRANCH  17  21
ENDBRANCH   1  17
TORSDOF 4
ENDMDL
MODEL 3
REMARK VINA RESULT:      -7.3      1.371      1.565
REMARK  Name = 
REMARK  5 active torsions:
REMARK  status: ('A' for Active; 'I' for Inactive)
REMARK    1  A    between atoms: C_1  and  C_2
REMARK    2  A    between atoms: C_4  and  C_5
REMARK    3  A    between atoms: C_5  and  N_6
REMARK    4  A    between atoms: C_10  and  C_11
REMARK    5  A    between atoms: C_13  and  C_14
REMARK                            x       y       z     vdW  Elec       q    Type
REMARK                         _______ _______ _______ _____ _____    ______ ____
ROOT
ATOM      1  N   UNL     1       6.190   4.246  17.091  0.00  0.00    +0.000 N 
ATOM      2  C   UNL     1       6.684   5.512  17.432  0.00  0.00    +0.000 A 
ATOM      3  C   UNL     1       7.586   5.597  18.485  0.00  0.00    +0.000 A 
ATOM      4  C   UNL     1       8.160   6.829  18.802  0.00  0.00    +0.000 A 
ATOM      5  C   UNL     1       7.858   7.951  18.031  0.00  0.00    +0.000 A 
ATOM      6  C   UNL     1       6.958   7.767  16.989  0.00  0.00    +0.000 A 
ATOM      7  N   UNL     1       6.363   6.585  16.687  0.00  0.00    +0.000 NA
ATOM      8  H   UNL     1       6.912   3.789  16.532  0.00  0.00    +0.000 HD
ENDROOT
BRANCH   5   9
ATOM      9  C   UNL     1       8.464   9.236  18.319  0.00  0.00    +0.000 A 
ATOM     10  N   UNL     1       9.283   9.581  19.288  0.00  0.00    +0.000 NA
ATOM     11  C   UNL     1       9.473  10.917  19.044  0.00  0.00    +0.000 A 
ATOM     12  N   UNL     1       8.821  11.395  17.979  0.00  0.00    +0.000 NA
ATOM     13  O   UNL     1       8.152  10.275  17.486  0.00  0.00    +0.000 OA
BRANCH  11  14
ATOM     14  C   UNL     1      10.344  11.801  19.917  0.00  0.00    +0.000 C 
ATOM     15  C   UNL     1       9.876  13.214  20.209  0.00  0.00    +0.000 C 
ATOM     16  C   UNL     1       9.836  12.191  21.292  0.00  0.00    +0.000 C 
ENDBRANCH  11  14
ENDBRANCH   5   9
BRANCH   1  17
ATOM     17  C   UNL     1       4.936   4.275  16.331  0.00  0.00    +0.000 C 
BRANCH  17  21
ATOM     18  C   UNL     1       0.821   2.565  18.838  0.00  0.00    +0.000 C 
ATOM     19  C   UNL     1       1.948   3.273  18.211  0.00  0.00    +0.000 A 
ATOM     20  C   UNL     1       3.009   2.884  17.428  0.00  0.00    +0.000 A 
ATOM     21  C   UNL     1       3.713   4.085  17.168  0.00  0.00    +0.000 A 
ATOM     22  N   UNL     1       3.107   5.135  17.751  0.00  0.00    +0.000 NA
ATOM     23  O   UNL     1       2.007   4.616  18.410  0.00  0.00    +0.000 OA
ENDBRANCH  17  21
ENDBRANCH   1  17
TORSDOF 4
ENDMDL
MODEL 4
REMARK VINA RESULT:      -7.2      5.495      7.582
REMARK  Name = 
REMARK  5 active torsions:
REMARK  status: ('A' for Active; 'I' for Inactive)
REMARK    1  A    between atoms: C_1  and  C_2
REMARK    2  A    between atoms: C_4  and  C_5
REMARK    3  A    between atoms: C_5  and  N_6
REMARK    4  A    between atoms: C_10  and  C_11
REMARK    5  A    between atoms: C_13  and  C_14
REMARK                            x       y       z     vdW  Elec       q    Type
REMARK                         _______ _______ _______ _____ _____    ______ ____
ROOT
ATOM      1  N   UNL     1       1.933   7.400  20.265  0.00  0.00    +0.000 N 
ATOM      2  C   UNL     1       2.839   6.925  19.308  0.00  0.00    +0.000 A 
ATOM      3  C   UNL     1       3.503   5.733  19.574  0.00  0.00    +0.000 A 
ATOM      4  C   UNL     1       4.351   5.188  18.610  0.00  0.00    +0.000 A 
ATOM      5  C   UNL     1       4.490   5.818  17.374  0.00  0.00    +0.000 A 
ATOM      6  C   UNL     1       3.775   6.995  17.192  0.00  0.00    +0.000 A 
ATOM      7  N   UNL     1       2.972   7.560  18.129  0.00  0.00    +0.000 NA
ATOM      8  H   UNL     1       1.069   6.871  20.141  0.00  0.00    +0.000 HD
ENDROOT
BRANCH   5   9
ATOM      9  C   UNL     1       5.340   5.255  16.344  0.00  0.00    +0.000 A 
ATOM     10  N   UNL     1       5.026   4.496  15.317  0.00  0.00    +0.000 NA
ATOM     11  C   UNL     1       6.249   4.269  14.740  0.00  0.00    +0.000 A 
ATOM     12  N   UNL     1       7.282   4.855  15.357  0.00  0.00    +0.000 NA
ATOM     13  O   UNL     1       6.679   5.520  16.425  0.00  0.00    +0.000 OA
BRANCH  11  14
ATOM     14  C   UNL     1       6.435   3.410  13.503  0.00  0.00    +0.000 C 
ATOM     15  C   UNL     1       5.427   3.536  12.377  0.00  0.00    +0.000 C 
ATOM     16  C   UNL     1       6.799   4.087  12.197  0.00  0.00    +0.000 C 
ENDBRANCH  11  14
ENDBRANCH   5   9
BRANCH   1  17
ATOM     17  C   UNL     1       1.642   8.834  20.156  0.00  0.00    +0.000 C 
BRANCH  17  21
ATOM     18  C   UNL     1      -1.640  11.135  23.329  0.00  0.00    +0.000 C 
ATOM     19  C   UNL     1      -0.573  10.414  22.617  0.00  0.00    +0.000 A 
ATOM     20  C   UNL     1      -0.345  10.096  21.299  0.00  0.00    +0.000 A 
ATOM     21  C   UNL     1       0.883   9.390  21.316  0.00  0.00    +0.000 A 
ATOM     22  N   UNL     1       1.368   9.297  22.567  0.00  0.00    +0.000 NA
ATOM     23  O   UNL     1       0.446   9.934  23.377  0.00  0.00    +0.000 OA
ENDBRANCH  17  21
ENDBRANCH   1  17
TORSDOF 4
ENDMDL
MODEL 5
REMARK VINA RESULT:      -7.2      5.010      6.617
REMARK  Name = 
REMARK  5 active torsions:
REMARK  status: ('A' for Active; 'I' for Inactive)
REMARK    1  A    between atoms: C_1  and  C_2
REMARK    2  A    between atoms: C_4  and  C_5
REMARK    3  A    between atoms: C_5  and  N_6
REMARK    4  A    between atoms: C_10  and  C_11
REMARK    5  A    between atoms: C_13  and  C_14
REMARK                            x       y       z     vdW  Elec       q    Type
REMARK                         _______ _______ _______ _____ _____    ______ ____
ROOT
ATOM      1  N   UNL     1       6.231   3.453  15.346  0.00  0.00    +0.000 N 
ATOM      2  C   UNL     1       5.370   4.288  16.070  0.00  0.00    +0.000 A 
ATOM      3  C   UNL     1       4.564   3.708  17.042  0.00  0.00    +0.000 A 
ATOM      4  C   UNL     1       3.753   4.518  17.837  0.00  0.00    +0.000 A 
ATOM      5  C   UNL     1       3.792   5.903  17.680  0.00  0.00    +0.000 A 
ATOM      6  C   UNL     1       4.639   6.394  16.694  0.00  0.00    +0.000 A 
ATOM      7  N   UNL     1       5.409   5.621  15.887  0.00  0.00    +0.000 NA
ATOM      8  H   UNL     1       7.043   3.281  15.941  0.00  0.00    +0.000 HD
ENDROOT
BRANCH   5   9
ATOM      9  C   UNL     1       2.983   6.770  18.514  0.00  0.00    +0.000 A 
ATOM     10  N   UNL     1       2.548   6.587  19.741  0.00  0.00    +0.000 NA
ATOM     11  C   UNL     1       1.822   7.729  19.963  0.00  0.00    +0.000 A 
ATOM     12  N   UNL     1       1.801   8.593  18.941  0.00  0.00    +0.000 NA
ATOM     13  O   UNL     1       2.582   7.960  17.974  0.00  0.00    +0.000 OA
BRANCH  11  14
ATOM     14  C   UNL     1       1.081   8.000  21.259  0.00  0.00    +0.000 C 
ATOM     15  C   UNL     1       1.292   9.335  21.948  0.00  0.00    +0.000 C 
ATOM     16  C   UNL     1      -0.005   9.058  21.268  0.00  0.00    +0.000 C 
ENDBRANCH  11  14
ENDBRANCH   5   9
BRANCH   1  17
ATOM     17  C   UNL     1       6.678   4.015  14.067  0.00  0.00    +0.000 C 
BRANCH  17  21
ATOM     18  C   UNL     1       3.223   3.066  10.421  0.00  0.00    +0.000 C 
ATOM     19  C   UNL     1       4.354   3.175  11.355  0.00  0.00    +0.000 A 
ATOM     20  C   UNL     1       4.620   3.962  12.452  0.00  0.00    +0.000 A 
ATOM     21  C   UNL     1       5.899   3.535  12.886  0.00  0.00    +0.000 A 
ATOM     22  N   UNL     1       6.370   2.547  12.105  0.00  0.00    +0.000 NA
ATOM     23  O   UNL     1       5.399   2.333  11.143  0.00  0.00    +0.000 OA
ENDBRANCH  17  21
ENDBRANCH   1  17
TORSDOF 4
ENDMDL
MODEL 6
REMARK VINA RESULT:      -7.2      5.036      7.375
REMARK  Name = 
REMARK  5 active torsions:
REMARK  status: ('A' for Active; 'I' for Inactive)
REMARK    1  A    between atoms: C_1  and  C_2
REMARK    2  A    between atoms: C_4  and  C_5
REMARK    3  A    between atoms: C_5  and  N_6
REMARK    4  A    between atoms: C_10  and  C_11
REMARK    5  A    between atoms: C_13  and  C_14
REMARK                            x       y       z     vdW  Elec       q    Type
REMARK                         _______ _______ _______ _____ _____    ______ ____
ROOT
ATOM      1  N   UNL     1       7.830   5.016  14.131  0.00  0.00    +0.000 N 
ATOM      2  C   UNL     1       6.889   4.997  15.168  0.00  0.00    +0.000 A 
ATOM      3  C   UNL     1       7.281   4.476  16.395  0.00  0.00    +0.000 A 
ATOM      4  C   UNL     1       6.396   4.515  17.474  0.00  0.00    +0.000 A 
ATOM      5  C   UNL     1       5.147   5.116  17.322  0.00  0.00    +0.000 A 
ATOM      6  C   UNL     1       4.849   5.623  16.064  0.00  0.00    +0.000 A 
ATOM      7  N   UNL     1       5.681   5.565  14.994  0.00  0.00    +0.000 NA
ATOM      8  H   UNL     1       8.437   5.819  14.298  0.00  0.00    +0.000 HD
ENDROOT
BRANCH   5   9
ATOM      9  C   UNL     1       4.221   5.198  18.435  0.00  0.00    +0.000 A 
ATOM     10  N   UNL     1       3.901   4.289  19.330  0.00  0.00    +0.000 NA
ATOM     11  C   UNL     1       2.966   4.946  20.087  0.00  0.00    +0.000 A 
ATOM     12  N   UNL     1       2.710   6.202  19.703  0.00  0.00    +0.000 NA
ATOM     13  O   UNL     1       3.551   6.377  18.605  0.00  0.00    +0.000 OA
BRANCH  11  14
ATOM     14  C   UNL     1       2.256   4.306  21.266  0.00  0.00    +0.000 C 
ATOM     15  C   UNL     1       1.111   3.352  20.990  0.00  0.00    +0.000 C 
ATOM     16  C   UNL     1       2.410   2.813  21.483  0.00  0.00    +0.000 C 
ENDBRANCH  11  14
ENDBRANCH   5   9
BRANCH   1  17
ATOM     17  C   UNL     1       7.245   5.122  12.790  0.00  0.00    +0.000 C 
BRANCH  17  21
ATOM     18  C   UNL     1       6.128   0.499  10.915  0.00  0.00    +0.000 C 
ATOM     19  C   UNL     1       6.210   1.857  11.476  0.00  0.00    +0.000 A 
ATOM     20  C   UNL     1       7.246   2.684  11.839  0.00  0.00    +0.000 A 
ATOM     21  C   UNL     1       6.610   3.861  12.302  0.00  0.00    +0.000 A 
ATOM     22  N   UNL     1       5.272   3.752  12.214  0.00  0.00    +0.000 NA
ATOM     23  O   UNL     1       5.029   2.490  11.703  0.00  0.00    +0.000 OA
ENDBRANCH  17  21
ENDBRANCH   1  17
TORSDOF 4
ENDMDL
MODEL 7
REMARK VINA RESULT:      -7.2      6.027      7.898
REMARK  Name = 
REMARK  5 active torsions:
REMARK  status: ('A' for Active; 'I' for Inactive)
REMARK    1  A    between atoms: C_1  and  C_2
REMARK    2  A    between atoms: C_4  and  C_5
REMARK    3  A    between atoms: C_5  and  N_6
REMARK    4  A    between atoms: C_10  and  C_11
REMARK    5  A    between atoms: C_13  and  C_14
REMARK                            x       y       z     vdW  Elec       q    Type
REMARK                         _______ _______ _______ _____ _____    ______ ____
ROOT
ATOM      1  N   UNL     1       1.183   8.217  20.339  0.00  0.00    +0.000 N 
ATOM      2  C   UNL     1       2.147   7.721  19.452  0.00  0.00    +0.000 A 
ATOM      3  C   UNL     1       2.684   6.465  19.710  0.00  0.00    +0.000 A 
ATOM      4  C   UNL     1       3.588   5.905  18.805  0.00  0.00    +0.000 A 
ATOM      5  C   UNL     1       3.907   6.588  17.633  0.00  0.00    +0.000 A 
ATOM      6  C   UNL     1       3.309   7.829  17.453  0.00  0.00    +0.000 A 
ATOM      7  N   UNL     1       2.456   8.407  18.336  0.00  0.00    +0.000 NA
ATOM      8  H   UNL     1       0.299   7.769  20.093  0.00  0.00    +0.000 HD
ENDROOT
BRANCH   5   9
ATOM      9  C   UNL     1       4.818   6.014  16.662  0.00  0.00    +0.000 A 
ATOM     10  N   UNL     1       4.722   4.894  15.980  0.00  0.00    +0.000 NA
ATOM     11  C   UNL     1       5.892   4.891  15.265  0.00  0.00    +0.000 A 
ATOM     12  N   UNL     1       6.684   5.949  15.471  0.00  0.00    +0.000 NA
ATOM     13  O   UNL     1       5.967   6.706  16.399  0.00  0.00    +0.000 OA
BRANCH  11  14
ATOM     14  C   UNL     1       6.279   3.771  14.316  0.00  0.00    +0.000 C 
ATOM     15  C   UNL     1       5.486   3.602  13.035  0.00  0.00    +0.000 C 
ATOM     16  C   UNL     1       6.876   4.133  12.971  0.00  0.00    +0.000 C 
ENDBRANCH  11  14
ENDBRANCH   5   9
BRANCH   1  17
ATOM     17  C   UNL     1       1.017   9.674  20.292  0.00  0.00    +0.000 C 
BRANCH  17  21
ATOM     18  C   UNL     1      -2.282  12.129  23.329  0.00  0.00    +0.000 C 
ATOM     19  C   UNL     1      -1.242  11.331  22.661  0.00  0.00    +0.000 A 
ATOM     20  C   UNL     1      -0.911  11.094  21.347  0.00  0.00    +0.000 A 
ATOM     21  C   UNL     1       0.209  10.231  21.419  0.00  0.00    +0.000 A 
ATOM     22  N   UNL     1       0.538   9.971  22.697  0.00  0.00    +0.000 NA
ATOM     23  O   UNL     1      -0.382  10.658  23.469  0.00  0.00    +0.000 OA
ENDBRANCH  17  21
ENDBRANCH   1  17
TORSDOF 4
ENDMDL
MODEL 8
REMARK VINA RESULT:      -7.2      6.373      8.571
REMARK  Name = 
REMARK  5 active torsions:
REMARK  status: ('A' for Active; 'I' for Inactive)
REMARK    1  A    between atoms: C_1  and  C_2
REMARK    2  A    between atoms: C_4  and  C_5
REMARK    3  A    between atoms: C_5  and  N_6
REMARK    4  A    between atoms: C_10  and  C_11
REMARK    5  A    between atoms: C_13  and  C_14
REMARK                            x       y       z     vdW  Elec       q    Type
REMARK                         _______ _______ _______ _____ _____    ______ ____
ROOT
ATOM      1  N   UNL     1       0.959   9.887  19.881  0.00  0.00    +0.000 N 
ATOM      2  C   UNL     1       1.606   8.789  19.300  0.00  0.00    +0.000 A 
ATOM      3  C   UNL     1       2.127   8.942  18.020  0.00  0.00    +0.000 A 
ATOM      4  C   UNL     1       2.847   7.896  17.441  0.00  0.00    +0.000 A 
ATOM      5  C   UNL     1       3.075   6.727  18.167  0.00  0.00    +0.000 A 
ATOM      6  C   UNL     1       2.529   6.671  19.443  0.00  0.00    +0.000 A 
ATOM      7  N   UNL     1       1.797   7.663  20.010  0.00  0.00    +0.000 NA
ATOM      8  H   UNL     1       1.690  10.505  20.234  0.00  0.00    +0.000 HD
ENDROOT
BRANCH   5   9
ATOM      9  C   UNL     1       3.846   5.639  17.600  0.00  0.00    +0.000 A 
ATOM     10  N   UNL     1       4.743   5.656  16.638  0.00  0.00    +0.000 NA
ATOM     11  C   UNL     1       5.085   4.332  16.539  0.00  0.00    +0.000 A 
ATOM     12  N   UNL     1       4.450   3.519  17.391  0.00  0.00    +0.000 NA
ATOM     13  O   UNL     1       3.627   4.388  18.106  0.00  0.00    +0.000 OA
BRANCH  11  14
ATOM     14  C   UNL     1       6.095   3.811  15.533  0.00  0.00    +0.000 C 
ATOM     15  C   UNL     1       5.849   4.070  14.059  0.00  0.00    +0.000 C 
ATOM     16  C   UNL     1       6.934   4.812  14.762  0.00  0.00    +0.000 C 
ENDBRANCH  11  14
ENDBRANCH   5   9
BRANCH   1  17
ATOM     17  C   UNL     1       0.050   9.537  20.978  0.00  0.00    +0.000 C 
BRANCH  17  21
ATOM     18  C   UNL     1      -1.971  13.961  22.551  0.00  0.00    +0.000 C 
ATOM     19  C   UNL     1      -1.349  12.646  22.334  0.00  0.00    +0.000 A 
ATOM     20  C   UNL     1      -1.124  11.862  21.226  0.00  0.00    +0.000 A 
ATOM     21  C   UNL     1      -0.470  10.714  21.736  0.00  0.00    +0.000 A 
ATOM     22  N   UNL     1      -0.304  10.805  23.067  0.00  0.00    +0.000 NA
ATOM     23  O   UNL     1      -0.866  12.014  23.435  0.00  0.00    +0.000 OA
ENDBRANCH  17  21
ENDBRANCH   1  17
TORSDOF 4
ENDMDL
MODEL 9
REMARK VINA RESULT:      -7.1      5.014      7.098
REMARK  Name = 
REMARK  5 active torsions:
REMARK  status: ('A' for Active; 'I' for Inactive)
REMARK    1  A    between atoms: C_1  and  C_2
REMARK    2  A    between atoms: C_4  and  C_5
REMARK    3  A    between atoms: C_5  and  N_6
REMARK    4  A    between atoms: C_10  and  C_11
REMARK    5  A    between atoms: C_13  and  C_14
REMARK                            x       y       z     vdW  Elec       q    Type
REMARK                         _______ _______ _______ _____ _____    ______ ____
ROOT
ATOM      1  N   UNL     1       3.315   5.442  20.502  0.00  0.00    +0.000 N 
ATOM      2  C   UNL     1       3.934   5.377  19.247  0.00  0.00    +0.000 A 
ATOM      3  C   UNL     1       5.317   5.503  19.195  0.00  0.00    +0.000 A 
ATOM      4  C   UNL     1       5.975   5.363  17.972  0.00  0.00    +0.000 A 
ATOM      5  C   UNL     1       5.245   5.054  16.825  0.00  0.00    +0.000 A 
ATOM      6  C   UNL     1       3.870   4.932  16.977  0.00  0.00    +0.000 A 
ATOM      7  N   UNL     1       3.208   5.098  18.150  0.00  0.00    +0.000 NA
ATOM      8  H   UNL     1       3.433   4.526  20.936  0.00  0.00    +0.000 HD
ENDROOT
BRANCH   5   9
ATOM      9  C   UNL     1       5.907   4.872  15.548  0.00  0.00    +0.000 A 
ATOM     10  N   UNL     1       5.483   4.268  14.460  0.00  0.00    +0.000 NA
ATOM     11  C   UNL     1       6.557   4.400  13.619  0.00  0.00    +0.000 A 
ATOM     12  N   UNL     1       7.602   5.056  14.136  0.00  0.00    +0.000 NA
ATOM     13  O   UNL     1       7.170   5.380  15.422  0.00  0.00    +0.000 OA
BRANCH  11  14
ATOM     14  C   UNL     1       6.579   3.838  12.209  0.00  0.00    +0.000 C 
ATOM     15  C   UNL     1       6.440   2.339  12.026  0.00  0.00    +0.000 C 
ATOM     16  C   UNL     1       5.307   3.232  11.649  0.00  0.00    +0.000 C 
ENDBRANCH  11  14
ENDBRANCH   5   9
BRANCH   1  17
ATOM     17  C   UNL     1       1.888   5.775  20.452  0.00  0.00    +0.000 C 
BRANCH  17  21
ATOM     18  C   UNL     1       0.438  10.590  21.376  0.00  0.00    +0.000 C 
ATOM     19  C   UNL     1       0.941   9.291  20.900  0.00  0.00    +0.000 A 
ATOM     20  C   UNL     1       0.999   8.028  21.442  0.00  0.00    +0.000 A 
ATOM     21  C   UNL     1       1.606   7.242  20.432  0.00  0.00    +0.000 A 
ATOM     22  N   UNL     1       1.887   7.984  19.346  0.00  0.00    +0.000 NA
ATOM     23  O   UNL     1       1.475   9.269  19.651  0.00  0.00    +0.000 OA
ENDBRANCH  17  21
ENDBRANCH   1  17
TORSDOF 4
ENDMDL
