MODEL 1
REMARK VINA RESULT:      -5.4      0.000      0.000
REMARK  Name = 
REMARK  4 active torsions:
REMARK  status: ('A' for Active; 'I' for Inactive)
REMARK    1  A    between atoms: C_1  and  N_2
REMARK    2  A    between atoms: N_2  and  C_3
REMARK    3  A    between atoms: C_3  and  C_4
REMARK    4  A    between atoms: C_4  and  C_5
REMARK                            x       y       z     vdW  Elec       q    Type
REMARK                         _______ _______ _______ _____ _____    ______ ____
ROOT
ATOM      1  C   UNL     1       2.958   4.599  18.571  0.00  0.00    +0.000 A 
ATOM      2  C   UNL     1       2.786   5.151  19.849  0.00  0.00    +0.000 A 
ATOM      3  C   UNL     1       1.797   4.669  20.710  0.00  0.00    +0.000 A 
ATOM      4  C   UNL     1       0.947   3.649  20.290  0.00  0.00    +0.000 A 
ATOM      5  C   UNL     1       1.088   3.127  19.011  0.00  0.00    +0.000 A 
ATOM      6  F   UNL     1       0.262   2.156  18.602  0.00  0.00    +0.000 F 
ATOM      7  C   UNL     1       2.080   3.589  18.150  0.00  0.00    +0.000 A 
ENDROOT
BRANCH   1   8
ATOM      8  C   UNL     1       4.079   5.071  17.670  0.00  0.00    +0.000 C 
BRANCH   8   9
ATOM      9  C   UNL     1       5.380   5.300  18.458  0.00  0.00    +0.000 C 
BRANCH   9  11
ATOM     10  C   UNL     1       7.561   4.618  17.733  0.00  0.00    +0.000 C 
ATOM     11  N   UNL     1       6.306   4.171  18.329  0.00  0.00    +0.000 NA
ATOM     12  H   UNL     1       6.497   3.777  19.251  0.00  0.00    +0.000 HD
ENDBRANCH   9  11
ENDBRANCH   8   9
ENDBRANCH   1   8
TORSDOF 3
ENDMDL
MODEL 2
REMARK VINA RESULT:      -5.2      1.147      1.871
REMARK  Name = 
REMARK  4 active torsions:
REMARK  status: ('A' for Active; 'I' for Inactive)
REMARK    1  A    between atoms: C_1  and  N_2
REMARK    2  A    between atoms: N_2  and  C_3
REMARK    3  A    between atoms: C_3  and  C_4
REMARK    4  A    between atoms: C_4  and  C_5
REMARK                            x       y       z     vdW  Elec       q    Type
REMARK                         _______ _______ _______ _____ _____    ______ ____
ROOT
ATOM      1  C   UNL     1       3.369   4.439  18.198  0.00  0.00    +0.000 A 
ATOM      2  C   UNL     1       3.270   3.206  17.535  0.00  0.00    +0.000 A 
ATOM      3  C   UNL     1       2.206   2.339  17.793  0.00  0.00    +0.000 A 
ATOM      4  C   UNL     1       1.244   2.680  18.741  0.00  0.00    +0.000 A 
ATOM      5  C   UNL     1       1.361   3.882  19.429  0.00  0.00    +0.000 A 
ATOM      6  F   UNL     1       0.445   4.204  20.349  0.00  0.00    +0.000 F 
ATOM      7  C   UNL     1       2.410   4.761  19.168  0.00  0.00    +0.000 A 
ENDROOT
BRANCH   1   8
ATOM      8  C   UNL     1       4.481   5.409  17.860  0.00  0.00    +0.000 C 
BRANCH   8   9
ATOM      9  C   UNL     1       5.640   5.314  18.867  0.00  0.00    +0.000 C 
BRANCH   9  11
ATOM     10  C   UNL     1       7.578   4.637  17.630  0.00  0.00    +0.000 C 
ATOM     11  N   UNL     1       6.544   4.202  18.562  0.00  0.00    +0.000 NA
ATOM     12  H   UNL     1       6.986   3.873  19.422  0.00  0.00    +0.000 HD
ENDBRANCH   9  11
ENDBRANCH   8   9
ENDBRANCH   1   8
TORSDOF 3
ENDMDL
MODEL 3
REMARK VINA RESULT:      -5.2      1.439      2.020
REMARK  Name = 
REMARK  4 active torsions:
REMARK  status: ('A' for Active; 'I' for Inactive)
REMARK    1  A    between atoms: C_1  and  N_2
REMARK    2  A    between atoms: N_2  and  C_3
REMARK    3  A    between atoms: C_3  and  C_4
REMARK    4  A    between atoms: C_4  and  C_5
REMARK                            x       y       z     vdW  Elec       q    Type
REMARK                         _______ _______ _______ _____ _____    ______ ____
ROOT
ATOM      1  C   UNL     1       2.895   3.670  18.055  0.00  0.00    +0.000 A 
ATOM      2  C   UNL     1       2.212   2.446  18.050  0.00  0.00    +0.000 A 
ATOM      3  C   UNL     1       1.158   2.210  18.936  0.00  0.00    +0.000 A 
ATOM      4  C   UNL     1       0.794   3.187  19.859  0.00  0.00    +0.000 A 
ATOM      5  C   UNL     1       1.494   4.386  19.895  0.00  0.00    +0.000 A 
ATOM      6  F   UNL     1       1.155   5.320  20.792  0.00  0.00    +0.000 F 
ATOM      7  C   UNL     1       2.538   4.637  19.006  0.00  0.00    +0.000 A 
ENDROOT
BRANCH   1   8
ATOM      8  C   UNL     1       3.987   3.951  17.044  0.00  0.00    +0.000 C 
BRANCH   8   9
ATOM      9  C   UNL     1       5.104   4.820  17.645  0.00  0.00    +0.000 C 
BRANCH   9  11
ATOM     10  C   UNL     1       7.492   4.637  17.769  0.00  0.00    +0.000 C 
ATOM     11  N   UNL     1       6.225   4.013  18.136  0.00  0.00    +0.000 NA
ATOM     12  H   UNL     1       6.173   3.937  19.153  0.00  0.00    +0.000 HD
ENDBRANCH   9  11
ENDBRANCH   8   9
ENDBRANCH   1   8
TORSDOF 3
ENDMDL
MODEL 4
REMARK VINA RESULT:      -5.1      1.978      2.785
REMARK  Name = 
REMARK  4 active torsions:
REMARK  status: ('A' for Active; 'I' for Inactive)
REMARK    1  A    between atoms: C_1  and  N_2
REMARK    2  A    between atoms: N_2  and  C_3
REMARK    3  A    between atoms: C_3  and  C_4
REMARK    4  A    between atoms: C_4  and  C_5
REMARK                            x       y       z     vdW  Elec       q    Type
REMARK                         _______ _______ _______ _____ _____    ______ ____
ROOT
ATOM      1  C   UNL     1       4.595   4.979  16.885  0.00  0.00    +0.000 A 
ATOM      2  C   UNL     1       4.664   6.380  16.930  0.00  0.00    +0.000 A 
ATOM      3  C   UNL     1       3.678   7.124  17.580  0.00  0.00    +0.000 A 
ATOM      4  C   UNL     1       2.592   6.479  18.166  0.00  0.00    +0.000 A 
ATOM      5  C   UNL     1       2.499   5.095  18.089  0.00  0.00    +0.000 A 
ATOM      6  F   UNL     1       1.449   4.475  18.641  0.00  0.00    +0.000 F 
ATOM      7  C   UNL     1       3.485   4.341  17.457  0.00  0.00    +0.000 A 
ENDROOT
BRANCH   1   8
ATOM      8  C   UNL     1       5.705   4.171  16.246  0.00  0.00    +0.000 C 
BRANCH   8   9
ATOM      9  C   UNL     1       7.090   4.625  16.738  0.00  0.00    +0.000 C 
BRANCH   9  11
ATOM     10  C   UNL     1       7.720   5.549  18.858  0.00  0.00    +0.000 C 
ATOM     11  N   UNL     1       7.288   4.342  18.162  0.00  0.00    +0.000 NA
ATOM     12  H   UNL     1       6.412   4.016  18.572  0.00  0.00    +0.000 HD
ENDBRANCH   9  11
ENDBRANCH   8   9
ENDBRANCH   1   8
TORSDOF 3
ENDMDL
MODEL 5
REMARK VINA RESULT:      -5.1      3.020      4.708
REMARK  Name = 
REMARK  4 active torsions:
REMARK  status: ('A' for Active; 'I' for Inactive)
REMARK    1  A    between atoms: C_1  and  N_2
REMARK    2  A    between atoms: N_2  and  C_3
REMARK    3  A    between atoms: C_3  and  C_4
REMARK    4  A    between atoms: C_4  and  C_5
REMARK                            x       y       z     vdW  Elec       q    Type
REMARK                         _______ _______ _______ _____ _____    ______ ____
ROOT
ATOM      1  C   UNL     1       2.384   4.188  18.037  0.00  0.00    +0.000 A 
ATOM      2  C   UNL     1       3.361   3.533  17.274  0.00  0.00    +0.000 A 
ATOM      3  C   UNL     1       4.447   4.235  16.746  0.00  0.00    +0.000 A 
ATOM      4  C   UNL     1       4.552   5.608  16.948  0.00  0.00    +0.000 A 
ATOM      5  C   UNL     1       3.565   6.269  17.669  0.00  0.00    +0.000 A 
ATOM      6  F   UNL     1       3.658   7.591  17.853  0.00  0.00    +0.000 F 
ATOM      7  C   UNL     1       2.486   5.576  18.214  0.00  0.00    +0.000 A 
ENDROOT
BRANCH   1   8
ATOM      8  C   UNL     1       1.250   3.412  18.672  0.00  0.00    +0.000 C 
BRANCH   8   9
ATOM      9  C   UNL     1       0.904   3.956  20.068  0.00  0.00    +0.000 C 
BRANCH   9  11
ATOM     10  C   UNL     1       2.354   2.751  21.550  0.00  0.00    +0.000 C 
ATOM     11  N   UNL     1       0.977   2.916  21.098  0.00  0.00    +0.000 NA
ATOM     12  H   UNL     1       0.394   3.179  21.894  0.00  0.00    +0.000 HD
ENDBRANCH   9  11
ENDBRANCH   8   9
ENDBRANCH   1   8
TORSDOF 3
ENDMDL
MODEL 6
REMARK VINA RESULT:      -5.1      1.212      1.212
REMARK  Name = 
REMARK  4 active torsions:
REMARK  status: ('A' for Active; 'I' for Inactive)
REMARK    1  A    between atoms: C_1  and  N_2
REMARK    2  A    between atoms: N_2  and  C_3
REMARK    3  A    between atoms: C_3  and  C_4
REMARK    4  A    between atoms: C_4  and  C_5
REMARK                            x       y       z     vdW  Elec       q    Type
REMARK                         _______ _______ _______ _____ _____    ______ ____
ROOT
ATOM      1  C   UNL     1       2.601   4.948  18.532  0.00  0.00    +0.000 A 
ATOM      2  C   UNL     1       2.525   5.334  19.878  0.00  0.00    +0.000 A 
ATOM      3  C   UNL     1       1.727   4.627  20.781  0.00  0.00    +0.000 A 
ATOM      4  C   UNL     1       0.971   3.544  20.341  0.00  0.00    +0.000 A 
ATOM      5  C   UNL     1       1.012   3.183  19.000  0.00  0.00    +0.000 A 
ATOM      6  F   UNL     1       0.275   2.151  18.573  0.00  0.00    +0.000 F 
ATOM      7  C   UNL     1       1.817   3.872  18.094  0.00  0.00    +0.000 A 
ENDROOT
BRANCH   1   8
ATOM      8  C   UNL     1       3.525   5.669  17.573  0.00  0.00    +0.000 C 
BRANCH   8   9
ATOM      9  C   UNL     1       4.841   4.900  17.370  0.00  0.00    +0.000 C 
BRANCH   9  11
ATOM     10  C   UNL     1       6.294   4.016  15.680  0.00  0.00    +0.000 C 
ATOM     11  N   UNL     1       4.904   4.253  16.056  0.00  0.00    +0.000 NA
ATOM     12  H   UNL     1       4.411   3.361  16.089  0.00  0.00    +0.000 HD
ENDBRANCH   9  11
ENDBRANCH   8   9
ENDBRANCH   1   8
TORSDOF 3
ENDMDL
MODEL 7
REMARK VINA RESULT:      -5.1      2.998      4.582
REMARK  Name = 
REMARK  4 active torsions:
REMARK  status: ('A' for Active; 'I' for Inactive)
REMARK    1  A    between atoms: C_1  and  N_2
REMARK    2  A    between atoms: N_2  and  C_3
REMARK    3  A    between atoms: C_3  and  C_4
REMARK    4  A    between atoms: C_4  and  C_5
REMARK                            x       y       z     vdW  Elec       q    Type
REMARK                         _______ _______ _______ _____ _____    ______ ____
ROOT
ATOM      1  C   UNL     1       2.418   4.338  17.816  0.00  0.00    +0.000 A 
ATOM      2  C   UNL     1       2.551   5.696  18.138  0.00  0.00    +0.000 A 
ATOM      3  C   UNL     1       3.688   6.414  17.759  0.00  0.00    +0.000 A 
ATOM      4  C   UNL     1       4.720   5.773  17.079  0.00  0.00    +0.000 A 
ATOM      5  C   UNL     1       4.610   4.418  16.793  0.00  0.00    +0.000 A 
ATOM      6  F   UNL     1       5.608   3.798  16.151  0.00  0.00    +0.000 F 
ATOM      7  C   UNL     1       3.474   3.696  17.153  0.00  0.00    +0.000 A 
ENDROOT
BRANCH   1   8
ATOM      8  C   UNL     1       1.152   3.582  18.161  0.00  0.00    +0.000 C 
BRANCH   8   9
ATOM      9  C   UNL     1       1.385   2.584  19.308  0.00  0.00    +0.000 C 
BRANCH   9  11
ATOM     10  C   UNL     1       1.783   2.949  21.644  0.00  0.00    +0.000 C 
ATOM     11  N   UNL     1       0.801   3.049  20.569  0.00  0.00    +0.000 NA
ATOM     12  H   UNL     1       0.509   4.022  20.473  0.00  0.00    +0.000 HD
ENDBRANCH   9  11
ENDBRANCH   8   9
ENDBRANCH   1   8
TORSDOF 3
ENDMDL
MODEL 8
REMARK VINA RESULT:      -5.1      2.194      3.015
REMARK  Name = 
REMARK  4 active torsions:
REMARK  status: ('A' for Active; 'I' for Inactive)
REMARK    1  A    between atoms: C_1  and  N_2
REMARK    2  A    between atoms: N_2  and  C_3
REMARK    3  A    between atoms: C_3  and  C_4
REMARK    4  A    between atoms: C_4  and  C_5
REMARK                            x       y       z     vdW  Elec       q    Type
REMARK                         _______ _______ _______ _____ _____    ______ ____
ROOT
ATOM      1  C   UNL     1       4.516   4.799  16.917  0.00  0.00    +0.000 A 
ATOM      2  C   UNL     1       4.603   6.176  17.166  0.00  0.00    +0.000 A 
ATOM      3  C   UNL     1       3.578   6.849  17.836  0.00  0.00    +0.000 A 
ATOM      4  C   UNL     1       2.439   6.157  18.238  0.00  0.00    +0.000 A 
ATOM      5  C   UNL     1       2.331   4.801  17.959  0.00  0.00    +0.000 A 
ATOM      6  F   UNL     1       1.231   4.137  18.333  0.00  0.00    +0.000 F 
ATOM      7  C   UNL     1       3.354   4.116  17.305  0.00  0.00    +0.000 A 
ENDROOT
BRANCH   1   8
ATOM      8  C   UNL     1       5.661   4.059  16.259  0.00  0.00    +0.000 C 
BRANCH   8   9
ATOM      9  C   UNL     1       6.966   4.870  16.316  0.00  0.00    +0.000 C 
BRANCH   9  11
ATOM     10  C   UNL     1       6.724   4.461  13.967  0.00  0.00    +0.000 C 
ATOM     11  N   UNL     1       7.464   5.206  14.979  0.00  0.00    +0.000 NA
ATOM     12  H   UNL     1       7.347   6.206  14.811  0.00  0.00    +0.000 HD
ENDBRANCH   9  11
ENDBRANCH   8   9
ENDBRANCH   1   8
TORSDOF 3
ENDMDL
MODEL 9
REMARK VINA RESULT:      -5.0      1.538      2.123
REMARK  Name = 
REMARK  4 active torsions:
REMARK  status: ('A' for Active; 'I' for Inactive)
REMARK    1  A    between atoms: C_1  and  N_2
REMARK    2  A    between atoms: N_2  and  C_3
REMARK    3  A    between atoms: C_3  and  C_4
REMARK    4  A    between atoms: C_4  and  C_5
REMARK                            x       y       z     vdW  Elec       q    Type
REMARK                         _______ _______ _______ _____ _____    ______ ____
ROOT
ATOM      1  C   UNL     1       3.023   4.697  18.299  0.00  0.00    +0.000 A 
ATOM      2  C   UNL     1       2.012   3.876  17.779  0.00  0.00    +0.000 A 
ATOM      3  C   UNL     1       1.091   3.253  18.623  0.00  0.00    +0.000 A 
ATOM      4  C   UNL     1       1.188   3.419  20.002  0.00  0.00    +0.000 A 
ATOM      5  C   UNL     1       2.212   4.199  20.524  0.00  0.00    +0.000 A 
ATOM      6  F   UNL     1       2.315   4.348  21.850  0.00  0.00    +0.000 F 
ATOM      7  C   UNL     1       3.128   4.837  19.690  0.00  0.00    +0.000 A 
ENDROOT
BRANCH   1   8
ATOM      8  C   UNL     1       3.973   5.431  17.376  0.00  0.00    +0.000 C 
BRANCH   8   9
ATOM      9  C   UNL     1       4.820   4.455  16.543  0.00  0.00    +0.000 C 
BRANCH   9  11
ATOM     10  C   UNL     1       7.096   4.671  17.264  0.00  0.00    +0.000 C 
ATOM     11  N   UNL     1       5.894   3.846  17.332  0.00  0.00    +0.000 NA
ATOM     12  H   UNL     1       5.600   3.765  18.306  0.00  0.00    +0.000 HD
ENDBRANCH   9  11
ENDBRANCH   8   9
ENDBRANCH   1   8
TORSDOF 3
ENDMDL
