MODEL 1
REMARK VINA RESULT:      -6.6      0.000      0.000
REMARK  Name = 
REMARK  4 active torsions:
REMARK  status: ('A' for Active; 'I' for Inactive)
REMARK    1  A    between atoms: C_2  and  C_4
REMARK    2  A    between atoms: C_7  and  C_8
REMARK    3  A    between atoms: N_11  and  C_12
REMARK    4  A    between atoms: C_12  and  C_13
REMARK                            x       y       z     vdW  Elec       q    Type
REMARK                         _______ _______ _______ _____ _____    ______ ____
ROOT
ATOM      1  C   UNL     1       5.323   5.180  15.745  0.00  0.00    +0.000 A 
ATOM      2  C   UNL     1       5.150   6.522  16.102  0.00  0.00    +0.000 A 
ATOM      3  C   UNL     1       4.336   6.859  17.191  0.00  0.00    +0.000 A 
ATOM      4  C   UNL     1       3.685   5.863  17.936  0.00  0.00    +0.000 A 
ATOM      5  C   UNL     1       3.856   4.522  17.561  0.00  0.00    +0.000 A 
ATOM      6  C   UNL     1       4.663   4.183  16.469  0.00  0.00    +0.000 A 
ENDROOT
BRANCH   1   8
ATOM      7  N   UNL     1       7.435   5.316  14.545  0.00  0.00    +0.000 N 
ATOM      8  C   UNL     1       6.176   4.783  14.595  0.00  0.00    +0.000 C 
ATOM      9  O   UNL     1       5.791   3.988  13.750  0.00  0.00    +0.000 OA
ATOM     10  H   UNL     1       8.044   4.964  13.817  0.00  0.00    +0.000 HD
ATOM     11  H   UNL     1       7.865   5.763  15.342  0.00  0.00    +0.000 HD
ENDBRANCH   1   8
BRANCH   4  12
ATOM     12  C   UNL     1       2.854   6.221  19.080  0.00  0.00    +0.000 A 
ATOM     13  N   UNL     1       2.248   5.284  19.888  0.00  0.00    +0.000 NA
ATOM     14  N   UNL     1       1.556   5.948  20.801  0.00  0.00    +0.000 NA
ATOM     15  N   UNL     1       1.776   7.243  20.520  0.00  0.00    +0.000 N 
ATOM     16  N   UNL     1       2.564   7.481  19.451  0.00  0.00    +0.000 NA
BRANCH  15  17
ATOM     17  C   UNL     1       1.158   8.310  21.286  0.00  0.00    +0.000 C 
BRANCH  17  18
ATOM     18  C   UNL     1       0.378   9.219  20.440  0.00  0.00    +0.000 C 
ATOM     19  C   UNL     1      -0.254   9.942  19.722  0.00  0.00    +0.000 C 
ATOM     20  I   UNL     1      -1.344  11.169  18.449  0.00  0.00    +0.000 I 
ENDBRANCH  17  18
ENDBRANCH  15  17
ENDBRANCH   4  12
TORSDOF 4
ENDMDL
MODEL 2
REMARK VINA RESULT:      -6.6      0.094      1.142
REMARK  Name = 
REMARK  4 active torsions:
REMARK  status: ('A' for Active; 'I' for Inactive)
REMARK    1  A    between atoms: C_2  and  C_4
REMARK    2  A    between atoms: C_7  and  C_8
REMARK    3  A    between atoms: N_11  and  C_12
REMARK    4  A    between atoms: C_12  and  C_13
REMARK                            x       y       z     vdW  Elec       q    Type
REMARK                         _______ _______ _______ _____ _____    ______ ____
ROOT
ATOM      1  C   UNL     1       5.304   5.120  15.792  0.00  0.00    +0.000 A 
ATOM      2  C   UNL     1       4.616   4.149  16.528  0.00  0.00    +0.000 A 
ATOM      3  C   UNL     1       3.809   4.529  17.608  0.00  0.00    +0.000 A 
ATOM      4  C   UNL     1       3.679   5.879  17.968  0.00  0.00    +0.000 A 
ATOM      5  C   UNL     1       4.385   6.843  17.231  0.00  0.00    +0.000 A 
ATOM      6  C   UNL     1       5.198   6.466  16.156  0.00  0.00    +0.000 A 
ENDROOT
BRANCH   1   8
ATOM      7  N   UNL     1       7.394   5.367  14.570  0.00  0.00    +0.000 N 
ATOM      8  C   UNL     1       6.172   4.757  14.642  0.00  0.00    +0.000 C 
ATOM      9  O   UNL     1       5.830   3.924  13.814  0.00  0.00    +0.000 OA
ATOM     10  H   UNL     1       8.018   5.040  13.843  0.00  0.00    +0.000 HD
ATOM     11  H   UNL     1       7.802   5.853  15.356  0.00  0.00    +0.000 HD
ENDBRANCH   1   8
BRANCH   4  12
ATOM     12  C   UNL     1       2.823   6.268  19.082  0.00  0.00    +0.000 A 
ATOM     13  N   UNL     1       2.144   5.355  19.859  0.00  0.00    +0.000 NA
ATOM     14  N   UNL     1       1.448   6.045  20.750  0.00  0.00    +0.000 NA
ATOM     15  N   UNL     1       1.739   7.330  20.489  0.00  0.00    +0.000 N 
ATOM     16  N   UNL     1       2.578   7.538  19.453  0.00  0.00    +0.000 NA
BRANCH  15  17
ATOM     17  C   UNL     1       1.142   8.420  21.240  0.00  0.00    +0.000 C 
BRANCH  17  18
ATOM     18  C   UNL     1       0.318   9.289  20.394  0.00  0.00    +0.000 C 
ATOM     19  C   UNL     1      -0.339   9.988  19.675  0.00  0.00    +0.000 C 
ATOM     20  I   UNL     1      -1.461  11.182  18.400  0.00  0.00    +0.000 I 
ENDBRANCH  17  18
ENDBRANCH  15  17
ENDBRANCH   4  12
TORSDOF 4
ENDMDL
MODEL 3
REMARK VINA RESULT:      -6.5      4.718      7.488
REMARK  Name = 
REMARK  4 active torsions:
REMARK  status: ('A' for Active; 'I' for Inactive)
REMARK    1  A    between atoms: C_2  and  C_4
REMARK    2  A    between atoms: C_7  and  C_8
REMARK    3  A    between atoms: N_11  and  C_12
REMARK    4  A    between atoms: C_12  and  C_13
REMARK                            x       y       z     vdW  Elec       q    Type
REMARK                         _______ _______ _______ _____ _____    ______ ____
ROOT
ATOM      1  C   UNL     1       2.698   3.725  19.801  0.00  0.00    +0.000 A 
ATOM      2  C   UNL     1       2.336   4.487  18.685  0.00  0.00    +0.000 A 
ATOM      3  C   UNL     1       3.282   4.770  17.692  0.00  0.00    +0.000 A 
ATOM      4  C   UNL     1       4.599   4.298  17.799  0.00  0.00    +0.000 A 
ATOM      5  C   UNL     1       4.954   3.545  18.929  0.00  0.00    +0.000 A 
ATOM      6  C   UNL     1       4.013   3.267  19.927  0.00  0.00    +0.000 A 
ENDROOT
BRANCH   1   8
ATOM      7  N   UNL     1       0.433   3.168  20.492  0.00  0.00    +0.000 N 
ATOM      8  C   UNL     1       1.723   3.406  20.877  0.00  0.00    +0.000 C 
ATOM      9  O   UNL     1       2.062   3.320  22.049  0.00  0.00    +0.000 OA
ATOM     10  H   UNL     1      -0.201   2.853  21.215  0.00  0.00    +0.000 HD
ATOM     11  H   UNL     1       0.180   2.982  19.532  0.00  0.00    +0.000 HD
ENDBRANCH   1   8
BRANCH   4  12
ATOM     12  C   UNL     1       5.574   4.581  16.752  0.00  0.00    +0.000 A 
ATOM     13  N   UNL     1       6.482   5.614  16.834  0.00  0.00    +0.000 NA
ATOM     14  N   UNL     1       7.187   5.600  15.713  0.00  0.00    +0.000 NA
ATOM     15  N   UNL     1       6.691   4.567  15.011  0.00  0.00    +0.000 N 
ATOM     16  N   UNL     1       5.676   3.900  15.596  0.00  0.00    +0.000 NA
BRANCH  15  17
ATOM     17  C   UNL     1       7.185   4.232  13.687  0.00  0.00    +0.000 C 
BRANCH  17  18
ATOM     18  C   UNL     1       6.097   3.916  12.755  0.00  0.00    +0.000 C 
ATOM     19  C   UNL     1       5.187   3.656  12.019  0.00  0.00    +0.000 C 
ATOM     20  I   UNL     1       3.587   3.207  10.775  0.00  0.00    +0.000 I 
ENDBRANCH  17  18
ENDBRANCH  15  17
ENDBRANCH   4  12
TORSDOF 4
ENDMDL
MODEL 4
REMARK VINA RESULT:      -6.5      2.952      3.787
REMARK  Name = 
REMARK  4 active torsions:
REMARK  status: ('A' for Active; 'I' for Inactive)
REMARK    1  A    between atoms: C_2  and  C_4
REMARK    2  A    between atoms: C_7  and  C_8
REMARK    3  A    between atoms: N_11  and  C_12
REMARK    4  A    between atoms: C_12  and  C_13
REMARK                            x       y       z     vdW  Elec       q    Type
REMARK                         _______ _______ _______ _____ _____    ______ ____
ROOT
ATOM      1  C   UNL     1       3.559   3.713  19.069  0.00  0.00    +0.000 A 
ATOM      2  C   UNL     1       2.809   4.351  20.064  0.00  0.00    +0.000 A 
ATOM      3  C   UNL     1       2.396   5.678  19.888  0.00  0.00    +0.000 A 
ATOM      4  C   UNL     1       2.725   6.383  18.720  0.00  0.00    +0.000 A 
ATOM      5  C   UNL     1       3.488   5.738  17.736  0.00  0.00    +0.000 A 
ATOM      6  C   UNL     1       3.909   4.414  17.912  0.00  0.00    +0.000 A 
ENDROOT
BRANCH   1   8
ATOM      7  N   UNL     1       5.034   2.080  20.107  0.00  0.00    +0.000 N 
ATOM      8  C   UNL     1       4.018   2.308  19.220  0.00  0.00    +0.000 C 
ATOM      9  O   UNL     1       3.490   1.388  18.610  0.00  0.00    +0.000 OA
ATOM     10  H   UNL     1       5.272   1.111  20.279  0.00  0.00    +0.000 HD
ATOM     11  H   UNL     1       5.310   2.762  20.799  0.00  0.00    +0.000 HD
ENDBRANCH   1   8
BRANCH   4  12
ATOM     12  C   UNL     1       2.275   7.758  18.536  0.00  0.00    +0.000 A 
ATOM     13  N   UNL     1       2.598   8.510  17.428  0.00  0.00    +0.000 NA
ATOM     14  N   UNL     1       2.054   9.706  17.599  0.00  0.00    +0.000 NA
ATOM     15  N   UNL     1       1.423   9.628  18.782  0.00  0.00    +0.000 N 
ATOM     16  N   UNL     1       1.534   8.447  19.424  0.00  0.00    +0.000 NA
BRANCH  15  17
ATOM     17  C   UNL     1       0.718  10.762  19.352  0.00  0.00    +0.000 C 
BRANCH  17  18
ATOM     18  C   UNL     1      -0.662  10.858  18.863  0.00  0.00    +0.000 C 
ATOM     19  C   UNL     1      -1.777  10.945  18.433  0.00  0.00    +0.000 C 
ATOM     20  I   UNL     1      -3.695  11.104  17.654  0.00  0.00    +0.000 I 
ENDBRANCH  17  18
ENDBRANCH  15  17
ENDBRANCH   4  12
TORSDOF 4
ENDMDL
MODEL 5
REMARK VINA RESULT:      -6.5      4.561      6.447
REMARK  Name = 
REMARK  4 active torsions:
REMARK  status: ('A' for Active; 'I' for Inactive)
REMARK    1  A    between atoms: C_2  and  C_4
REMARK    2  A    between atoms: C_7  and  C_8
REMARK    3  A    between atoms: N_11  and  C_12
REMARK    4  A    between atoms: C_12  and  C_13
REMARK                            x       y       z     vdW  Elec       q    Type
REMARK                         _______ _______ _______ _____ _____    ______ ____
ROOT
ATOM      1  C   UNL     1       2.387   3.631  19.312  0.00  0.00    +0.000 A 
ATOM      2  C   UNL     1       2.463   4.989  19.646  0.00  0.00    +0.000 A 
ATOM      3  C   UNL     1       3.656   5.694  19.446  0.00  0.00    +0.000 A 
ATOM      4  C   UNL     1       4.787   5.056  18.912  0.00  0.00    +0.000 A 
ATOM      5  C   UNL     1       4.703   3.692  18.593  0.00  0.00    +0.000 A 
ATOM      6  C   UNL     1       3.514   2.982  18.799  0.00  0.00    +0.000 A 
ENDROOT
BRANCH   1   8
ATOM      7  N   UNL     1       0.439   3.083  20.662  0.00  0.00    +0.000 N 
ATOM      8  C   UNL     1       1.140   2.849  19.512  0.00  0.00    +0.000 C 
ATOM      9  O   UNL     1       0.733   2.057  18.672  0.00  0.00    +0.000 OA
ATOM     10  H   UNL     1      -0.459   2.623  20.744  0.00  0.00    +0.000 HD
ATOM     11  H   UNL     1       0.605   3.894  21.241  0.00  0.00    +0.000 HD
ENDBRANCH   1   8
BRANCH   4  12
ATOM     12  C   UNL     1       6.020   5.802  18.689  0.00  0.00    +0.000 A 
ATOM     13  N   UNL     1       7.186   5.544  19.377  0.00  0.00    +0.000 NA
ATOM     14  N   UNL     1       8.088   6.415  18.952  0.00  0.00    +0.000 NA
ATOM     15  N   UNL     1       7.445   7.148  18.027  0.00  0.00    +0.000 N 
ATOM     16  N   UNL     1       6.151   6.826  17.826  0.00  0.00    +0.000 NA
BRANCH  15  17
ATOM     17  C   UNL     1       8.092   8.248  17.334  0.00  0.00    +0.000 C 
BRANCH  17  18
ATOM     18  C   UNL     1       8.576   9.277  18.260  0.00  0.00    +0.000 C 
ATOM     19  C   UNL     1       8.990  10.095  19.032  0.00  0.00    +0.000 C 
ATOM     20  I   UNL     1       9.731  11.485  20.385  0.00  0.00    +0.000 I 
ENDBRANCH  17  18
ENDBRANCH  15  17
ENDBRANCH   4  12
TORSDOF 4
ENDMDL
MODEL 6
REMARK VINA RESULT:      -6.5      1.092      1.577
REMARK  Name = 
REMARK  4 active torsions:
REMARK  status: ('A' for Active; 'I' for Inactive)
REMARK    1  A    between atoms: C_2  and  C_4
REMARK    2  A    between atoms: C_7  and  C_8
REMARK    3  A    between atoms: N_11  and  C_12
REMARK    4  A    between atoms: C_12  and  C_13
REMARK                            x       y       z     vdW  Elec       q    Type
REMARK                         _______ _______ _______ _____ _____    ______ ____
ROOT
ATOM      1  C   UNL     1       5.686   4.969  15.753  0.00  0.00    +0.000 A 
ATOM      2  C   UNL     1       5.120   3.907  16.468  0.00  0.00    +0.000 A 
ATOM      3  C   UNL     1       4.267   4.165  17.549  0.00  0.00    +0.000 A 
ATOM      4  C   UNL     1       3.969   5.483  17.929  0.00  0.00    +0.000 A 
ATOM      5  C   UNL     1       4.552   6.539  17.213  0.00  0.00    +0.000 A 
ATOM      6  C   UNL     1       5.410   6.284  16.137  0.00  0.00    +0.000 A 
ENDROOT
BRANCH   1   8
ATOM      7  N   UNL     1       6.335   3.647  13.816  0.00  0.00    +0.000 N 
ATOM      8  C   UNL     1       6.596   4.735  14.602  0.00  0.00    +0.000 C 
ATOM      9  O   UNL     1       7.516   5.499  14.342  0.00  0.00    +0.000 OA
ATOM     10  H   UNL     1       6.895   3.552  12.978  0.00  0.00    +0.000 HD
ATOM     11  H   UNL     1       5.454   3.155  13.850  0.00  0.00    +0.000 HD
ENDBRANCH   1   8
BRANCH   4  12
ATOM     12  C   UNL     1       3.065   5.743  19.044  0.00  0.00    +0.000 A 
ATOM     13  N   UNL     1       2.540   4.742  19.831  0.00  0.00    +0.000 NA
ATOM     14  N   UNL     1       1.748   5.323  20.720  0.00  0.00    +0.000 NA
ATOM     15  N   UNL     1       1.834   6.635  20.447  0.00  0.00    +0.000 N 
ATOM     16  N   UNL     1       2.626   6.962  19.405  0.00  0.00    +0.000 NA
BRANCH  15  17
ATOM     17  C   UNL     1       1.077   7.625  21.192  0.00  0.00    +0.000 C 
BRANCH  17  18
ATOM     18  C   UNL     1       1.047   8.925  20.513  0.00  0.00    +0.000 C 
ATOM     19  C   UNL     1       0.993   9.980  19.946  0.00  0.00    +0.000 C 
ATOM     20  I   UNL     1       0.865  11.798  18.951  0.00  0.00    +0.000 I 
ENDBRANCH  17  18
ENDBRANCH  15  17
ENDBRANCH   4  12
TORSDOF 4
ENDMDL
MODEL 7
REMARK VINA RESULT:      -6.5      3.065      3.804
REMARK  Name = 
REMARK  4 active torsions:
REMARK  status: ('A' for Active; 'I' for Inactive)
REMARK    1  A    between atoms: C_2  and  C_4
REMARK    2  A    between atoms: C_7  and  C_8
REMARK    3  A    between atoms: N_11  and  C_12
REMARK    4  A    between atoms: C_12  and  C_13
REMARK                            x       y       z     vdW  Elec       q    Type
REMARK                         _______ _______ _______ _____ _____    ______ ____
ROOT
ATOM      1  C   UNL     1       3.806   3.713  19.236  0.00  0.00    +0.000 A 
ATOM      2  C   UNL     1       4.373   4.515  18.238  0.00  0.00    +0.000 A 
ATOM      3  C   UNL     1       3.888   5.811  18.020  0.00  0.00    +0.000 A 
ATOM      4  C   UNL     1       2.833   6.322  18.791  0.00  0.00    +0.000 A 
ATOM      5  C   UNL     1       2.264   5.504  19.779  0.00  0.00    +0.000 A 
ATOM      6  C   UNL     1       2.741   4.207  19.995  0.00  0.00    +0.000 A 
ENDROOT
BRANCH   1   8
ATOM      7  N   UNL     1       3.951   1.374  18.583  0.00  0.00    +0.000 N 
ATOM      8  C   UNL     1       4.291   2.333  19.497  0.00  0.00    +0.000 C 
ATOM      9  O   UNL     1       4.994   2.068  20.462  0.00  0.00    +0.000 OA
ATOM     10  H   UNL     1       4.369   0.461  18.712  0.00  0.00    +0.000 HD
ATOM     11  H   UNL     1       3.599   1.604  17.664  0.00  0.00    +0.000 HD
ENDBRANCH   1   8
BRANCH   4  12
ATOM     12  C   UNL     1       2.346   7.679  18.569  0.00  0.00    +0.000 A 
ATOM     13  N   UNL     1       2.631   8.400  17.430  0.00  0.00    +0.000 NA
ATOM     14  N   UNL     1       2.061   9.587  17.570  0.00  0.00    +0.000 NA
ATOM     15  N   UNL     1       1.453   9.534  18.767  0.00  0.00    +0.000 N 
ATOM     16  N   UNL     1       1.604   8.379  19.446  0.00  0.00    +0.000 NA
BRANCH  15  17
ATOM     17  C   UNL     1       0.729  10.670  19.311  0.00  0.00    +0.000 C 
BRANCH  17  18
ATOM     18  C   UNL     1      -0.642  10.749  18.797  0.00  0.00    +0.000 C 
ATOM     19  C   UNL     1      -1.757  10.845  18.367  0.00  0.00    +0.000 C 
ATOM     20  I   UNL     1      -3.679  11.045  17.608  0.00  0.00    +0.000 I 
ENDBRANCH  17  18
ENDBRANCH  15  17
ENDBRANCH   4  12
TORSDOF 4
ENDMDL
MODEL 8
REMARK VINA RESULT:      -6.4      1.387      2.061
REMARK  Name = 
REMARK  4 active torsions:
REMARK  status: ('A' for Active; 'I' for Inactive)
REMARK    1  A    between atoms: C_2  and  C_4
REMARK    2  A    between atoms: C_7  and  C_8
REMARK    3  A    between atoms: N_11  and  C_12
REMARK    4  A    between atoms: C_12  and  C_13
REMARK                            x       y       z     vdW  Elec       q    Type
REMARK                         _______ _______ _______ _____ _____    ______ ____
ROOT
ATOM      1  C   UNL     1       5.261   5.305  16.237  0.00  0.00    +0.000 A 
ATOM      2  C   UNL     1       4.243   4.665  16.953  0.00  0.00    +0.000 A 
ATOM      3  C   UNL     1       3.371   5.414  17.753  0.00  0.00    +0.000 A 
ATOM      4  C   UNL     1       3.504   6.808  17.849  0.00  0.00    +0.000 A 
ATOM      5  C   UNL     1       4.536   7.437  17.137  0.00  0.00    +0.000 A 
ATOM      6  C   UNL     1       5.414   6.690  16.343  0.00  0.00    +0.000 A 
ENDROOT
BRANCH   1   8
ATOM      7  N   UNL     1       7.350   5.190  14.996  0.00  0.00    +0.000 N 
ATOM      8  C   UNL     1       6.208   4.544  15.380  0.00  0.00    +0.000 C 
ATOM      9  O   UNL     1       5.998   3.382  15.061  0.00  0.00    +0.000 OA
ATOM     10  H   UNL     1       8.035   4.634  14.498  0.00  0.00    +0.000 HD
ATOM     11  H   UNL     1       7.668   6.038  15.442  0.00  0.00    +0.000 HD
ENDBRANCH   1   8
BRANCH   4  12
ATOM     12  C   UNL     1       2.580   7.583  18.670  0.00  0.00    +0.000 A 
ATOM     13  N   UNL     1       2.212   7.206  19.943  0.00  0.00    +0.000 NA
ATOM     14  N   UNL     1       1.351   8.111  20.382  0.00  0.00    +0.000 NA
ATOM     15  N   UNL     1       1.242   8.994  19.375  0.00  0.00    +0.000 N 
ATOM     16  N   UNL     1       1.970   8.716  18.275  0.00  0.00    +0.000 NA
BRANCH  15  17
ATOM     17  C   UNL     1       0.353  10.140  19.453  0.00  0.00    +0.000 C 
BRANCH  17  18
ATOM     18  C   UNL     1      -0.632  10.151  18.367  0.00  0.00    +0.000 C 
ATOM     19  C   UNL     1      -1.461  10.169  17.501  0.00  0.00    +0.000 C 
ATOM     20  I   UNL     1      -2.921  10.213  16.026  0.00  0.00    +0.000 I 
ENDBRANCH  17  18
ENDBRANCH  15  17
ENDBRANCH   4  12
TORSDOF 4
ENDMDL
MODEL 9
REMARK VINA RESULT:      -6.4      4.879      6.577
REMARK  Name = 
REMARK  4 active torsions:
REMARK  status: ('A' for Active; 'I' for Inactive)
REMARK    1  A    between atoms: C_2  and  C_4
REMARK    2  A    between atoms: C_7  and  C_8
REMARK    3  A    between atoms: N_11  and  C_12
REMARK    4  A    between atoms: C_12  and  C_13
REMARK                            x       y       z     vdW  Elec       q    Type
REMARK                         _______ _______ _______ _____ _____    ______ ____
ROOT
ATOM      1  C   UNL     1       2.500   3.423  19.523  0.00  0.00    +0.000 A 
ATOM      2  C   UNL     1       3.664   2.794  19.066  0.00  0.00    +0.000 A 
ATOM      3  C   UNL     1       4.814   3.550  18.807  0.00  0.00    +0.000 A 
ATOM      4  C   UNL     1       4.818   4.941  19.001  0.00  0.00    +0.000 A 
ATOM      5  C   UNL     1       3.641   5.561  19.447  0.00  0.00    +0.000 A 
ATOM      6  C   UNL     1       2.488   4.809  19.699  0.00  0.00    +0.000 A 
ENDROOT
BRANCH   1   8
ATOM      7  N   UNL     1       0.731   1.930  18.775  0.00  0.00    +0.000 N 
ATOM      8  C   UNL     1       1.260   2.655  19.806  0.00  0.00    +0.000 C 
ATOM      9  O   UNL     1       0.751   2.639  20.919  0.00  0.00    +0.000 OA
ATOM     10  H   UNL     1      -0.053   1.331  19.001  0.00  0.00    +0.000 HD
ATOM     11  H   UNL     1       1.255   1.721  17.936  0.00  0.00    +0.000 HD
ENDBRANCH   1   8
BRANCH   4  12
ATOM     12  C   UNL     1       6.025   5.718  18.747  0.00  0.00    +0.000 A 
ATOM     13  N   UNL     1       7.221   5.474  19.385  0.00  0.00    +0.000 NA
ATOM     14  N   UNL     1       8.088   6.373  18.943  0.00  0.00    +0.000 NA
ATOM     15  N   UNL     1       7.394   7.108  18.057  0.00  0.00    +0.000 N 
ATOM     16  N   UNL     1       6.100   6.761  17.900  0.00  0.00    +0.000 NA
BRANCH  15  17
ATOM     17  C   UNL     1       7.990   8.235  17.362  0.00  0.00    +0.000 C 
BRANCH  17  18
ATOM     18  C   UNL     1       8.561   9.218  18.290  0.00  0.00    +0.000 C 
ATOM     19  C   UNL     1       9.017  10.045  19.028  0.00  0.00    +0.000 C 
ATOM     20  I   UNL     1       9.791  11.505  20.285  0.00  0.00    +0.000 I 
ENDBRANCH  17  18
ENDBRANCH  15  17
ENDBRANCH   4  12
TORSDOF 4
ENDMDL
