MODEL 1
REMARK VINA RESULT:      -7.0      0.000      0.000
REMARK  Name = 
REMARK  2 active torsions:
REMARK  status: ('A' for Active; 'I' for Inactive)
REMARK    1  A    between atoms: C_1  and  C_2
REMARK    2  A    between atoms: C_11  and  N_12
REMARK                            x       y       z     vdW  Elec       q    Type
REMARK                         _______ _______ _______ _____ _____    ______ ____
ROOT
ATOM      1  C   UNL     1      -2.205  14.495  20.880  0.00  0.00    +0.000 C 
ATOM      2  C   UNL     1      -1.255  13.600  20.193  0.00  0.00    +0.000 A 
ATOM      3  C   UNL     1      -0.714  12.389  20.560  0.00  0.00    +0.000 A 
ATOM      4  C   UNL     1       0.114  11.993  19.483  0.00  0.00    +0.000 A 
ATOM      5  N   UNL     1       0.784  10.820  19.436  0.00  0.00    +0.000 N 
ATOM      6  C   UNL     1       1.261  10.116  20.644  0.00  0.00    +0.000 C 
ATOM      7  C   UNL     1       1.119   8.581  20.474  0.00  0.00    +0.000 C 
ATOM      8  N   UNL     1       1.776   8.194  19.224  0.00  0.00    +0.000 N 
ATOM      9  C   UNL     1       2.543   7.058  19.142  0.00  0.00    +0.000 A 
ATOM     10  C   UNL     1       3.550   6.994  18.195  0.00  0.00    +0.000 A 
ATOM     11  C   UNL     1       4.365   5.880  18.132  0.00  0.00    +0.000 A 
ATOM     12  N   UNL     1       4.146   4.851  18.961  0.00  0.00    +0.000 NA
ATOM     13  C   UNL     1       3.159   4.996  19.865  0.00  0.00    +0.000 A 
ATOM     14  N   UNL     1       2.363   6.061  20.013  0.00  0.00    +0.000 NA
ATOM     15  C   UNL     1       1.265   8.871  18.023  0.00  0.00    +0.000 C 
ATOM     16  C   UNL     1       1.438  10.394  18.189  0.00  0.00    +0.000 C 
ATOM     17  N   UNL     1       0.076  12.899  18.502  0.00  0.00    +0.000 NA
ATOM     18  N   UNL     1      -0.736  13.862  18.958  0.00  0.00    +0.000 N 
ATOM     19  H   UNL     1      -0.902  14.667  18.363  0.00  0.00    +0.000 HD
ENDROOT
BRANCH  11  20
ATOM     20  N   UNL     1       5.386   5.812  17.205  0.00  0.00    +0.000 N 
ATOM     21  C   UNL     1       5.185   6.233  15.828  0.00  0.00    +0.000 C 
ATOM     22  C   UNL     1       5.902   5.155  15.022  0.00  0.00    +0.000 C 
ATOM     23  C   UNL     1       7.060   4.748  15.919  0.00  0.00    +0.000 C 
ATOM     24  C   UNL     1       6.491   4.867  17.329  0.00  0.00    +0.000 C 
ENDBRANCH  11  20
TORSDOF 1
ENDMDL
MODEL 2
REMARK VINA RESULT:      -6.9      2.418      3.770
REMARK  Name = 
REMARK  2 active torsions:
REMARK  status: ('A' for Active; 'I' for Inactive)
REMARK    1  A    between atoms: C_1  and  C_2
REMARK    2  A    between atoms: C_11  and  N_12
REMARK                            x       y       z     vdW  Elec       q    Type
REMARK                         _______ _______ _______ _____ _____    ______ ____
ROOT
ATOM      1  C   UNL     1      -3.495  14.926  22.036  0.00  0.00    +0.000 C 
ATOM      2  C   UNL     1      -2.789  13.633  22.084  0.00  0.00    +0.000 A 
ATOM      3  C   UNL     1      -2.079  12.944  21.128  0.00  0.00    +0.000 A 
ATOM      4  C   UNL     1      -1.607  11.773  21.766  0.00  0.00    +0.000 A 
ATOM      5  N   UNL     1      -0.814  10.854  21.170  0.00  0.00    +0.000 N 
ATOM      6  C   UNL     1      -0.840  10.589  19.717  0.00  0.00    +0.000 C 
ATOM      7  C   UNL     1       0.589  10.302  19.188  0.00  0.00    +0.000 C 
ATOM      8  N   UNL     1       1.178   9.240  20.007  0.00  0.00    +0.000 N 
ATOM      9  C   UNL     1       1.921   8.232  19.445  0.00  0.00    +0.000 A 
ATOM     10  C   UNL     1       1.996   7.011  20.092  0.00  0.00    +0.000 A 
ATOM     11  C   UNL     1       2.696   5.969  19.515  0.00  0.00    +0.000 A 
ATOM     12  N   UNL     1       3.333   6.161  18.353  0.00  0.00    +0.000 NA
ATOM     13  C   UNL     1       3.198   7.370  17.776  0.00  0.00    +0.000 A 
ATOM     14  N   UNL     1       2.501   8.408  18.253  0.00  0.00    +0.000 NA
ATOM     15  C   UNL     1       1.237   9.533  21.447  0.00  0.00    +0.000 C 
ATOM     16  C   UNL     1      -0.191   9.788  21.969  0.00  0.00    +0.000 C 
ATOM     17  N   UNL     1      -1.992  11.744  23.045  0.00  0.00    +0.000 NA
ATOM     18  N   UNL     1      -2.715  12.861  23.208  0.00  0.00    +0.000 N 
ATOM     19  H   UNL     1      -3.118  13.038  24.122  0.00  0.00    +0.000 HD
ENDROOT
BRANCH  11  20
ATOM     20  N   UNL     1       2.762   4.740  20.141  0.00  0.00    +0.000 N 
ATOM     21  C   UNL     1       3.460   3.619  19.530  0.00  0.00    +0.000 C 
ATOM     22  C   UNL     1       2.529   2.440  19.793  0.00  0.00    +0.000 C 
ATOM     23  C   UNL     1       1.891   2.778  21.130  0.00  0.00    +0.000 C 
ATOM     24  C   UNL     1       1.756   4.296  21.099  0.00  0.00    +0.000 C 
ENDBRANCH  11  20
TORSDOF 1
ENDMDL
MODEL 3
REMARK VINA RESULT:      -6.9      2.165      2.900
REMARK  Name = 
REMARK  2 active torsions:
REMARK  status: ('A' for Active; 'I' for Inactive)
REMARK    1  A    between atoms: C_1  and  C_2
REMARK    2  A    between atoms: C_11  and  N_12
REMARK                            x       y       z     vdW  Elec       q    Type
REMARK                         _______ _______ _______ _____ _____    ______ ____
ROOT
ATOM      1  C   UNL     1      -1.232  11.132  23.065  0.00  0.00    +0.000 C 
ATOM      2  C   UNL     1      -0.330  10.494  22.089  0.00  0.00    +0.000 A 
ATOM      3  C   UNL     1       0.056   9.184  21.923  0.00  0.00    +0.000 A 
ATOM      4  C   UNL     1       0.916   9.173  20.800  0.00  0.00    +0.000 A 
ATOM      5  N   UNL     1       1.466   8.053  20.279  0.00  0.00    +0.000 N 
ATOM      6  C   UNL     1       1.777   6.857  21.088  0.00  0.00    +0.000 C 
ATOM      7  C   UNL     1       1.493   5.562  20.284  0.00  0.00    +0.000 C 
ATOM      8  N   UNL     1       2.197   5.652  19.003  0.00  0.00    +0.000 N 
ATOM      9  C   UNL     1       2.849   4.568  18.468  0.00  0.00    +0.000 A 
ATOM     10  C   UNL     1       3.911   4.780  17.607  0.00  0.00    +0.000 A 
ATOM     11  C   UNL     1       4.610   3.702  17.100  0.00  0.00    +0.000 A 
ATOM     12  N   UNL     1       4.227   2.457  17.412  0.00  0.00    +0.000 NA
ATOM     13  C   UNL     1       3.196   2.333  18.268  0.00  0.00    +0.000 A 
ATOM     14  N   UNL     1       2.503   3.329  18.833  0.00  0.00    +0.000 NA
ATOM     15  C   UNL     1       1.848   6.825  18.188  0.00  0.00    +0.000 C 
ATOM     16  C   UNL     1       2.163   8.106  18.985  0.00  0.00    +0.000 C 
ATOM     17  N   UNL     1       1.044  10.402  20.292  0.00  0.00    +0.000 NA
ATOM     18  N   UNL     1       0.303  11.180  21.092  0.00  0.00    +0.000 N 
ATOM     19  H   UNL     1       0.265  12.173  20.888  0.00  0.00    +0.000 HD
ENDROOT
BRANCH  11  20
ATOM     20  N   UNL     1       5.685   3.900  16.256  0.00  0.00    +0.000 N 
ATOM     21  C   UNL     1       6.937   4.455  16.747  0.00  0.00    +0.000 C 
ATOM     22  C   UNL     1       7.341   5.436  15.650  0.00  0.00    +0.000 C 
ATOM     23  C   UNL     1       6.815   4.788  14.379  0.00  0.00    +0.000 C 
ATOM     24  C   UNL     1       5.524   4.107  14.821  0.00  0.00    +0.000 C 
ENDBRANCH  11  20
TORSDOF 1
ENDMDL
MODEL 4
REMARK VINA RESULT:      -6.8      1.292      1.704
REMARK  Name = 
REMARK  2 active torsions:
REMARK  status: ('A' for Active; 'I' for Inactive)
REMARK    1  A    between atoms: C_1  and  C_2
REMARK    2  A    between atoms: C_11  and  N_12
REMARK                            x       y       z     vdW  Elec       q    Type
REMARK                         _______ _______ _______ _____ _____    ______ ____
ROOT
ATOM      1  C   UNL     1      -2.037  12.775  21.208  0.00  0.00    +0.000 C 
ATOM      2  C   UNL     1      -1.029  11.933  20.537  0.00  0.00    +0.000 A 
ATOM      3  C   UNL     1      -0.486  10.715  20.876  0.00  0.00    +0.000 A 
ATOM      4  C   UNL     1       0.412  10.389  19.832  0.00  0.00    +0.000 A 
ATOM      5  N   UNL     1       1.109   9.232  19.768  0.00  0.00    +0.000 N 
ATOM      6  C   UNL     1       1.526   8.476  20.966  0.00  0.00    +0.000 C 
ATOM      7  C   UNL     1       1.427   6.949  20.712  0.00  0.00    +0.000 C 
ATOM      8  N   UNL     1       2.165   6.637  19.487  0.00  0.00    +0.000 N 
ATOM      9  C   UNL     1       2.959   5.521  19.395  0.00  0.00    +0.000 A 
ATOM     10  C   UNL     1       4.022   5.523  18.509  0.00  0.00    +0.000 A 
ATOM     11  C   UNL     1       4.861   4.428  18.440  0.00  0.00    +0.000 A 
ATOM     12  N   UNL     1       4.615   3.355  19.202  0.00  0.00    +0.000 NA
ATOM     13  C   UNL     1       3.573   3.436  20.051  0.00  0.00    +0.000 A 
ATOM     14  N   UNL     1       2.747   4.477  20.203  0.00  0.00    +0.000 NA
ATOM     15  C   UNL     1       1.713   7.365  18.292  0.00  0.00    +0.000 C 
ATOM     16  C   UNL     1       1.845   8.881  18.544  0.00  0.00    +0.000 C 
ATOM     17  N   UNL     1       0.415  11.343  18.897  0.00  0.00    +0.000 NA
ATOM     18  N   UNL     1      -0.443  12.267  19.351  0.00  0.00    +0.000 N 
ATOM     19  H   UNL     1      -0.589  13.098  18.787  0.00  0.00    +0.000 HD
ENDROOT
BRANCH  11  20
ATOM     20  N   UNL     1       5.938   4.425  17.575  0.00  0.00    +0.000 N 
ATOM     21  C   UNL     1       7.083   5.296  17.793  0.00  0.00    +0.000 C 
ATOM     22  C   UNL     1       7.403   5.812  16.393  0.00  0.00    +0.000 C 
ATOM     23  C   UNL     1       7.024   4.652  15.488  0.00  0.00    +0.000 C 
ATOM     24  C   UNL     1       5.815   4.028  16.177  0.00  0.00    +0.000 C 
ENDBRANCH  11  20
TORSDOF 1
ENDMDL
MODEL 5
REMARK VINA RESULT:      -6.7      0.882      1.264
REMARK  Name = 
REMARK  2 active torsions:
REMARK  status: ('A' for Active; 'I' for Inactive)
REMARK    1  A    between atoms: C_1  and  C_2
REMARK    2  A    between atoms: C_11  and  N_12
REMARK                            x       y       z     vdW  Elec       q    Type
REMARK                         _______ _______ _______ _____ _____    ______ ____
ROOT
ATOM      1  C   UNL     1      -1.833  15.069  20.593  0.00  0.00    +0.000 C 
ATOM      2  C   UNL     1      -0.896  14.053  20.079  0.00  0.00    +0.000 A 
ATOM      3  C   UNL     1      -0.576  12.794  20.533  0.00  0.00    +0.000 A 
ATOM      4  C   UNL     1       0.368  12.279  19.612  0.00  0.00    +0.000 A 
ATOM      5  N   UNL     1       0.889  11.034  19.681  0.00  0.00    +0.000 N 
ATOM      6  C   UNL     1       1.065  10.303  20.952  0.00  0.00    +0.000 C 
ATOM      7  C   UNL     1       0.769   8.793  20.761  0.00  0.00    +0.000 C 
ATOM      8  N   UNL     1       1.576   8.304  19.642  0.00  0.00    +0.000 N 
ATOM      9  C   UNL     1       2.202   7.083  19.691  0.00  0.00    +0.000 A 
ATOM     10  C   UNL     1       3.340   6.879  18.929  0.00  0.00    +0.000 A 
ATOM     11  C   UNL     1       4.011   5.675  19.006  0.00  0.00    +0.000 A 
ATOM     12  N   UNL     1       3.532   4.697  19.786  0.00  0.00    +0.000 NA
ATOM     13  C   UNL     1       2.432   4.977  20.509  0.00  0.00    +0.000 A 
ATOM     14  N   UNL     1       1.757   6.133  20.519  0.00  0.00    +0.000 NA
ATOM     15  C   UNL     1       1.362   9.012  18.371  0.00  0.00    +0.000 C 
ATOM     16  C   UNL     1       1.688  10.507  18.564  0.00  0.00    +0.000 C 
ATOM     17  N   UNL     1       0.607  13.163  18.639  0.00  0.00    +0.000 NA
ATOM     18  N   UNL     1      -0.148  14.225  18.951  0.00  0.00    +0.000 N 
ATOM     19  H   UNL     1      -0.111  15.032  18.336  0.00  0.00    +0.000 HD
ENDROOT
BRANCH  11  20
ATOM     20  N   UNL     1       5.159   5.466  18.267  0.00  0.00    +0.000 N 
ATOM     21  C   UNL     1       6.472   5.477  18.894  0.00  0.00    +0.000 C 
ATOM     22  C   UNL     1       7.329   6.257  17.902  0.00  0.00    +0.000 C 
ATOM     23  C   UNL     1       6.725   5.904  16.552  0.00  0.00    +0.000 C 
ATOM     24  C   UNL     1       5.235   5.764  16.841  0.00  0.00    +0.000 C 
ENDBRANCH  11  20
TORSDOF 1
ENDMDL
MODEL 6
REMARK VINA RESULT:      -6.6      1.118      1.168
REMARK  Name = 
REMARK  2 active torsions:
REMARK  status: ('A' for Active; 'I' for Inactive)
REMARK    1  A    between atoms: C_1  and  C_2
REMARK    2  A    between atoms: C_11  and  N_12
REMARK                            x       y       z     vdW  Elec       q    Type
REMARK                         _______ _______ _______ _____ _____    ______ ____
ROOT
ATOM      1  C   UNL     1      -2.345  12.892  22.139  0.00  0.00    +0.000 C 
ATOM      2  C   UNL     1      -1.379  12.177  21.286  0.00  0.00    +0.000 A 
ATOM      3  C   UNL     1      -0.693  10.999  21.473  0.00  0.00    +0.000 A 
ATOM      4  C   UNL     1       0.069  10.804  20.296  0.00  0.00    +0.000 A 
ATOM      5  N   UNL     1       0.842   9.719  20.068  0.00  0.00    +0.000 N 
ATOM      6  C   UNL     1       1.491   8.950  21.149  0.00  0.00    +0.000 C 
ATOM      7  C   UNL     1       1.483   7.434  20.823  0.00  0.00    +0.000 C 
ATOM      8  N   UNL     1       2.059   7.246  19.490  0.00  0.00    +0.000 N 
ATOM      9  C   UNL     1       2.922   6.212  19.222  0.00  0.00    +0.000 A 
ATOM     10  C   UNL     1       3.841   6.351  18.197  0.00  0.00    +0.000 A 
ATOM     11  C   UNL     1       4.750   5.342  17.948  0.00  0.00    +0.000 A 
ATOM     12  N   UNL     1       4.707   4.216  18.673  0.00  0.00    +0.000 NA
ATOM     13  C   UNL     1       3.796   4.163  19.663  0.00  0.00    +0.000 A 
ATOM     14  N   UNL     1       2.917   5.118  19.990  0.00  0.00    +0.000 NA
ATOM     15  C   UNL     1       1.380   7.984  18.415  0.00  0.00    +0.000 C 
ATOM     16  C   UNL     1       1.419   9.492  18.734  0.00  0.00    +0.000 C 
ATOM     17  N   UNL     1      -0.144  11.796  19.427  0.00  0.00    +0.000 NA
ATOM     18  N   UNL     1      -1.001  12.616  20.050  0.00  0.00    +0.000 N 
ATOM     19  H   UNL     1      -1.296  13.456  19.562  0.00  0.00    +0.000 HD
ENDROOT
BRANCH  11  20
ATOM     20  N   UNL     1       5.686   5.476  16.941  0.00  0.00    +0.000 N 
ATOM     21  C   UNL     1       5.311   5.965  15.623  0.00  0.00    +0.000 C 
ATOM     22  C   UNL     1       6.084   5.052  14.677  0.00  0.00    +0.000 C 
ATOM     23  C   UNL     1       7.358   4.737  15.444  0.00  0.00    +0.000 C 
ATOM     24  C   UNL     1       6.907   4.678  16.898  0.00  0.00    +0.000 C 
ENDBRANCH  11  20
TORSDOF 1
ENDMDL
MODEL 7
REMARK VINA RESULT:      -6.6      2.322      3.608
REMARK  Name = 
REMARK  2 active torsions:
REMARK  status: ('A' for Active; 'I' for Inactive)
REMARK    1  A    between atoms: C_1  and  C_2
REMARK    2  A    between atoms: C_11  and  N_12
REMARK                            x       y       z     vdW  Elec       q    Type
REMARK                         _______ _______ _______ _____ _____    ______ ____
ROOT
ATOM      1  C   UNL     1      -2.346  14.272  22.913  0.00  0.00    +0.000 C 
ATOM      2  C   UNL     1      -1.875  12.906  22.622  0.00  0.00    +0.000 A 
ATOM      3  C   UNL     1      -1.109  12.404  21.595  0.00  0.00    +0.000 A 
ATOM      4  C   UNL     1      -0.960  11.023  21.862  0.00  0.00    +0.000 A 
ATOM      5  N   UNL     1      -0.221  10.181  21.106  0.00  0.00    +0.000 N 
ATOM      6  C   UNL     1      -0.005  10.379  19.658  0.00  0.00    +0.000 C 
ATOM      7  C   UNL     1       1.436   9.969  19.258  0.00  0.00    +0.000 C 
ATOM      8  N   UNL     1       1.681   8.611  19.747  0.00  0.00    +0.000 N 
ATOM      9  C   UNL     1       2.351   7.686  18.985  0.00  0.00    +0.000 A 
ATOM     10  C   UNL     1       2.107   6.340  19.193  0.00  0.00    +0.000 A 
ATOM     11  C   UNL     1       2.733   5.398  18.401  0.00  0.00    +0.000 A 
ATOM     12  N   UNL     1       3.605   5.793  17.464  0.00  0.00    +0.000 NA
ATOM     13  C   UNL     1       3.776   7.119  17.311  0.00  0.00    +0.000 A 
ATOM     14  N   UNL     1       3.172   8.087  18.009  0.00  0.00    +0.000 NA
ATOM     15  C   UNL     1       1.504   8.436  21.197  0.00  0.00    +0.000 C 
ATOM     16  C   UNL     1       0.060   8.817  21.579  0.00  0.00    +0.000 C 
ATOM     17  N   UNL     1      -1.586  10.692  22.996  0.00  0.00    +0.000 NA
ATOM     18  N   UNL     1      -2.142  11.834  23.423  0.00  0.00    +0.000 N 
ATOM     19  H   UNL     1      -2.683  11.807  24.282  0.00  0.00    +0.000 HD
ENDROOT
BRANCH  11  20
ATOM     20  N   UNL     1       2.482   4.052  18.584  0.00  0.00    +0.000 N 
ATOM     21  C   UNL     1       1.229   3.453  18.153  0.00  0.00    +0.000 C 
ATOM     22  C   UNL     1       0.869   2.522  19.307  0.00  0.00    +0.000 C 
ATOM     23  C   UNL     1       2.220   2.061  19.830  0.00  0.00    +0.000 C 
ATOM     24  C   UNL     1       3.121   3.275  19.641  0.00  0.00    +0.000 C 
ENDBRANCH  11  20
TORSDOF 1
ENDMDL
MODEL 8
REMARK VINA RESULT:      -6.4      2.758      4.991
REMARK  Name = 
REMARK  2 active torsions:
REMARK  status: ('A' for Active; 'I' for Inactive)
REMARK    1  A    between atoms: C_1  and  C_2
REMARK    2  A    between atoms: C_11  and  N_12
REMARK                            x       y       z     vdW  Elec       q    Type
REMARK                         _______ _______ _______ _____ _____    ______ ____
ROOT
ATOM      1  C   UNL     1      -5.510  15.555  23.825  0.00  0.00    +0.000 C 
ATOM      2  C   UNL     1      -4.594  14.421  23.603  0.00  0.00    +0.000 A 
ATOM      3  C   UNL     1      -3.877  14.029  22.496  0.00  0.00    +0.000 A 
ATOM      4  C   UNL     1      -3.153  12.880  22.891  0.00  0.00    +0.000 A 
ATOM      5  N   UNL     1      -2.280  12.225  22.093  0.00  0.00    +0.000 N 
ATOM      6  C   UNL     1      -2.406  12.187  20.622  0.00  0.00    +0.000 C 
ATOM      7  C   UNL     1      -1.010  12.251  19.951  0.00  0.00    +0.000 C 
ATOM      8  N   UNL     1      -0.170  11.202  20.534  0.00  0.00    +0.000 N 
ATOM      9  C   UNL     1       0.671  10.445  19.757  0.00  0.00    +0.000 A 
ATOM     10  C   UNL     1       1.017   9.174  20.182  0.00  0.00    +0.000 A 
ATOM     11  C   UNL     1       1.821   8.379  19.388  0.00  0.00    +0.000 A 
ATOM     12  N   UNL     1       2.296   8.861  18.233  0.00  0.00    +0.000 NA
ATOM     13  C   UNL     1       1.902  10.099  17.880  0.00  0.00    +0.000 A 
ATOM     14  N   UNL     1       1.091  10.906  18.575  0.00  0.00    +0.000 NA
ATOM     15  C   UNL     1      -0.018  11.275  21.995  0.00  0.00    +0.000 C 
ATOM     16  C   UNL     1      -1.409  11.181  22.653  0.00  0.00    +0.000 C 
ATOM     17  N   UNL     1      -3.397  12.585  24.171  0.00  0.00    +0.000 NA
ATOM     18  N   UNL     1      -4.278  13.512  24.571  0.00  0.00    +0.000 N 
ATOM     19  H   UNL     1      -4.612  13.469  25.529  0.00  0.00    +0.000 HD
ENDROOT
BRANCH  11  20
ATOM     20  N   UNL     1       2.156   7.101  19.790  0.00  0.00    +0.000 N 
ATOM     21  C   UNL     1       2.804   6.170  18.880  0.00  0.00    +0.000 C 
ATOM     22  C   UNL     1       2.086   4.852  19.155  0.00  0.00    +0.000 C 
ATOM     23  C   UNL     1       1.745   4.932  20.635  0.00  0.00    +0.000 C 
ATOM     24  C   UNL     1       1.451   6.410  20.865  0.00  0.00    +0.000 C 
ENDBRANCH  11  20
TORSDOF 1
ENDMDL
MODEL 9
REMARK VINA RESULT:      -6.4      1.769      3.403
REMARK  Name = 
REMARK  2 active torsions:
REMARK  status: ('A' for Active; 'I' for Inactive)
REMARK    1  A    between atoms: C_1  and  C_2
REMARK    2  A    between atoms: C_11  and  N_12
REMARK                            x       y       z     vdW  Elec       q    Type
REMARK                         _______ _______ _______ _____ _____    ______ ____
ROOT
ATOM      1  C   UNL     1      -1.512  15.099  19.986  0.00  0.00    +0.000 C 
ATOM      2  C   UNL     1      -1.166  13.672  20.124  0.00  0.00    +0.000 A 
ATOM      3  C   UNL     1      -0.393  12.842  19.346  0.00  0.00    +0.000 A 
ATOM      4  C   UNL     1      -0.403  11.584  19.994  0.00  0.00    +0.000 A 
ATOM      5  N   UNL     1       0.292  10.507  19.565  0.00  0.00    +0.000 N 
ATOM      6  C   UNL     1       0.617  10.271  18.144  0.00  0.00    +0.000 C 
ATOM      7  C   UNL     1       2.031   9.651  18.001  0.00  0.00    +0.000 C 
ATOM      8  N   UNL     1       2.105   8.470  18.864  0.00  0.00    +0.000 N 
ATOM      9  C   UNL     1       2.723   7.317  18.447  0.00  0.00    +0.000 A 
ATOM     10  C   UNL     1       2.330   6.107  18.993  0.00  0.00    +0.000 A 
ATOM     11  C   UNL     1       2.904   4.933  18.549  0.00  0.00    +0.000 A 
ATOM     12  N   UNL     1       3.869   4.977  17.621  0.00  0.00    +0.000 NA
ATOM     13  C   UNL     1       4.184   6.188  17.126  0.00  0.00    +0.000 A 
ATOM     14  N   UNL     1       3.640   7.360  17.475  0.00  0.00    +0.000 NA
ATOM     15  C   UNL     1       1.820   8.724  20.284  0.00  0.00    +0.000 C 
ATOM     16  C   UNL     1       0.401   9.313  20.418  0.00  0.00    +0.000 C 
ATOM     17  N   UNL     1      -1.129  11.637  21.114  0.00  0.00    +0.000 NA
ATOM     18  N   UNL     1      -1.591  12.894  21.161  0.00  0.00    +0.000 N 
ATOM     19  H   UNL     1      -2.184  13.154  21.943  0.00  0.00    +0.000 HD
ENDROOT
BRANCH  11  20
ATOM     20  N   UNL     1       2.506   3.718  19.071  0.00  0.00    +0.000 N 
ATOM     21  C   UNL     1       1.359   3.005  18.532  0.00  0.00    +0.000 C 
ATOM     22  C   UNL     1       0.643   2.497  19.779  0.00  0.00    +0.000 C 
ATOM     23  C   UNL     1       1.774   2.237  20.760  0.00  0.00    +0.000 C 
ATOM     24  C   UNL     1       2.790   3.329  20.448  0.00  0.00    +0.000 C 
ENDBRANCH  11  20
TORSDOF 1
ENDMDL
