MODEL 1
REMARK VINA RESULT:      -6.5      0.000      0.000
REMARK  Name = 
REMARK  3 active torsions:
REMARK  status: ('A' for Active; 'I' for Inactive)
REMARK    1  A    between atoms: C_1  and  N_2
REMARK    2  A    between atoms: N_6  and  C_7
REMARK    3  A    between atoms: N_10  and  N_11
REMARK                            x       y       z     vdW  Elec       q    Type
REMARK                         _______ _______ _______ _____ _____    ______ ____
ROOT
ATOM      1  C   UNL     1       6.265   4.955  14.386  0.00  0.00    +0.000 C 
ATOM      2  N   UNL     1       7.353   4.803  15.329  0.00  0.00    +0.000 N 
ATOM      3  C   UNL     1       6.951   4.782  16.664  0.00  0.00    +0.000 A 
ATOM      4  N   UNL     1       5.758   4.304  16.979  0.00  0.00    +0.000 NA
ATOM      5  C   UNL     1       5.418   4.351  18.261  0.00  0.00    +0.000 A 
ATOM      6  N   UNL     1       4.142   4.003  18.645  0.00  0.00    +0.000 N 
ATOM      7  C   UNL     1       3.458   2.953  17.929  0.00  0.00    +0.000 C 
ATOM      8  N   UNL     1       6.215   4.802  19.213  0.00  0.00    +0.000 NA
ATOM      9  C   UNL     1       7.403   5.245  18.808  0.00  0.00    +0.000 A 
ATOM     10  N   UNL     1       8.300   5.736  19.786  0.00  0.00    +0.000 N 
ATOM     11  N   UNL     1       7.814   5.273  17.545  0.00  0.00    +0.000 NA
ATOM     12  H   UNL     1       8.097   5.483  15.252  0.00  0.00    +0.000 HD
ATOM     13  H   UNL     1       4.075   3.990  19.656  0.00  0.00    +0.000 HD
ATOM     14  H   UNL     1       9.223   5.797  19.359  0.00  0.00    +0.000 HD
ENDROOT
BRANCH  10  15
ATOM     15  N   UNL     1       8.222   5.186  21.097  0.00  0.00    +0.000 NA
ATOM     16  H   UNL     1       9.148   5.279  21.539  0.00  0.00    +0.000 HD
ATOM     17  H   UNL     1       8.078   4.175  21.025  0.00  0.00    +0.000 HD
ENDBRANCH  10  15
TORSDOF 1
ENDMDL
MODEL 2
REMARK VINA RESULT:      -5.9      1.053      1.053
REMARK  Name = 
REMARK  3 active torsions:
REMARK  status: ('A' for Active; 'I' for Inactive)
REMARK    1  A    between atoms: C_1  and  N_2
REMARK    2  A    between atoms: N_6  and  C_7
REMARK    3  A    between atoms: N_10  and  N_11
REMARK                            x       y       z     vdW  Elec       q    Type
REMARK                         _______ _______ _______ _____ _____    ______ ____
ROOT
ATOM      1  C   UNL     1       5.735   4.082  14.023  0.00  0.00    +0.000 C 
ATOM      2  N   UNL     1       6.708   3.753  15.043  0.00  0.00    +0.000 N 
ATOM      3  C   UNL     1       6.419   4.284  16.299  0.00  0.00    +0.000 A 
ATOM      4  N   UNL     1       5.159   4.473  16.654  0.00  0.00    +0.000 NA
ATOM      5  C   UNL     1       4.951   5.021  17.844  0.00  0.00    +0.000 A 
ATOM      6  N   UNL     1       3.675   5.375  18.223  0.00  0.00    +0.000 N 
ATOM      7  C   UNL     1       2.565   4.563  17.786  0.00  0.00    +0.000 C 
ATOM      8  N   UNL     1       5.921   5.337  18.683  0.00  0.00    +0.000 NA
ATOM      9  C   UNL     1       7.157   5.096  18.252  0.00  0.00    +0.000 A 
ATOM     10  N   UNL     1       8.236   5.412  19.111  0.00  0.00    +0.000 N 
ATOM     11  N   UNL     1       7.461   4.587  17.063  0.00  0.00    +0.000 NA
ATOM     12  H   UNL     1       7.666   3.997  14.828  0.00  0.00    +0.000 HD
ATOM     13  H   UNL     1       3.671   5.679  19.189  0.00  0.00    +0.000 HD
ATOM     14  H   UNL     1       9.068   4.949  18.749  0.00  0.00    +0.000 HD
ENDROOT
BRANCH  10  15
ATOM     15  N   UNL     1       8.011   5.343  20.515  0.00  0.00    +0.000 NA
ATOM     16  H   UNL     1       8.807   5.792  20.990  0.00  0.00    +0.000 HD
ATOM     17  H   UNL     1       8.061   4.365  20.813  0.00  0.00    +0.000 HD
ENDBRANCH  10  15
TORSDOF 1
ENDMDL
MODEL 3
REMARK VINA RESULT:      -5.8      2.074      4.117
REMARK  Name = 
REMARK  3 active torsions:
REMARK  status: ('A' for Active; 'I' for Inactive)
REMARK    1  A    between atoms: C_1  and  N_2
REMARK    2  A    between atoms: N_6  and  C_7
REMARK    3  A    between atoms: N_10  and  N_11
REMARK                            x       y       z     vdW  Elec       q    Type
REMARK                         _______ _______ _______ _____ _____    ______ ____
ROOT
ATOM      1  C   UNL     1       7.819   6.974  18.219  0.00  0.00    +0.000 C 
ATOM      2  N   UNL     1       7.591   6.949  16.789  0.00  0.00    +0.000 N 
ATOM      3  C   UNL     1       6.944   5.801  16.336  0.00  0.00    +0.000 A 
ATOM      4  N   UNL     1       6.094   5.172  17.132  0.00  0.00    +0.000 NA
ATOM      5  C   UNL     1       5.545   4.061  16.658  0.00  0.00    +0.000 A 
ATOM      6  N   UNL     1       4.760   3.280  17.478  0.00  0.00    +0.000 N 
ATOM      7  C   UNL     1       3.941   3.920  18.478  0.00  0.00    +0.000 C 
ATOM      8  N   UNL     1       5.771   3.595  15.443  0.00  0.00    +0.000 NA
ATOM      9  C   UNL     1       6.624   4.300  14.704  0.00  0.00    +0.000 A 
ATOM     10  N   UNL     1       6.901   3.848  13.392  0.00  0.00    +0.000 N 
ATOM     11  N   UNL     1       7.251   5.399  15.109  0.00  0.00    +0.000 NA
ATOM     12  H   UNL     1       8.412   7.077  16.213  0.00  0.00    +0.000 HD
ATOM     13  H   UNL     1       4.334   2.534  16.942  0.00  0.00    +0.000 HD
ATOM     14  H   UNL     1       7.358   4.608  12.891  0.00  0.00    +0.000 HD
ENDROOT
BRANCH  10  15
ATOM     15  N   UNL     1       5.879   3.135  12.704  0.00  0.00    +0.000 NA
ATOM     16  H   UNL     1       6.309   2.317  12.249  0.00  0.00    +0.000 HD
ATOM     17  H   UNL     1       5.541   3.707  11.925  0.00  0.00    +0.000 HD
ENDBRANCH  10  15
TORSDOF 1
ENDMDL
MODEL 4
REMARK VINA RESULT:      -5.7      1.664      4.362
REMARK  Name = 
REMARK  3 active torsions:
REMARK  status: ('A' for Active; 'I' for Inactive)
REMARK    1  A    between atoms: C_1  and  N_2
REMARK    2  A    between atoms: N_6  and  C_7
REMARK    3  A    between atoms: N_10  and  N_11
REMARK                            x       y       z     vdW  Elec       q    Type
REMARK                         _______ _______ _______ _____ _____    ______ ____
ROOT
ATOM      1  C   UNL     1       3.981   3.187  17.865  0.00  0.00    +0.000 C 
ATOM      2  N   UNL     1       4.789   2.936  16.689  0.00  0.00    +0.000 N 
ATOM      3  C   UNL     1       5.738   3.922  16.430  0.00  0.00    +0.000 A 
ATOM      4  N   UNL     1       6.264   4.604  17.434  0.00  0.00    +0.000 NA
ATOM      5  C   UNL     1       7.129   5.559  17.118  0.00  0.00    +0.000 A 
ATOM      6  N   UNL     1       7.611   6.400  18.096  0.00  0.00    +0.000 N 
ATOM      7  C   UNL     1       7.823   5.879  19.425  0.00  0.00    +0.000 C 
ATOM      8  N   UNL     1       7.510   5.820  15.880  0.00  0.00    +0.000 NA
ATOM      9  C   UNL     1       6.945   5.073  14.934  0.00  0.00    +0.000 A 
ATOM     10  N   UNL     1       7.318   5.307  13.589  0.00  0.00    +0.000 N 
ATOM     11  N   UNL     1       6.041   4.124  15.153  0.00  0.00    +0.000 NA
ATOM     12  H   UNL     1       4.276   2.781  15.832  0.00  0.00    +0.000 HD
ATOM     13  H   UNL     1       8.334   6.998  17.715  0.00  0.00    +0.000 HD
ATOM     14  H   UNL     1       6.999   4.513  13.036  0.00  0.00    +0.000 HD
ENDROOT
BRANCH  10  15
ATOM     15  N   UNL     1       8.633   5.792  13.338  0.00  0.00    +0.000 NA
ATOM     16  H   UNL     1       8.561   6.776  13.045  0.00  0.00    +0.000 HD
ATOM     17  H   UNL     1       9.013   5.313  12.517  0.00  0.00    +0.000 HD
ENDBRANCH  10  15
TORSDOF 1
ENDMDL
MODEL 5
REMARK VINA RESULT:      -5.7      2.180      3.881
REMARK  Name = 
REMARK  3 active torsions:
REMARK  status: ('A' for Active; 'I' for Inactive)
REMARK    1  A    between atoms: C_1  and  N_2
REMARK    2  A    between atoms: N_6  and  C_7
REMARK    3  A    between atoms: N_10  and  N_11
REMARK                            x       y       z     vdW  Elec       q    Type
REMARK                         _______ _______ _______ _____ _____    ______ ____
ROOT
ATOM      1  C   UNL     1       2.309   7.022  19.664  0.00  0.00    +0.000 C 
ATOM      2  N   UNL     1       2.818   7.088  18.310  0.00  0.00    +0.000 N 
ATOM      3  C   UNL     1       3.909   6.255  18.070  0.00  0.00    +0.000 A 
ATOM      4  N   UNL     1       4.027   5.122  18.744  0.00  0.00    +0.000 NA
ATOM      5  C   UNL     1       5.109   4.395  18.501  0.00  0.00    +0.000 A 
ATOM      6  N   UNL     1       5.370   3.276  19.262  0.00  0.00    +0.000 N 
ATOM      7  C   UNL     1       4.263   2.481  19.738  0.00  0.00    +0.000 C 
ATOM      8  N   UNL     1       6.026   4.723  17.608  0.00  0.00    +0.000 NA
ATOM      9  C   UNL     1       5.817   5.869  16.963  0.00  0.00    +0.000 A 
ATOM     10  N   UNL     1       6.766   6.268  15.992  0.00  0.00    +0.000 N 
ATOM     11  N   UNL     1       4.785   6.679  17.168  0.00  0.00    +0.000 NA
ATOM     12  H   UNL     1       3.069   8.011  17.981  0.00  0.00    +0.000 HD
ATOM     13  H   UNL     1       6.167   2.778  18.886  0.00  0.00    +0.000 HD
ATOM     14  H   UNL     1       6.345   7.009  15.433  0.00  0.00    +0.000 HD
ENDROOT
BRANCH  10  15
ATOM     15  N   UNL     1       7.478   5.250  15.297  0.00  0.00    +0.000 NA
ATOM     16  H   UNL     1       8.249   5.693  14.780  0.00  0.00    +0.000 HD
ATOM     17  H   UNL     1       6.875   4.862  14.566  0.00  0.00    +0.000 HD
ENDBRANCH  10  15
TORSDOF 1
ENDMDL
MODEL 6
REMARK VINA RESULT:      -5.6      1.481      4.162
REMARK  Name = 
REMARK  3 active torsions:
REMARK  status: ('A' for Active; 'I' for Inactive)
REMARK    1  A    between atoms: C_1  and  N_2
REMARK    2  A    between atoms: N_6  and  C_7
REMARK    3  A    between atoms: N_10  and  N_11
REMARK                            x       y       z     vdW  Elec       q    Type
REMARK                         _______ _______ _______ _____ _____    ______ ____
ROOT
ATOM      1  C   UNL     1       7.833   6.297  18.848  0.00  0.00    +0.000 C 
ATOM      2  N   UNL     1       7.201   5.115  19.398  0.00  0.00    +0.000 N 
ATOM      3  C   UNL     1       6.232   4.550  18.571  0.00  0.00    +0.000 A 
ATOM      4  N   UNL     1       6.348   4.662  17.258  0.00  0.00    +0.000 NA
ATOM      5  C   UNL     1       5.371   4.141  16.527  0.00  0.00    +0.000 A 
ATOM      6  N   UNL     1       5.352   4.340  15.164  0.00  0.00    +0.000 N 
ATOM      7  C   UNL     1       6.603   4.404  14.449  0.00  0.00    +0.000 C 
ATOM      8  N   UNL     1       4.339   3.494  17.040  0.00  0.00    +0.000 NA
ATOM      9  C   UNL     1       4.313   3.413  18.369  0.00  0.00    +0.000 A 
ATOM     10  N   UNL     1       3.232   2.729  18.973  0.00  0.00    +0.000 N 
ATOM     11  N   UNL     1       5.225   3.938  19.180  0.00  0.00    +0.000 NA
ATOM     12  H   UNL     1       6.785   5.228  20.313  0.00  0.00    +0.000 HD
ATOM     13  H   UNL     1       4.609   3.794  14.744  0.00  0.00    +0.000 HD
ATOM     14  H   UNL     1       3.484   2.544  19.943  0.00  0.00    +0.000 HD
ENDROOT
BRANCH  10  15
ATOM     15  N   UNL     1       2.624   1.668  18.243  0.00  0.00    +0.000 NA
ATOM     16  H   UNL     1       2.585   1.942  17.252  0.00  0.00    +0.000 HD
ATOM     17  H   UNL     1       1.642   1.593  18.522  0.00  0.00    +0.000 HD
ENDBRANCH  10  15
TORSDOF 1
ENDMDL
MODEL 7
REMARK VINA RESULT:      -5.6      2.118      3.690
REMARK  Name = 
REMARK  3 active torsions:
REMARK  status: ('A' for Active; 'I' for Inactive)
REMARK    1  A    between atoms: C_1  and  N_2
REMARK    2  A    between atoms: N_6  and  C_7
REMARK    3  A    between atoms: N_10  and  N_11
REMARK                            x       y       z     vdW  Elec       q    Type
REMARK                         _______ _______ _______ _____ _____    ______ ____
ROOT
ATOM      1  C   UNL     1       3.855   2.252  19.757  0.00  0.00    +0.000 C 
ATOM      2  N   UNL     1       5.180   2.811  19.592  0.00  0.00    +0.000 N 
ATOM      3  C   UNL     1       5.201   4.046  18.947  0.00  0.00    +0.000 A 
ATOM      4  N   UNL     1       4.170   4.867  19.073  0.00  0.00    +0.000 NA
ATOM      5  C   UNL     1       4.232   6.008  18.399  0.00  0.00    +0.000 A 
ATOM      6  N   UNL     1       3.140   6.847  18.371  0.00  0.00    +0.000 N 
ATOM      7  C   UNL     1       2.297   6.938  19.538  0.00  0.00    +0.000 C 
ATOM      8  N   UNL     1       5.269   6.368  17.664  0.00  0.00    +0.000 NA
ATOM      9  C   UNL     1       6.268   5.491  17.609  0.00  0.00    +0.000 A 
ATOM     10  N   UNL     1       7.406   5.827  16.838  0.00  0.00    +0.000 N 
ATOM     11  N   UNL     1       6.277   4.310  18.216  0.00  0.00    +0.000 NA
ATOM     12  H   UNL     1       5.850   2.217  19.122  0.00  0.00    +0.000 HD
ATOM     13  H   UNL     1       3.382   7.716  17.909  0.00  0.00    +0.000 HD
ATOM     14  H   UNL     1       8.156   5.186  17.095  0.00  0.00    +0.000 HD
ENDROOT
BRANCH  10  15
ATOM     15  N   UNL     1       7.741   7.204  16.709  0.00  0.00    +0.000 NA
ATOM     16  H   UNL     1       8.168   7.515  17.592  0.00  0.00    +0.000 HD
ATOM     17  H   UNL     1       6.878   7.751  16.642  0.00  0.00    +0.000 HD
ENDBRANCH  10  15
TORSDOF 1
ENDMDL
MODEL 8
REMARK VINA RESULT:      -5.6      2.470      4.371
REMARK  Name = 
REMARK  3 active torsions:
REMARK  status: ('A' for Active; 'I' for Inactive)
REMARK    1  A    between atoms: C_1  and  N_2
REMARK    2  A    between atoms: N_6  and  C_7
REMARK    3  A    between atoms: N_10  and  N_11
REMARK                            x       y       z     vdW  Elec       q    Type
REMARK                         _______ _______ _______ _____ _____    ______ ____
ROOT
ATOM      1  C   UNL     1       0.894   2.400  18.820  0.00  0.00    +0.000 C 
ATOM      2  N   UNL     1       2.272   2.159  19.191  0.00  0.00    +0.000 N 
ATOM      3  C   UNL     1       3.051   3.312  19.271  0.00  0.00    +0.000 A 
ATOM      4  N   UNL     1       2.487   4.459  19.613  0.00  0.00    +0.000 NA
ATOM      5  C   UNL     1       3.273   5.527  19.629  0.00  0.00    +0.000 A 
ATOM      6  N   UNL     1       2.729   6.776  19.840  0.00  0.00    +0.000 N 
ATOM      7  C   UNL     1       1.599   6.906  20.728  0.00  0.00    +0.000 C 
ATOM      8  N   UNL     1       4.567   5.487  19.368  0.00  0.00    +0.000 NA
ATOM      9  C   UNL     1       5.054   4.289  19.051  0.00  0.00    +0.000 A 
ATOM     10  N   UNL     1       6.436   4.188  18.764  0.00  0.00    +0.000 N 
ATOM     11  N   UNL     1       4.336   3.174  18.971  0.00  0.00    +0.000 NA
ATOM     12  H   UNL     1       2.773   1.500  18.609  0.00  0.00    +0.000 HD
ATOM     13  H   UNL     1       3.466   7.465  19.928  0.00  0.00    +0.000 HD
ATOM     14  H   UNL     1       6.686   3.200  18.789  0.00  0.00    +0.000 HD
ENDROOT
BRANCH  10  15
ATOM     15  N   UNL     1       7.319   5.100  19.407  0.00  0.00    +0.000 NA
ATOM     16  H   UNL     1       6.865   6.024  19.430  0.00  0.00    +0.000 HD
ATOM     17  H   UNL     1       8.142   5.240  18.815  0.00  0.00    +0.000 HD
ENDBRANCH  10  15
TORSDOF 1
ENDMDL
MODEL 9
REMARK VINA RESULT:      -5.5      2.417      3.804
REMARK  Name = 
REMARK  3 active torsions:
REMARK  status: ('A' for Active; 'I' for Inactive)
REMARK    1  A    between atoms: C_1  and  N_2
REMARK    2  A    between atoms: N_6  and  C_7
REMARK    3  A    between atoms: N_10  and  N_11
REMARK                            x       y       z     vdW  Elec       q    Type
REMARK                         _______ _______ _______ _____ _____    ______ ____
ROOT
ATOM      1  C   UNL     1       2.474   6.732  19.479  0.00  0.00    +0.000 C 
ATOM      2  N   UNL     1       3.181   7.134  18.281  0.00  0.00    +0.000 N 
ATOM      3  C   UNL     1       4.034   6.159  17.769  0.00  0.00    +0.000 A 
ATOM      4  N   UNL     1       3.742   4.880  17.941  0.00  0.00    +0.000 NA
ATOM      5  C   UNL     1       4.616   4.001  17.467  0.00  0.00    +0.000 A 
ATOM      6  N   UNL     1       4.450   2.659  17.731  0.00  0.00    +0.000 N 
ATOM      7  C   UNL     1       3.114   2.122  17.813  0.00  0.00    +0.000 C 
ATOM      8  N   UNL     1       5.711   4.339  16.811  0.00  0.00    +0.000 NA
ATOM      9  C   UNL     1       5.916   5.647  16.668  0.00  0.00    +0.000 A 
ATOM     10  N   UNL     1       7.073   6.066  15.969  0.00  0.00    +0.000 N 
ATOM     11  N   UNL     1       5.118   6.597  17.141  0.00  0.00    +0.000 NA
ATOM     12  H   UNL     1       3.715   7.990  18.355  0.00  0.00    +0.000 HD
ATOM     13  H   UNL     1       5.134   2.117  17.216  0.00  0.00    +0.000 HD
ATOM     14  H   UNL     1       6.954   7.051  15.735  0.00  0.00    +0.000 HD
ENDROOT
BRANCH  10  15
ATOM     15  N   UNL     1       7.584   5.211  14.953  0.00  0.00    +0.000 NA
ATOM     16  H   UNL     1       8.611   5.205  15.025  0.00  0.00    +0.000 HD
ATOM     17  H   UNL     1       7.400   5.634  14.038  0.00  0.00    +0.000 HD
ENDBRANCH  10  15
TORSDOF 1
ENDMDL
