MODEL 1
REMARK VINA RESULT:      -7.2      0.000      0.000
REMARK  Name = 
REMARK  13 active torsions:
REMARK  status: ('A' for Active; 'I' for Inactive)
REMARK    1  A    between atoms: C_1  and  C_2
REMARK    2  A    between atoms: C_2  and  C_3
REMARK    3  A    between atoms: C_3  and  O_4
REMARK    4  A    between atoms: O_4  and  C_5
REMARK    5  A    between atoms: C_5  and  C_6
REMARK    6  A    between atoms: C_6  and  N_7
REMARK    7  A    between atoms: N_11  and  CA_12
REMARK    8  A    between atoms: CA_12  and  CB_13
REMARK    9  A    between atoms: CA_12  and  C_14
REMARK   10  A    between atoms: C_14  and  O_15
REMARK   11  A    between atoms: C_20  and  C_21
REMARK   12  A    between atoms: C_24  and  O_25
REMARK   13  A    between atoms: O_25  and  C_26
REMARK                            x       y       z     vdW  Elec       q    Type
REMARK                         _______ _______ _______ _____ _____    ______ ____
ROOT
ATOM      1  N   UNK A   0       3.358   5.298  19.660  0.00  0.00    +0.000 N 
ATOM      2  C   UNK A   0       4.400   4.525  19.147  0.00  0.00    +0.000 A 
ATOM      3  O   UNK A   0       4.850   3.495  19.641  0.00  0.00    +0.000 OA
ATOM      4  C   UNK A   0       5.059   5.015  17.833  0.00  0.00    +0.000 A 
ATOM      5  N   ALA A   1       6.080   4.228  17.318  0.00  0.00    +0.000 N 
ATOM      6  N   UNK A   0       4.681   6.110  17.250  0.00  0.00    +0.000 NA
ATOM      7  C   UNK A   0       3.684   6.883  17.838  0.00  0.00    +0.000 A 
ATOM      8  N   UNK A   0       3.445   8.028  17.171  0.00  0.00    +0.000 NA
ATOM      9  C   UNK A   0       2.503   8.854  17.673  0.00  0.00    +0.000 A 
ATOM     10  C   UNK A   0       1.764   8.614  18.831  0.00  0.00    +0.000 A 
ATOM     11  C   UNK A   0       2.068   7.422  19.510  0.00  0.00    +0.000 A 
ATOM     12  C   UNK A   0       3.022   6.523  19.016  0.00  0.00    +0.000 A 
ATOM     13  H   ALA A   1       6.220   3.369  17.852  0.00  0.00    +0.000 HD
ENDROOT
BRANCH  10  14
ATOM     14  C   UNK A   0       0.741   9.556  19.318  0.00  0.00    +0.000 A 
ATOM     15  C   UNK A   0      -0.141  10.211  18.447  0.00  0.00    +0.000 A 
ATOM     16  C   UNK A   0      -1.101  11.092  18.940  0.00  0.00    +0.000 A 
ATOM     17  C   UNK A   0      -1.160  11.313  20.304  0.00  0.00    +0.000 A 
ATOM     18  N   UNK A   0      -0.341  10.712  21.187  0.00  0.00    +0.000 NA
ATOM     19  C   UNK A   0       0.575   9.853  20.676  0.00  0.00    +0.000 A 
BRANCH  17  20
ATOM     20  O   UNK A   0      -2.124  12.206  20.731  0.00  0.00    +0.000 OA
ATOM     21  C   UNK A   0      -1.851  13.550  20.353  0.00  0.00    +0.000 C 
ENDBRANCH  17  20
ENDBRANCH  10  14
BRANCH   5  22
ATOM     22  CA  ALA A   1       6.372   4.090  15.885  0.00  0.00    +0.000 C 
ATOM     23  CB  ALA A   1       5.108   4.225  15.043  0.00  0.00    +0.000 C 
BRANCH  22  24
ATOM     24  C   ALA A   1       7.474   5.055  15.417  0.00  0.00    +0.000 C 
BRANCH  24  25
ATOM     25  O   ALA A   1       7.522   6.195  16.274  0.00  0.00    +0.000 OA
ATOM     26  H   ALA A   1       8.459   6.256  16.546  0.00  0.00    +0.000 HD
ENDBRANCH  24  25
ENDBRANCH  22  24
ENDBRANCH   5  22
BRANCH   1  27
ATOM     27  C   UNK A   0       2.691   4.846  20.882  0.00  0.00    +0.000 C 
BRANCH  27  28
ATOM     28  C   UNK A   0       1.339   4.145  20.678  0.00  0.00    +0.000 C 
BRANCH  28  29
ATOM     29  O   UNK A   0       1.364   2.790  21.127  0.00  0.00    +0.000 OA
BRANCH  29  30
ATOM     30  C   UNK A   0       1.781   1.927  20.066  0.00  0.00    +0.000 C 
BRANCH  30  32
ATOM     31  C   UNK A   0       2.238   2.297  17.633  0.00  0.00    +0.000 C 
ATOM     32  C   UNK A   0       1.210   2.423  18.746  0.00  0.00    +0.000 C 
ENDBRANCH  30  32
ENDBRANCH  29  30
ENDBRANCH  28  29
ENDBRANCH  27  28
ENDBRANCH   1  27
TORSDOF 10
ENDMDL
MODEL 2
REMARK VINA RESULT:      -7.2      0.746      1.091
REMARK  Name = 
REMARK  13 active torsions:
REMARK  status: ('A' for Active; 'I' for Inactive)
REMARK    1  A    between atoms: C_1  and  C_2
REMARK    2  A    between atoms: C_2  and  C_3
REMARK    3  A    between atoms: C_3  and  O_4
REMARK    4  A    between atoms: O_4  and  C_5
REMARK    5  A    between atoms: C_5  and  C_6
REMARK    6  A    between atoms: C_6  and  N_7
REMARK    7  A    between atoms: N_11  and  CA_12
REMARK    8  A    between atoms: CA_12  and  CB_13
REMARK    9  A    between atoms: CA_12  and  C_14
REMARK   10  A    between atoms: C_14  and  O_15
REMARK   11  A    between atoms: C_20  and  C_21
REMARK   12  A    between atoms: C_24  and  O_25
REMARK   13  A    between atoms: O_25  and  C_26
REMARK                            x       y       z     vdW  Elec       q    Type
REMARK                         _______ _______ _______ _____ _____    ______ ____
ROOT
ATOM      1  N   UNK A   0       3.443   5.150  19.766  0.00  0.00    +0.000 N 
ATOM      2  C   UNK A   0       4.467   4.387  19.204  0.00  0.00    +0.000 A 
ATOM      3  O   UNK A   0       4.927   3.342  19.659  0.00  0.00    +0.000 OA
ATOM      4  C   UNK A   0       5.092   4.909  17.886  0.00  0.00    +0.000 A 
ATOM      5  N   ALA A   1       6.095   4.132  17.322  0.00  0.00    +0.000 N 
ATOM      6  N   UNK A   0       4.702   6.020  17.342  0.00  0.00    +0.000 NA
ATOM      7  C   UNK A   0       3.725   6.780  17.978  0.00  0.00    +0.000 A 
ATOM      8  N   UNK A   0       3.473   7.943  17.347  0.00  0.00    +0.000 NA
ATOM      9  C   UNK A   0       2.548   8.759  17.896  0.00  0.00    +0.000 A 
ATOM     10  C   UNK A   0       1.840   8.491  19.068  0.00  0.00    +0.000 A 
ATOM     11  C   UNK A   0       2.157   7.280  19.706  0.00  0.00    +0.000 A 
ATOM     12  C   UNK A   0       3.094   6.392  19.163  0.00  0.00    +0.000 A 
ATOM     13  H   ALA A   1       6.246   3.258  17.830  0.00  0.00    +0.000 HD
ENDROOT
BRANCH  10  14
ATOM     14  C   UNK A   0       0.834   9.424  19.607  0.00  0.00    +0.000 A 
ATOM     15  C   UNK A   0       0.676   9.631  20.984  0.00  0.00    +0.000 A 
ATOM     16  C   UNK A   0      -0.281  10.523  21.461  0.00  0.00    +0.000 A 
ATOM     17  C   UNK A   0      -1.076  11.193  20.549  0.00  0.00    +0.000 A 
ATOM     18  N   UNK A   0      -0.968  11.035  19.217  0.00  0.00    +0.000 NA
ATOM     19  C   UNK A   0      -0.020  10.168  18.784  0.00  0.00    +0.000 A 
BRANCH  17  20
ATOM     20  O   UNK A   0      -2.015  12.056  21.083  0.00  0.00    +0.000 OA
ATOM     21  C   UNK A   0      -1.942  12.157  22.500  0.00  0.00    +0.000 C 
ENDBRANCH  17  20
ENDBRANCH  10  14
BRANCH   5  22
ATOM     22  CA  ALA A   1       6.347   4.030  15.879  0.00  0.00    +0.000 C 
ATOM     23  CB  ALA A   1       5.055   4.151  15.078  0.00  0.00    +0.000 C 
BRANCH  22  24
ATOM     24  C   ALA A   1       7.412   5.031  15.399  0.00  0.00    +0.000 C 
BRANCH  24  25
ATOM     25  O   ALA A   1       7.530   6.104  16.333  0.00  0.00    +0.000 OA
ATOM     26  H   ALA A   1       7.861   6.854  15.801  0.00  0.00    +0.000 HD
ENDBRANCH  24  25
ENDBRANCH  22  24
ENDBRANCH   5  22
BRANCH   1  27
ATOM     27  C   UNK A   0       2.807   4.668  20.993  0.00  0.00    +0.000 C 
BRANCH  27  28
ATOM     28  C   UNK A   0       1.462   3.950  20.806  0.00  0.00    +0.000 C 
BRANCH  28  29
ATOM     29  O   UNK A   0       1.629   2.594  20.394  0.00  0.00    +0.000 OA
BRANCH  29  30
ATOM     30  C   UNK A   0       0.964   2.373  19.148  0.00  0.00    +0.000 C 
BRANCH  30  32
ATOM     31  C   UNK A   0       2.012   3.358  17.100  0.00  0.00    +0.000 C 
ATOM     32  C   UNK A   0       1.992   2.167  18.046  0.00  0.00    +0.000 C 
ENDBRANCH  30  32
ENDBRANCH  29  30
ENDBRANCH  28  29
ENDBRANCH  27  28
ENDBRANCH   1  27
TORSDOF 10
ENDMDL
MODEL 3
REMARK VINA RESULT:      -7.0      2.125      3.045
REMARK  Name = 
REMARK  13 active torsions:
REMARK  status: ('A' for Active; 'I' for Inactive)
REMARK    1  A    between atoms: C_1  and  C_2
REMARK    2  A    between atoms: C_2  and  C_3
REMARK    3  A    between atoms: C_3  and  O_4
REMARK    4  A    between atoms: O_4  and  C_5
REMARK    5  A    between atoms: C_5  and  C_6
REMARK    6  A    between atoms: C_6  and  N_7
REMARK    7  A    between atoms: N_11  and  CA_12
REMARK    8  A    between atoms: CA_12  and  CB_13
REMARK    9  A    between atoms: CA_12  and  C_14
REMARK   10  A    between atoms: C_14  and  O_15
REMARK   11  A    between atoms: C_20  and  C_21
REMARK   12  A    between atoms: C_24  and  O_25
REMARK   13  A    between atoms: O_25  and  C_26
REMARK                            x       y       z     vdW  Elec       q    Type
REMARK                         _______ _______ _______ _____ _____    ______ ____
ROOT
ATOM      1  N   UNK A   0       4.265   4.155  17.259  0.00  0.00    +0.000 N 
ATOM      2  C   UNK A   0       5.212   3.682  16.350  0.00  0.00    +0.000 A 
ATOM      3  O   UNK A   0       5.595   2.520  16.241  0.00  0.00    +0.000 OA
ATOM      4  C   UNK A   0       5.847   4.719  15.390  0.00  0.00    +0.000 A 
ATOM      5  N   ALA A   1       6.771   4.236  14.474  0.00  0.00    +0.000 N 
ATOM      6  N   UNK A   0       5.536   5.977  15.447  0.00  0.00    +0.000 NA
ATOM      7  C   UNK A   0       4.638   6.411  16.418  0.00  0.00    +0.000 A 
ATOM      8  N   UNK A   0       4.467   7.747  16.414  0.00  0.00    +0.000 NA
ATOM      9  C   UNK A   0       3.623   8.267  17.331  0.00  0.00    +0.000 A 
ATOM     10  C   UNK A   0       2.923   7.527  18.283  0.00  0.00    +0.000 A 
ATOM     11  C   UNK A   0       3.155   6.142  18.268  0.00  0.00    +0.000 A 
ATOM     12  C   UNK A   0       4.005   5.554  17.322  0.00  0.00    +0.000 A 
ATOM     13  H   ALA A   1       6.862   3.219  14.509  0.00  0.00    +0.000 HD
ENDROOT
BRANCH  10  14
ATOM     14  C   UNK A   0       2.008   8.160  19.250  0.00  0.00    +0.000 A 
ATOM     15  C   UNK A   0       1.861   7.678  20.558  0.00  0.00    +0.000 A 
ATOM     16  C   UNK A   0       0.991   8.302  21.450  0.00  0.00    +0.000 A 
ATOM     17  C   UNK A   0       0.271   9.400  21.015  0.00  0.00    +0.000 A 
ATOM     18  N   UNK A   0       0.373   9.907  19.772  0.00  0.00    +0.000 NA
ATOM     19  C   UNK A   0       1.236   9.283  18.933  0.00  0.00    +0.000 A 
BRANCH  17  20
ATOM     20  O   UNK A   0      -0.584   9.969  21.941  0.00  0.00    +0.000 OA
ATOM     21  C   UNK A   0      -0.343   9.527  23.272  0.00  0.00    +0.000 C 
ENDBRANCH  17  20
ENDBRANCH  10  14
BRANCH   5  22
ATOM     22  CA  ALA A   1       6.981   4.804  13.136  0.00  0.00    +0.000 C 
ATOM     23  CB  ALA A   1       8.288   5.586  13.063  0.00  0.00    +0.000 C 
BRANCH  22  24
ATOM     24  C   ALA A   1       6.890   3.741  12.028  0.00  0.00    +0.000 C 
BRANCH  24  25
ATOM     25  O   ALA A   1       6.006   2.694  12.428  0.00  0.00    +0.000 OA
ATOM     26  H   ALA A   1       5.192   3.157  12.708  0.00  0.00    +0.000 HD
ENDBRANCH  24  25
ENDBRANCH  22  24
ENDBRANCH   5  22
BRANCH   1  27
ATOM     27  C   UNK A   0       3.621   3.196  18.157  0.00  0.00    +0.000 C 
BRANCH  27  28
ATOM     28  C   UNK A   0       2.358   2.515  17.605  0.00  0.00    +0.000 C 
BRANCH  28  29
ATOM     29  O   UNK A   0       1.163   3.134  18.082  0.00  0.00    +0.000 OA
BRANCH  29  30
ATOM     30  C   UNK A   0       0.942   2.786  19.451  0.00  0.00    +0.000 C 
BRANCH  30  32
ATOM     31  C   UNK A   0       2.054   3.998  21.337  0.00  0.00    +0.000 C 
ATOM     32  C   UNK A   0       0.937   4.045  20.306  0.00  0.00    +0.000 C 
ENDBRANCH  30  32
ENDBRANCH  29  30
ENDBRANCH  28  29
ENDBRANCH  27  28
ENDBRANCH   1  27
TORSDOF 10
ENDMDL
MODEL 4
REMARK VINA RESULT:      -7.0      1.163      1.362
REMARK  Name = 
REMARK  13 active torsions:
REMARK  status: ('A' for Active; 'I' for Inactive)
REMARK    1  A    between atoms: C_1  and  C_2
REMARK    2  A    between atoms: C_2  and  C_3
REMARK    3  A    between atoms: C_3  and  O_4
REMARK    4  A    between atoms: O_4  and  C_5
REMARK    5  A    between atoms: C_5  and  C_6
REMARK    6  A    between atoms: C_6  and  N_7
REMARK    7  A    between atoms: N_11  and  CA_12
REMARK    8  A    between atoms: CA_12  and  CB_13
REMARK    9  A    between atoms: CA_12  and  C_14
REMARK   10  A    between atoms: C_14  and  O_15
REMARK   11  A    between atoms: C_20  and  C_21
REMARK   12  A    between atoms: C_24  and  O_25
REMARK   13  A    between atoms: O_25  and  C_26
REMARK                            x       y       z     vdW  Elec       q    Type
REMARK                         _______ _______ _______ _____ _____    ______ ____
ROOT
ATOM      1  N   UNK A   0       2.890   6.006  19.654  0.00  0.00    +0.000 N 
ATOM      2  C   UNK A   0       3.958   5.299  19.102  0.00  0.00    +0.000 A 
ATOM      3  O   UNK A   0       4.438   4.255  19.536  0.00  0.00    +0.000 OA
ATOM      4  C   UNK A   0       4.607   5.888  17.824  0.00  0.00    +0.000 A 
ATOM      5  N   ALA A   1       5.655   5.166  17.269  0.00  0.00    +0.000 N 
ATOM      6  N   UNK A   0       4.198   7.004  17.306  0.00  0.00    +0.000 NA
ATOM      7  C   UNK A   0       3.174   7.708  17.934  0.00  0.00    +0.000 A 
ATOM      8  N   UNK A   0       2.903   8.884  17.335  0.00  0.00    +0.000 NA
ATOM      9  C   UNK A   0       1.933   9.649  17.881  0.00  0.00    +0.000 A 
ATOM     10  C   UNK A   0       1.197   9.316  19.017  0.00  0.00    +0.000 A 
ATOM     11  C   UNK A   0       1.534   8.094  19.624  0.00  0.00    +0.000 A 
ATOM     12  C   UNK A   0       2.519   7.257  19.083  0.00  0.00    +0.000 A 
ATOM     13  H   ALA A   1       5.819   4.280  17.752  0.00  0.00    +0.000 HD
ENDROOT
BRANCH  10  14
ATOM     14  C   UNK A   0       0.142  10.194  19.554  0.00  0.00    +0.000 A 
ATOM     15  C   UNK A   0      -0.885  10.700  18.746  0.00  0.00    +0.000 A 
ATOM     16  C   UNK A   0      -1.871  11.524  19.284  0.00  0.00    +0.000 A 
ATOM     17  C   UNK A   0      -1.809  11.839  20.630  0.00  0.00    +0.000 A 
ATOM     18  N   UNK A   0      -0.847  11.382  21.453  0.00  0.00    +0.000 NA
ATOM     19  C   UNK A   0       0.090  10.574  20.900  0.00  0.00    +0.000 A 
BRANCH  17  20
ATOM     20  O   UNK A   0      -2.807  12.670  21.104  0.00  0.00    +0.000 OA
ATOM     21  C   UNK A   0      -3.013  12.553  22.507  0.00  0.00    +0.000 C 
ENDBRANCH  17  20
ENDBRANCH  10  14
BRANCH   5  22
ATOM     22  CA  ALA A   1       5.958   5.124  15.833  0.00  0.00    +0.000 C 
ATOM     23  CB  ALA A   1       7.454   5.263  15.575  0.00  0.00    +0.000 C 
BRANCH  22  24
ATOM     24  C   ALA A   1       5.375   3.875  15.149  0.00  0.00    +0.000 C 
BRANCH  24  25
ATOM     25  O   ALA A   1       6.268   3.411  14.137  0.00  0.00    +0.000 OA
ATOM     26  H   ALA A   1       5.733   3.416  13.319  0.00  0.00    +0.000 HD
ENDBRANCH  24  25
ENDBRANCH  22  24
ENDBRANCH   5  22
BRANCH   1  27
ATOM     27  C   UNK A   0       2.231   5.460  20.842  0.00  0.00    +0.000 C 
BRANCH  27  28
ATOM     28  C   UNK A   0       1.034   4.536  20.571  0.00  0.00    +0.000 C 
BRANCH  28  29
ATOM     29  O   UNK A   0       1.407   3.158  20.577  0.00  0.00    +0.000 OA
BRANCH  29  30
ATOM     30  C   UNK A   0       0.987   2.529  19.364  0.00  0.00    +0.000 C 
BRANCH  30  32
ATOM     31  C   UNK A   0       2.487   2.553  17.361  0.00  0.00    +0.000 C 
ATOM     32  C   UNK A   0       2.180   1.873  18.686  0.00  0.00    +0.000 C 
ENDBRANCH  30  32
ENDBRANCH  29  30
ENDBRANCH  28  29
ENDBRANCH  27  28
ENDBRANCH   1  27
TORSDOF 10
ENDMDL
MODEL 5
REMARK VINA RESULT:      -7.0      2.744      9.802
REMARK  Name = 
REMARK  13 active torsions:
REMARK  status: ('A' for Active; 'I' for Inactive)
REMARK    1  A    between atoms: C_1  and  C_2
REMARK    2  A    between atoms: C_2  and  C_3
REMARK    3  A    between atoms: C_3  and  O_4
REMARK    4  A    between atoms: O_4  and  C_5
REMARK    5  A    between atoms: C_5  and  C_6
REMARK    6  A    between atoms: C_6  and  N_7
REMARK    7  A    between atoms: N_11  and  CA_12
REMARK    8  A    between atoms: CA_12  and  CB_13
REMARK    9  A    between atoms: CA_12  and  C_14
REMARK   10  A    between atoms: C_14  and  O_15
REMARK   11  A    between atoms: C_20  and  C_21
REMARK   12  A    between atoms: C_24  and  O_25
REMARK   13  A    between atoms: O_25  and  C_26
REMARK                            x       y       z     vdW  Elec       q    Type
REMARK                         _______ _______ _______ _____ _____    ______ ____
ROOT
ATOM      1  N   UNK A   0      -0.834  12.162  20.081  0.00  0.00    +0.000 N 
ATOM      2  C   UNK A   0      -1.363  13.207  20.841  0.00  0.00    +0.000 A 
ATOM      3  O   UNK A   0      -1.858  14.242  20.404  0.00  0.00    +0.000 OA
ATOM      4  C   UNK A   0      -1.315  13.051  22.382  0.00  0.00    +0.000 A 
ATOM      5  N   ALA A   1      -1.863  14.084  23.129  0.00  0.00    +0.000 N 
ATOM      6  N   UNK A   0      -0.782  12.011  22.944  0.00  0.00    +0.000 NA
ATOM      7  C   UNK A   0      -0.205  11.028  22.144  0.00  0.00    +0.000 A 
ATOM      8  N   UNK A   0       0.379  10.047  22.858  0.00  0.00    +0.000 NA
ATOM      9  C   UNK A   0       0.980   9.053  22.170  0.00  0.00    +0.000 A 
ATOM     10  C   UNK A   0       1.047   8.969  20.780  0.00  0.00    +0.000 A 
ATOM     11  C   UNK A   0       0.449  10.029  20.077  0.00  0.00    +0.000 A 
ATOM     12  C   UNK A   0      -0.205  11.072  20.747  0.00  0.00    +0.000 A 
ATOM     13  H   ALA A   1      -2.300  14.801  22.546  0.00  0.00    +0.000 HD
ENDROOT
BRANCH  10  14
ATOM     14  C   UNK A   0       1.711   7.847  20.092  0.00  0.00    +0.000 A 
ATOM     15  C   UNK A   0       2.271   7.986  18.815  0.00  0.00    +0.000 A 
ATOM     16  C   UNK A   0       2.896   6.907  18.194  0.00  0.00    +0.000 A 
ATOM     17  C   UNK A   0       2.946   5.696  18.861  0.00  0.00    +0.000 A 
ATOM     18  N   UNK A   0       2.427   5.505  20.088  0.00  0.00    +0.000 NA
ATOM     19  C   UNK A   0       1.835   6.578  20.669  0.00  0.00    +0.000 A 
BRANCH  17  20
ATOM     20  O   UNK A   0       3.569   4.660  18.190  0.00  0.00    +0.000 OA
ATOM     21  C   UNK A   0       4.966   4.584  18.451  0.00  0.00    +0.000 C 
ENDBRANCH  17  20
ENDBRANCH  10  14
BRANCH   5  22
ATOM     22  CA  ALA A   1      -2.513  13.904  24.433  0.00  0.00    +0.000 C 
ATOM     23  CB  ALA A   1      -2.538  15.206  25.228  0.00  0.00    +0.000 C 
BRANCH  22  24
ATOM     24  C   ALA A   1      -3.916  13.286  24.307  0.00  0.00    +0.000 C 
BRANCH  24  25
ATOM     25  O   ALA A   1      -3.819  11.865  24.223  0.00  0.00    +0.000 OA
ATOM     26  H   ALA A   1      -4.712  11.546  24.461  0.00  0.00    +0.000 HD
ENDBRANCH  24  25
ENDBRANCH  22  24
ENDBRANCH   5  22
BRANCH   1  27
ATOM     27  C   UNK A   0      -0.894  12.262  18.622  0.00  0.00    +0.000 C 
BRANCH  27  28
ATOM     28  C   UNK A   0      -2.213  11.804  17.980  0.00  0.00    +0.000 C 
BRANCH  28  29
ATOM     29  O   UNK A   0      -2.017  10.734  17.055  0.00  0.00    +0.000 OA
BRANCH  29  30
ATOM     30  C   UNK A   0      -2.741  10.988  15.849  0.00  0.00    +0.000 C 
BRANCH  30  32
ATOM     31  C   UNK A   0      -3.613   9.935  13.752  0.00  0.00    +0.000 C 
ATOM     32  C   UNK A   0      -2.999   9.678  15.120  0.00  0.00    +0.000 C 
ENDBRANCH  30  32
ENDBRANCH  29  30
ENDBRANCH  28  29
ENDBRANCH  27  28
ENDBRANCH   1  27
TORSDOF 10
ENDMDL
MODEL 6
REMARK VINA RESULT:      -6.9      1.330      1.700
REMARK  Name = 
REMARK  13 active torsions:
REMARK  status: ('A' for Active; 'I' for Inactive)
REMARK    1  A    between atoms: C_1  and  C_2
REMARK    2  A    between atoms: C_2  and  C_3
REMARK    3  A    between atoms: C_3  and  O_4
REMARK    4  A    between atoms: O_4  and  C_5
REMARK    5  A    between atoms: C_5  and  C_6
REMARK    6  A    between atoms: C_6  and  N_7
REMARK    7  A    between atoms: N_11  and  CA_12
REMARK    8  A    between atoms: CA_12  and  CB_13
REMARK    9  A    between atoms: CA_12  and  C_14
REMARK   10  A    between atoms: C_14  and  O_15
REMARK   11  A    between atoms: C_20  and  C_21
REMARK   12  A    between atoms: C_24  and  O_25
REMARK   13  A    between atoms: O_25  and  C_26
REMARK                            x       y       z     vdW  Elec       q    Type
REMARK                         _______ _______ _______ _____ _____    ______ ____
ROOT
ATOM      1  N   UNK A   0       3.045   5.894  19.727  0.00  0.00    +0.000 N 
ATOM      2  C   UNK A   0       4.055   5.201  19.059  0.00  0.00    +0.000 A 
ATOM      3  O   UNK A   0       4.587   4.158  19.431  0.00  0.00    +0.000 OA
ATOM      4  C   UNK A   0       4.561   5.805  17.725  0.00  0.00    +0.000 A 
ATOM      5  N   ALA A   1       5.550   5.097  17.057  0.00  0.00    +0.000 N 
ATOM      6  N   UNK A   0       4.089   6.921  17.262  0.00  0.00    +0.000 NA
ATOM      7  C   UNK A   0       3.131   7.611  18.000  0.00  0.00    +0.000 A 
ATOM      8  N   UNK A   0       2.787   8.788  17.443  0.00  0.00    +0.000 NA
ATOM      9  C   UNK A   0       1.873   9.539  18.094  0.00  0.00    +0.000 A 
ATOM     10  C   UNK A   0       1.264   9.191  19.299  0.00  0.00    +0.000 A 
ATOM     11  C   UNK A   0       1.675   7.968  19.857  0.00  0.00    +0.000 A 
ATOM     12  C   UNK A   0       2.604   7.145  19.208  0.00  0.00    +0.000 A 
ATOM     13  H   ALA A   1       5.773   4.210  17.512  0.00  0.00    +0.000 HD
ENDROOT
BRANCH  10  14
ATOM     14  C   UNK A   0       0.264  10.055  19.951  0.00  0.00    +0.000 A 
ATOM     15  C   UNK A   0       0.224  10.227  21.341  0.00  0.00    +0.000 A 
ATOM     16  C   UNK A   0      -0.731  11.055  21.926  0.00  0.00    +0.000 A 
ATOM     17  C   UNK A   0      -1.643  11.696  21.108  0.00  0.00    +0.000 A 
ATOM     18  N   UNK A   0      -1.651  11.570  19.768  0.00  0.00    +0.000 NA
ATOM     19  C   UNK A   0      -0.702  10.766  19.229  0.00  0.00    +0.000 A 
BRANCH  17  20
ATOM     20  O   UNK A   0      -2.573  12.495  21.746  0.00  0.00    +0.000 OA
ATOM     21  C   UNK A   0      -2.762  12.152  23.114  0.00  0.00    +0.000 C 
ENDBRANCH  17  20
ENDBRANCH  10  14
BRANCH   5  22
ATOM     22  CA  ALA A   1       5.700   5.069  15.596  0.00  0.00    +0.000 C 
ATOM     23  CB  ALA A   1       7.100   5.500  15.171  0.00  0.00    +0.000 C 
BRANCH  22  24
ATOM     24  C   ALA A   1       5.316   3.706  14.995  0.00  0.00    +0.000 C 
BRANCH  24  25
ATOM     25  O   ALA A   1       6.268   3.324  14.003  0.00  0.00    +0.000 OA
ATOM     26  H   ALA A   1       5.893   2.513  13.606  0.00  0.00    +0.000 HD
ENDBRANCH  24  25
ENDBRANCH  22  24
ENDBRANCH   5  22
BRANCH   1  27
ATOM     27  C   UNK A   0       2.520   5.332  20.973  0.00  0.00    +0.000 C 
BRANCH  27  28
ATOM     28  C   UNK A   0       1.898   3.932  20.859  0.00  0.00    +0.000 C 
BRANCH  28  29
ATOM     29  O   UNK A   0       0.655   3.951  20.159  0.00  0.00    +0.000 OA
BRANCH  29  30
ATOM     30  C   UNK A   0       0.754   3.180  18.959  0.00  0.00    +0.000 C 
BRANCH  30  32
ATOM     31  C   UNK A   0       2.631   1.978  17.821  0.00  0.00    +0.000 C 
ATOM     32  C   UNK A   0       1.843   2.129  19.112  0.00  0.00    +0.000 C 
ENDBRANCH  30  32
ENDBRANCH  29  30
ENDBRANCH  28  29
ENDBRANCH  27  28
ENDBRANCH   1  27
TORSDOF 10
ENDMDL
MODEL 7
REMARK VINA RESULT:      -6.9      1.353      1.687
REMARK  Name = 
REMARK  13 active torsions:
REMARK  status: ('A' for Active; 'I' for Inactive)
REMARK    1  A    between atoms: C_1  and  C_2
REMARK    2  A    between atoms: C_2  and  C_3
REMARK    3  A    between atoms: C_3  and  O_4
REMARK    4  A    between atoms: O_4  and  C_5
REMARK    5  A    between atoms: C_5  and  C_6
REMARK    6  A    between atoms: C_6  and  N_7
REMARK    7  A    between atoms: N_11  and  CA_12
REMARK    8  A    between atoms: CA_12  and  CB_13
REMARK    9  A    between atoms: CA_12  and  C_14
REMARK   10  A    between atoms: C_14  and  O_15
REMARK   11  A    between atoms: C_20  and  C_21
REMARK   12  A    between atoms: C_24  and  O_25
REMARK   13  A    between atoms: O_25  and  C_26
REMARK                            x       y       z     vdW  Elec       q    Type
REMARK                         _______ _______ _______ _____ _____    ______ ____
ROOT
ATOM      1  N   UNK A   0       3.004   5.506  19.871  0.00  0.00    +0.000 N 
ATOM      2  C   UNK A   0       3.939   4.905  19.028  0.00  0.00    +0.000 A 
ATOM      3  O   UNK A   0       4.479   3.816  19.202  0.00  0.00    +0.000 OA
ATOM      4  C   UNK A   0       4.342   5.688  17.752  0.00  0.00    +0.000 A 
ATOM      5  N   ALA A   1       5.256   5.073  16.908  0.00  0.00    +0.000 N 
ATOM      6  N   UNK A   0       3.855   6.862  17.493  0.00  0.00    +0.000 NA
ATOM      7  C   UNK A   0       2.978   7.449  18.401  0.00  0.00    +0.000 A 
ATOM      8  N   UNK A   0       2.613   8.695  18.047  0.00  0.00    +0.000 NA
ATOM      9  C   UNK A   0       1.774   9.355  18.874  0.00  0.00    +0.000 A 
ATOM     10  C   UNK A   0       1.262   8.845  20.067  0.00  0.00    +0.000 A 
ATOM     11  C   UNK A   0       1.694   7.553  20.410  0.00  0.00    +0.000 A 
ATOM     12  C   UNK A   0       2.547   6.821  19.573  0.00  0.00    +0.000 A 
ATOM     13  H   ALA A   1       5.498   4.129  17.213  0.00  0.00    +0.000 HD
ENDROOT
BRANCH  10  14
ATOM     14  C   UNK A   0       0.340   9.617  20.918  0.00  0.00    +0.000 A 
ATOM     15  C   UNK A   0       0.125   9.294  22.264  0.00  0.00    +0.000 A 
ATOM     16  C   UNK A   0      -0.751  10.046  23.044  0.00  0.00    +0.000 A 
ATOM     17  C   UNK A   0      -1.408  11.114  22.459  0.00  0.00    +0.000 A 
ATOM     18  N   UNK A   0      -1.240  11.471  21.172  0.00  0.00    +0.000 NA
ATOM     19  C   UNK A   0      -0.373  10.725  20.444  0.00  0.00    +0.000 A 
BRANCH  17  20
ATOM     20  O   UNK A   0      -2.272  11.816  23.278  0.00  0.00    +0.000 OA
ATOM     21  C   UNK A   0      -3.164  12.660  22.560  0.00  0.00    +0.000 C 
ENDBRANCH  17  20
ENDBRANCH  10  14
BRANCH   5  22
ATOM     22  CA  ALA A   1       5.280   5.250  15.450  0.00  0.00    +0.000 C 
ATOM     23  CB  ALA A   1       5.251   6.726  15.067  0.00  0.00    +0.000 C 
BRANCH  22  24
ATOM     24  C   ALA A   1       6.458   4.513  14.791  0.00  0.00    +0.000 C 
BRANCH  24  25
ATOM     25  O   ALA A   1       7.653   5.281  14.928  0.00  0.00    +0.000 OA
ATOM     26  H   ALA A   1       7.396   6.031  15.500  0.00  0.00    +0.000 HD
ENDBRANCH  24  25
ENDBRANCH  22  24
ENDBRANCH   5  22
BRANCH   1  27
ATOM     27  C   UNK A   0       2.576   4.779  21.067  0.00  0.00    +0.000 C 
BRANCH  27  28
ATOM     28  C   UNK A   0       1.262   3.994  20.932  0.00  0.00    +0.000 C 
BRANCH  28  29
ATOM     29  O   UNK A   0       1.431   2.608  21.228  0.00  0.00    +0.000 OA
BRANCH  29  30
ATOM     30  C   UNK A   0       1.938   1.918  20.083  0.00  0.00    +0.000 C 
BRANCH  30  32
ATOM     31  C   UNK A   0       2.056   2.313  17.615  0.00  0.00    +0.000 C 
ATOM     32  C   UNK A   0       1.162   2.340  18.845  0.00  0.00    +0.000 C 
ENDBRANCH  30  32
ENDBRANCH  29  30
ENDBRANCH  28  29
ENDBRANCH  27  28
ENDBRANCH   1  27
TORSDOF 10
ENDMDL
MODEL 8
REMARK VINA RESULT:      -6.7      1.437      1.905
REMARK  Name = 
REMARK  13 active torsions:
REMARK  status: ('A' for Active; 'I' for Inactive)
REMARK    1  A    between atoms: C_1  and  C_2
REMARK    2  A    between atoms: C_2  and  C_3
REMARK    3  A    between atoms: C_3  and  O_4
REMARK    4  A    between atoms: O_4  and  C_5
REMARK    5  A    between atoms: C_5  and  C_6
REMARK    6  A    between atoms: C_6  and  N_7
REMARK    7  A    between atoms: N_11  and  CA_12
REMARK    8  A    between atoms: CA_12  and  CB_13
REMARK    9  A    between atoms: CA_12  and  C_14
REMARK   10  A    between atoms: C_14  and  O_15
REMARK   11  A    between atoms: C_20  and  C_21
REMARK   12  A    between atoms: C_24  and  O_25
REMARK   13  A    between atoms: O_25  and  C_26
REMARK                            x       y       z     vdW  Elec       q    Type
REMARK                         _______ _______ _______ _____ _____    ______ ____
ROOT
ATOM      1  N   UNK A   0       2.251   4.347  17.849  0.00  0.00    +0.000 N 
ATOM      2  C   UNK A   0       3.225   3.485  17.345  0.00  0.00    +0.000 A 
ATOM      3  O   UNK A   0       3.152   2.260  17.292  0.00  0.00    +0.000 OA
ATOM      4  C   UNK A   0       4.527   4.131  16.807  0.00  0.00    +0.000 A 
ATOM      5  N   ALA A   1       5.481   3.267  16.287  0.00  0.00    +0.000 N 
ATOM      6  N   UNK A   0       4.718   5.412  16.850  0.00  0.00    +0.000 NA
ATOM      7  C   UNK A   0       3.745   6.225  17.426  0.00  0.00    +0.000 A 
ATOM      8  N   UNK A   0       4.106   7.521  17.474  0.00  0.00    +0.000 NA
ATOM      9  C   UNK A   0       3.233   8.388  18.031  0.00  0.00    +0.000 A 
ATOM     10  C   UNK A   0       1.992   8.042  18.563  0.00  0.00    +0.000 A 
ATOM     11  C   UNK A   0       1.670   6.674  18.516  0.00  0.00    +0.000 A 
ATOM     12  C   UNK A   0       2.535   5.740  17.930  0.00  0.00    +0.000 A 
ATOM     13  H   ALA A   1       5.161   2.297  16.264  0.00  0.00    +0.000 HD
ENDROOT
BRANCH  10  14
ATOM     14  C   UNK A   0       1.081   9.043  19.146  0.00  0.00    +0.000 A 
ATOM     15  C   UNK A   0       0.847   9.118  20.526  0.00  0.00    +0.000 A 
ATOM     16  C   UNK A   0      -0.016  10.080  21.047  0.00  0.00    +0.000 A 
ATOM     17  C   UNK A   0      -0.641  10.952  20.174  0.00  0.00    +0.000 A 
ATOM     18  N   UNK A   0      -0.453  10.927  18.842  0.00  0.00    +0.000 NA
ATOM     19  C   UNK A   0       0.401   9.987  18.368  0.00  0.00    +0.000 A 
BRANCH  17  20
ATOM     20  O   UNK A   0      -1.495  11.876  20.749  0.00  0.00    +0.000 OA
ATOM     21  C   UNK A   0      -2.397  12.460  19.816  0.00  0.00    +0.000 C 
ENDBRANCH  17  20
ENDBRANCH  10  14
BRANCH   5  22
ATOM     22  CA  ALA A   1       6.399   3.613  15.195  0.00  0.00    +0.000 C 
ATOM     23  CB  ALA A   1       5.644   3.904  13.903  0.00  0.00    +0.000 C 
BRANCH  22  24
ATOM     24  C   ALA A   1       7.349   4.764  15.572  0.00  0.00    +0.000 C 
BRANCH  24  25
ATOM     25  O   ALA A   1       7.930   4.518  16.852  0.00  0.00    +0.000 OA
ATOM     26  H   ALA A   1       8.863   4.793  16.752  0.00  0.00    +0.000 HD
ENDBRANCH  24  25
ENDBRANCH  22  24
ENDBRANCH   5  22
BRANCH   1  27
ATOM     27  C   UNK A   0       0.995   3.773  18.334  0.00  0.00    +0.000 C 
BRANCH  27  28
ATOM     28  C   UNK A   0       1.038   3.187  19.754  0.00  0.00    +0.000 C 
BRANCH  28  29
ATOM     29  O   UNK A   0       1.218   4.197  20.746  0.00  0.00    +0.000 OA
BRANCH  29  30
ATOM     30  C   UNK A   0       2.374   3.910  21.536  0.00  0.00    +0.000 C 
BRANCH  30  32
ATOM     31  C   UNK A   0       4.188   2.411  20.685  0.00  0.00    +0.000 C 
ATOM     32  C   UNK A   0       2.804   2.468  21.313  0.00  0.00    +0.000 C 
ENDBRANCH  30  32
ENDBRANCH  29  30
ENDBRANCH  28  29
ENDBRANCH  27  28
ENDBRANCH   1  27
TORSDOF 10
ENDMDL
MODEL 9
REMARK VINA RESULT:      -6.7      2.455      9.646
REMARK  Name = 
REMARK  13 active torsions:
REMARK  status: ('A' for Active; 'I' for Inactive)
REMARK    1  A    between atoms: C_1  and  C_2
REMARK    2  A    between atoms: C_2  and  C_3
REMARK    3  A    between atoms: C_3  and  O_4
REMARK    4  A    between atoms: O_4  and  C_5
REMARK    5  A    between atoms: C_5  and  C_6
REMARK    6  A    between atoms: C_6  and  N_7
REMARK    7  A    between atoms: N_11  and  CA_12
REMARK    8  A    between atoms: CA_12  and  CB_13
REMARK    9  A    between atoms: CA_12  and  C_14
REMARK   10  A    between atoms: C_14  and  O_15
REMARK   11  A    between atoms: C_20  and  C_21
REMARK   12  A    between atoms: C_24  and  O_25
REMARK   13  A    between atoms: O_25  and  C_26
REMARK                            x       y       z     vdW  Elec       q    Type
REMARK                         _______ _______ _______ _____ _____    ______ ____
ROOT
ATOM      1  N   UNK A   0      -0.439  11.896  19.845  0.00  0.00    +0.000 N 
ATOM      2  C   UNK A   0      -0.897  13.022  20.530  0.00  0.00    +0.000 A 
ATOM      3  O   UNK A   0      -1.307  14.062  20.023  0.00  0.00    +0.000 OA
ATOM      4  C   UNK A   0      -0.881  12.958  22.078  0.00  0.00    +0.000 A 
ATOM      5  N   ALA A   1      -1.359  14.074  22.751  0.00  0.00    +0.000 N 
ATOM      6  N   UNK A   0      -0.435  11.918  22.711  0.00  0.00    +0.000 NA
ATOM      7  C   UNK A   0       0.076  10.848  21.983  0.00  0.00    +0.000 A 
ATOM      8  N   UNK A   0       0.575   9.872  22.765  0.00  0.00    +0.000 NA
ATOM      9  C   UNK A   0       1.109   8.795  22.150  0.00  0.00    +0.000 A 
ATOM     10  C   UNK A   0       1.186   8.620  20.769  0.00  0.00    +0.000 A 
ATOM     11  C   UNK A   0       0.680   9.677  19.993  0.00  0.00    +0.000 A 
ATOM     12  C   UNK A   0       0.097  10.805  20.586  0.00  0.00    +0.000 A 
ATOM     13  H   ALA A   1      -1.733  14.784  22.118  0.00  0.00    +0.000 HD
ENDROOT
BRANCH  10  14
ATOM     14  C   UNK A   0       1.773   7.412  20.162  0.00  0.00    +0.000 A 
ATOM     15  C   UNK A   0       1.655   6.149  20.759  0.00  0.00    +0.000 A 
ATOM     16  C   UNK A   0       2.217   5.025  20.158  0.00  0.00    +0.000 A 
ATOM     17  C   UNK A   0       2.900   5.183  18.966  0.00  0.00    +0.000 A 
ATOM     18  N   UNK A   0       3.044   6.370  18.347  0.00  0.00    +0.000 NA
ATOM     19  C   UNK A   0       2.476   7.442  18.952  0.00  0.00    +0.000 A 
BRANCH  17  20
ATOM     20  O   UNK A   0       3.445   4.034  18.423  0.00  0.00    +0.000 OA
ATOM     21  C   UNK A   0       2.705   3.531  17.317  0.00  0.00    +0.000 C 
ENDBRANCH  17  20
ENDBRANCH  10  14
BRANCH   5  22
ATOM     22  CA  ALA A   1      -2.038  14.024  24.053  0.00  0.00    +0.000 C 
ATOM     23  CB  ALA A   1      -1.635  15.199  24.937  0.00  0.00    +0.000 C 
BRANCH  22  24
ATOM     24  C   ALA A   1      -3.565  13.914  23.912  0.00  0.00    +0.000 C 
BRANCH  24  25
ATOM     25  O   ALA A   1      -3.982  14.469  22.665  0.00  0.00    +0.000 OA
ATOM     26  H   ALA A   1      -4.086  13.695  22.076  0.00  0.00    +0.000 HD
ENDBRANCH  24  25
ENDBRANCH  22  24
ENDBRANCH   5  22
BRANCH   1  27
ATOM     27  C   UNK A   0      -0.472  11.909  18.382  0.00  0.00    +0.000 C 
BRANCH  27  28
ATOM     28  C   UNK A   0      -1.863  11.751  17.748  0.00  0.00    +0.000 C 
BRANCH  28  29
ATOM     29  O   UNK A   0      -2.614  10.701  18.357  0.00  0.00    +0.000 OA
BRANCH  29  30
ATOM     30  C   UNK A   0      -3.040   9.762  17.366  0.00  0.00    +0.000 C 
BRANCH  30  32
ATOM     31  C   UNK A   0      -3.626  10.265  14.986  0.00  0.00    +0.000 C 
ATOM     32  C   UNK A   0      -2.501  10.172  16.004  0.00  0.00    +0.000 C 
ENDBRANCH  30  32
ENDBRANCH  29  30
ENDBRANCH  28  29
ENDBRANCH  27  28
ENDBRANCH   1  27
TORSDOF 10
ENDMDL
