MODEL 1
REMARK VINA RESULT:      -7.4      0.000      0.000
REMARK  Name = 
REMARK  2 active torsions:
REMARK  status: ('A' for Active; 'I' for Inactive)
REMARK    1  A    between atoms: C_2  and  C_3
REMARK    2  A    between atoms: C_13  and  C_14
REMARK                            x       y       z     vdW  Elec       q    Type
REMARK                         _______ _______ _______ _____ _____    ______ ____
ROOT
ATOM      1  C   UNL     1       5.453   5.395  17.124  0.00  0.00    +0.000 A 
ATOM      2  C   UNL     1       5.124   4.581  18.198  0.00  0.00    +0.000 A 
ATOM      3  C   UNL     1       4.117   4.971  19.083  0.00  0.00    +0.000 A 
ATOM      4  C   UNL     1       3.366   6.144  18.901  0.00  0.00    +0.000 A 
ATOM      5  C   UNL     1       3.729   6.976  17.820  0.00  0.00    +0.000 A 
ATOM      6  C   UNL     1       4.774   6.600  16.947  0.00  0.00    +0.000 A 
ATOM      7  C   UNL     1       3.089   8.326  17.599  0.00  0.00    +0.000 C 
ATOM      8  C   UNL     1       1.756   8.474  18.317  0.00  0.00    +0.000 C 
ATOM      9  C   UNL     1       1.888   8.013  19.762  0.00  0.00    +0.000 C 
ATOM     10  C   UNL     1       2.254   6.541  19.825  0.00  0.00    +0.000 C 
ATOM     11  C   UNL     1       1.520   5.733  20.630  0.00  0.00    +0.000 C 
ENDROOT
BRANCH  11  12
ATOM     12  C   UNL     1       1.616   4.328  20.791  0.00  0.00    +0.000 A 
ATOM     13  C   UNL     1       1.123   3.359  19.953  0.00  0.00    +0.000 A 
ATOM     14  N   UNL     1       1.627   2.187  20.450  0.00  0.00    +0.000 N 
ATOM     15  C   UNL     1       2.347   2.490  21.573  0.00  0.00    +0.000 A 
ATOM     16  N   UNL     1       2.314   3.779  21.832  0.00  0.00    +0.000 NA
ATOM     17  H   UNL     1       1.532   1.269  20.038  0.00  0.00    +0.000 HD
ENDBRANCH  11  12
BRANCH   1  19
ATOM     18  N   UNL     1       7.359   4.698  15.508  0.00  0.00    +0.000 NA
ATOM     19  C   UNL     1       6.499   5.005  16.229  0.00  0.00    +0.000 C 
ENDBRANCH   1  19
TORSDOF 2
ENDMDL
MODEL 2
REMARK VINA RESULT:      -7.3      2.944      5.901
REMARK  Name = 
REMARK  2 active torsions:
REMARK  status: ('A' for Active; 'I' for Inactive)
REMARK    1  A    between atoms: C_2  and  C_3
REMARK    2  A    between atoms: C_13  and  C_14
REMARK                            x       y       z     vdW  Elec       q    Type
REMARK                         _______ _______ _______ _____ _____    ______ ____
ROOT
ATOM      1  C   UNL     1       2.595   7.614  17.893  0.00  0.00    +0.000 A 
ATOM      2  C   UNL     1       3.895   7.451  17.437  0.00  0.00    +0.000 A 
ATOM      3  C   UNL     1       4.433   6.168  17.312  0.00  0.00    +0.000 A 
ATOM      4  C   UNL     1       3.687   5.009  17.577  0.00  0.00    +0.000 A 
ATOM      5  C   UNL     1       2.374   5.189  18.066  0.00  0.00    +0.000 A 
ATOM      6  C   UNL     1       1.844   6.488  18.228  0.00  0.00    +0.000 A 
ATOM      7  C   UNL     1       1.519   4.026  18.513  0.00  0.00    +0.000 C 
ATOM      8  C   UNL     1       1.996   2.693  17.956  0.00  0.00    +0.000 C 
ATOM      9  C   UNL     1       3.499   2.550  18.159  0.00  0.00    +0.000 C 
ATOM     10  C   UNL     1       4.248   3.630  17.400  0.00  0.00    +0.000 C 
ATOM     11  C   UNL     1       5.278   3.254  16.602  0.00  0.00    +0.000 C 
ENDROOT
BRANCH  11  12
ATOM     12  C   UNL     1       6.065   4.059  15.741  0.00  0.00    +0.000 A 
ATOM     13  C   UNL     1       7.195   4.767  16.068  0.00  0.00    +0.000 A 
ATOM     14  N   UNL     1       7.673   5.222  14.867  0.00  0.00    +0.000 N 
ATOM     15  C   UNL     1       6.799   4.818  13.895  0.00  0.00    +0.000 A 
ATOM     16  N   UNL     1       5.786   4.154  14.406  0.00  0.00    +0.000 NA
ATOM     17  H   UNL     1       8.538   5.721  14.715  0.00  0.00    +0.000 HD
ENDBRANCH  11  12
BRANCH   1  19
ATOM     18  N   UNL     1       1.603   9.993  18.174  0.00  0.00    +0.000 NA
ATOM     19  C   UNL     1       2.051   8.928  18.040  0.00  0.00    +0.000 C 
ENDBRANCH   1  19
TORSDOF 2
ENDMDL
MODEL 3
REMARK VINA RESULT:      -7.2      1.087      1.202
REMARK  Name = 
REMARK  2 active torsions:
REMARK  status: ('A' for Active; 'I' for Inactive)
REMARK    1  A    between atoms: C_2  and  C_3
REMARK    2  A    between atoms: C_13  and  C_14
REMARK                            x       y       z     vdW  Elec       q    Type
REMARK                         _______ _______ _______ _____ _____    ______ ____
ROOT
ATOM      1  C   UNL     1       5.568   5.449  16.227  0.00  0.00    +0.000 A 
ATOM      2  C   UNL     1       5.208   4.381  17.036  0.00  0.00    +0.000 A 
ATOM      3  C   UNL     1       4.235   4.553  18.023  0.00  0.00    +0.000 A 
ATOM      4  C   UNL     1       3.549   5.765  18.201  0.00  0.00    +0.000 A 
ATOM      5  C   UNL     1       3.944   6.851  17.390  0.00  0.00    +0.000 A 
ATOM      6  C   UNL     1       4.955   6.686  16.417  0.00  0.00    +0.000 A 
ATOM      7  C   UNL     1       3.377   8.238  17.577  0.00  0.00    +0.000 C 
ATOM      8  C   UNL     1       2.063   8.242  18.344  0.00  0.00    +0.000 C 
ATOM      9  C   UNL     1       2.188   7.384  19.596  0.00  0.00    +0.000 C 
ATOM     10  C   UNL     1       2.473   5.938  19.230  0.00  0.00    +0.000 C 
ATOM     11  C   UNL     1       1.706   4.972  19.794  0.00  0.00    +0.000 C 
ENDROOT
BRANCH  11  12
ATOM     12  C   UNL     1       1.725   3.577  19.549  0.00  0.00    +0.000 A 
ATOM     13  C   UNL     1       1.033   2.892  18.581  0.00  0.00    +0.000 A 
ATOM     14  N   UNL     1       1.526   1.616  18.644  0.00  0.00    +0.000 N 
ATOM     15  C   UNL     1       2.440   1.577  19.661  0.00  0.00    +0.000 A 
ATOM     16  N   UNL     1       2.543   2.743  20.261  0.00  0.00    +0.000 NA
ATOM     17  H   UNL     1       1.299   0.853  18.023  0.00  0.00    +0.000 HD
ENDBRANCH  11  12
BRANCH   1  19
ATOM     18  N   UNL     1       7.396   5.151  14.411  0.00  0.00    +0.000 NA
ATOM     19  C   UNL     1       6.579   5.277  15.229  0.00  0.00    +0.000 C 
ENDBRANCH   1  19
TORSDOF 2
ENDMDL
MODEL 4
REMARK VINA RESULT:      -7.0      1.222      5.109
REMARK  Name = 
REMARK  2 active torsions:
REMARK  status: ('A' for Active; 'I' for Inactive)
REMARK    1  A    between atoms: C_2  and  C_3
REMARK    2  A    between atoms: C_13  and  C_14
REMARK                            x       y       z     vdW  Elec       q    Type
REMARK                         _______ _______ _______ _____ _____    ______ ____
ROOT
ATOM      1  C   UNL     1       2.312   3.952  20.612  0.00  0.00    +0.000 A 
ATOM      2  C   UNL     1       3.304   3.559  19.724  0.00  0.00    +0.000 A 
ATOM      3  C   UNL     1       3.772   4.455  18.762  0.00  0.00    +0.000 A 
ATOM      4  C   UNL     1       3.320   5.782  18.685  0.00  0.00    +0.000 A 
ATOM      5  C   UNL     1       2.292   6.162  19.575  0.00  0.00    +0.000 A 
ATOM      6  C   UNL     1       1.792   5.243  20.523  0.00  0.00    +0.000 A 
ATOM      7  C   UNL     1       1.629   7.518  19.502  0.00  0.00    +0.000 C 
ATOM      8  C   UNL     1       2.462   8.544  18.748  0.00  0.00    +0.000 C 
ATOM      9  C   UNL     1       2.951   7.953  17.432  0.00  0.00    +0.000 C 
ATOM     10  C   UNL     1       3.854   6.760  17.681  0.00  0.00    +0.000 C 
ATOM     11  C   UNL     1       5.054   6.722  17.050  0.00  0.00    +0.000 C 
ENDROOT
BRANCH  11  12
ATOM     12  C   UNL     1       6.091   5.766  17.185  0.00  0.00    +0.000 A 
ATOM     13  C   UNL     1       6.507   4.851  16.249  0.00  0.00    +0.000 A 
ATOM     14  N   UNL     1       7.635   4.295  16.791  0.00  0.00    +0.000 N 
ATOM     15  C   UNL     1       7.817   4.852  18.027  0.00  0.00    +0.000 A 
ATOM     16  N   UNL     1       6.864   5.711  18.312  0.00  0.00    +0.000 NA
ATOM     17  H   UNL     1       8.253   3.633  16.343  0.00  0.00    +0.000 HD
ENDBRANCH  11  12
BRANCH   1  19
ATOM     18  N   UNL     1       1.401   2.281  22.373  0.00  0.00    +0.000 NA
ATOM     19  C   UNL     1       1.818   3.027  21.584  0.00  0.00    +0.000 C 
ENDBRANCH   1  19
TORSDOF 2
ENDMDL
MODEL 5
REMARK VINA RESULT:      -7.0      2.209      4.149
REMARK  Name = 
REMARK  2 active torsions:
REMARK  status: ('A' for Active; 'I' for Inactive)
REMARK    1  A    between atoms: C_2  and  C_3
REMARK    2  A    between atoms: C_13  and  C_14
REMARK                            x       y       z     vdW  Elec       q    Type
REMARK                         _______ _______ _______ _____ _____    ______ ____
ROOT
ATOM      1  C   UNL     1       2.731   7.824  17.831  0.00  0.00    +0.000 A 
ATOM      2  C   UNL     1       1.982   6.739  18.265  0.00  0.00    +0.000 A 
ATOM      3  C   UNL     1       2.457   5.442  18.065  0.00  0.00    +0.000 A 
ATOM      4  C   UNL     1       3.708   5.178  17.485  0.00  0.00    +0.000 A 
ATOM      5  C   UNL     1       4.448   6.289  17.023  0.00  0.00    +0.000 A 
ATOM      6  C   UNL     1       3.949   7.600  17.192  0.00  0.00    +0.000 A 
ATOM      7  C   UNL     1       5.743   6.129  16.263  0.00  0.00    +0.000 C 
ATOM      8  C   UNL     1       6.383   4.763  16.464  0.00  0.00    +0.000 C 
ATOM      9  C   UNL     1       5.342   3.667  16.273  0.00  0.00    +0.000 C 
ATOM     10  C   UNL     1       4.240   3.787  17.310  0.00  0.00    +0.000 C 
ATOM     11  C   UNL     1       3.897   2.678  18.011  0.00  0.00    +0.000 C 
ENDROOT
BRANCH  11  12
ATOM     12  C   UNL     1       2.968   2.560  19.074  0.00  0.00    +0.000 A 
ATOM     13  C   UNL     1       3.207   2.751  20.413  0.00  0.00    +0.000 A 
ATOM     14  N   UNL     1       1.967   2.698  20.993  0.00  0.00    +0.000 N 
ATOM     15  C   UNL     1       1.060   2.433  20.005  0.00  0.00    +0.000 A 
ATOM     16  N   UNL     1       1.648   2.293  18.837  0.00  0.00    +0.000 NA
ATOM     17  H   UNL     1       1.751   2.873  21.964  0.00  0.00    +0.000 HD
ENDBRANCH  11  12
BRANCH   1  19
ATOM     18  N   UNL     1       1.829  10.230  18.187  0.00  0.00    +0.000 NA
ATOM     19  C   UNL     1       2.234   9.152  18.019  0.00  0.00    +0.000 C 
ENDBRANCH   1  19
TORSDOF 2
ENDMDL
MODEL 6
REMARK VINA RESULT:      -6.8      1.073      5.099
REMARK  Name = 
REMARK  2 active torsions:
REMARK  status: ('A' for Active; 'I' for Inactive)
REMARK    1  A    between atoms: C_2  and  C_3
REMARK    2  A    between atoms: C_13  and  C_14
REMARK                            x       y       z     vdW  Elec       q    Type
REMARK                         _______ _______ _______ _____ _____    ______ ____
ROOT
ATOM      1  C   UNL     1       2.209   4.009  20.580  0.00  0.00    +0.000 A 
ATOM      2  C   UNL     1       2.985   3.622  19.498  0.00  0.00    +0.000 A 
ATOM      3  C   UNL     1       3.346   4.560  18.529  0.00  0.00    +0.000 A 
ATOM      4  C   UNL     1       3.002   5.918  18.630  0.00  0.00    +0.000 A 
ATOM      5  C   UNL     1       2.189   6.294  19.721  0.00  0.00    +0.000 A 
ATOM      6  C   UNL     1       1.793   5.336  20.681  0.00  0.00    +0.000 A 
ATOM      7  C   UNL     1       1.642   7.695  19.867  0.00  0.00    +0.000 C 
ATOM      8  C   UNL     1       2.409   8.718  19.044  0.00  0.00    +0.000 C 
ATOM      9  C   UNL     1       2.598   8.207  17.621  0.00  0.00    +0.000 C 
ATOM     10  C   UNL     1       3.427   6.936  17.614  0.00  0.00    +0.000 C 
ATOM     11  C   UNL     1       4.485   6.866  16.768  0.00  0.00    +0.000 C 
ENDROOT
BRANCH  11  12
ATOM     12  C   UNL     1       5.443   5.831  16.640  0.00  0.00    +0.000 A 
ATOM     13  C   UNL     1       6.522   5.590  17.455  0.00  0.00    +0.000 A 
ATOM     14  N   UNL     1       7.020   4.391  17.019  0.00  0.00    +0.000 N 
ATOM     15  C   UNL     1       6.265   3.995  15.949  0.00  0.00    +0.000 A 
ATOM     16  N   UNL     1       5.333   4.877  15.666  0.00  0.00    +0.000 NA
ATOM     17  H   UNL     1       7.774   3.866  17.438  0.00  0.00    +0.000 HD
ENDBRANCH  11  12
BRANCH   1  19
ATOM     18  N   UNL     1       1.499   2.250  22.348  0.00  0.00    +0.000 NA
ATOM     19  C   UNL     1       1.822   3.043  21.561  0.00  0.00    +0.000 C 
ENDBRANCH   1  19
TORSDOF 2
ENDMDL
MODEL 7
REMARK VINA RESULT:      -6.8      1.872      2.273
REMARK  Name = 
REMARK  2 active torsions:
REMARK  status: ('A' for Active; 'I' for Inactive)
REMARK    1  A    between atoms: C_2  and  C_3
REMARK    2  A    between atoms: C_13  and  C_14
REMARK                            x       y       z     vdW  Elec       q    Type
REMARK                         _______ _______ _______ _____ _____    ______ ____
ROOT
ATOM      1  C   UNL     1       6.248   5.348  15.677  0.00  0.00    +0.000 A 
ATOM      2  C   UNL     1       6.329   4.272  16.550  0.00  0.00    +0.000 A 
ATOM      3  C   UNL     1       5.496   4.219  17.669  0.00  0.00    +0.000 A 
ATOM      4  C   UNL     1       4.521   5.195  17.929  0.00  0.00    +0.000 A 
ATOM      5  C   UNL     1       4.466   6.298  17.049  0.00  0.00    +0.000 A 
ATOM      6  C   UNL     1       5.335   6.369  15.938  0.00  0.00    +0.000 A 
ATOM      7  C   UNL     1       3.554   7.476  17.296  0.00  0.00    +0.000 C 
ATOM      8  C   UNL     1       2.416   7.152  18.253  0.00  0.00    +0.000 C 
ATOM      9  C   UNL     1       2.958   6.441  19.486  0.00  0.00    +0.000 C 
ATOM     10  C   UNL     1       3.595   5.117  19.106  0.00  0.00    +0.000 C 
ATOM     11  C   UNL     1       3.227   4.009  19.795  0.00  0.00    +0.000 C 
ENDROOT
BRANCH  11  12
ATOM     12  C   UNL     1       3.616   2.664  19.573  0.00  0.00    +0.000 A 
ATOM     13  C   UNL     1       3.129   1.804  18.621  0.00  0.00    +0.000 A 
ATOM     14  N   UNL     1       3.943   0.705  18.703  0.00  0.00    +0.000 N 
ATOM     15  C   UNL     1       4.835   0.927  19.716  0.00  0.00    +0.000 A 
ATOM     16  N   UNL     1       4.625   2.089  20.295  0.00  0.00    +0.000 NA
ATOM     17  H   UNL     1       3.926  -0.102  18.096  0.00  0.00    +0.000 HD
ENDBRANCH  11  12
BRANCH   1  19
ATOM     18  N   UNL     1       7.818   5.478  13.617  0.00  0.00    +0.000 NA
ATOM     19  C   UNL     1       7.115   5.411  14.542  0.00  0.00    +0.000 C 
ENDBRANCH   1  19
TORSDOF 2
ENDMDL
MODEL 8
REMARK VINA RESULT:      -6.4      2.445      5.788
REMARK  Name = 
REMARK  2 active torsions:
REMARK  status: ('A' for Active; 'I' for Inactive)
REMARK    1  A    between atoms: C_2  and  C_3
REMARK    2  A    between atoms: C_13  and  C_14
REMARK                            x       y       z     vdW  Elec       q    Type
REMARK                         _______ _______ _______ _____ _____    ______ ____
ROOT
ATOM      1  C   UNL     1       2.010   6.597  20.235  0.00  0.00    +0.000 A 
ATOM      2  C   UNL     1       3.269   6.674  19.658  0.00  0.00    +0.000 A 
ATOM      3  C   UNL     1       3.821   5.549  19.041  0.00  0.00    +0.000 A 
ATOM      4  C   UNL     1       3.124   4.336  18.923  0.00  0.00    +0.000 A 
ATOM      5  C   UNL     1       1.855   4.264  19.537  0.00  0.00    +0.000 A 
ATOM      6  C   UNL     1       1.313   5.390  20.194  0.00  0.00    +0.000 A 
ATOM      7  C   UNL     1       1.066   2.977  19.596  0.00  0.00    +0.000 C 
ATOM      8  C   UNL     1       1.520   1.957  18.562  0.00  0.00    +0.000 C 
ATOM      9  C   UNL     1       3.037   1.826  18.591  0.00  0.00    +0.000 C 
ATOM     10  C   UNL     1       3.697   3.142  18.220  0.00  0.00    +0.000 C 
ATOM     11  C   UNL     1       4.662   3.128  17.268  0.00  0.00    +0.000 C 
ENDROOT
BRANCH  11  12
ATOM     12  C   UNL     1       5.356   4.225  16.701  0.00  0.00    +0.000 A 
ATOM     13  C   UNL     1       4.935   5.037  15.676  0.00  0.00    +0.000 A 
ATOM     14  N   UNL     1       5.868   6.038  15.627  0.00  0.00    +0.000 N 
ATOM     15  C   UNL     1       6.818   5.765  16.572  0.00  0.00    +0.000 A 
ATOM     16  N   UNL     1       6.558   4.642  17.204  0.00  0.00    +0.000 NA
ATOM     17  H   UNL     1       5.837   6.859  15.038  0.00  0.00    +0.000 HD
ENDBRANCH  11  12
BRANCH   1  19
ATOM     18  N   UNL     1       1.016   8.679  21.420  0.00  0.00    +0.000 NA
ATOM     19  C   UNL     1       1.454   7.744  20.884  0.00  0.00    +0.000 C 
ENDBRANCH   1  19
TORSDOF 2
ENDMDL
MODEL 9
REMARK VINA RESULT:      -6.3      2.453      3.703
REMARK  Name = 
REMARK  2 active torsions:
REMARK  status: ('A' for Active; 'I' for Inactive)
REMARK    1  A    between atoms: C_2  and  C_3
REMARK    2  A    between atoms: C_13  and  C_14
REMARK                            x       y       z     vdW  Elec       q    Type
REMARK                         _______ _______ _______ _____ _____    ______ ____
ROOT
ATOM      1  C   UNL     1       6.122   4.057  14.438  0.00  0.00    +0.000 A 
ATOM      2  C   UNL     1       5.125   3.425  15.168  0.00  0.00    +0.000 A 
ATOM      3  C   UNL     1       4.976   3.706  16.528  0.00  0.00    +0.000 A 
ATOM      4  C   UNL     1       5.764   4.659  17.192  0.00  0.00    +0.000 A 
ATOM      5  C   UNL     1       6.792   5.274  16.444  0.00  0.00    +0.000 A 
ATOM      6  C   UNL     1       6.967   4.962  15.078  0.00  0.00    +0.000 A 
ATOM      7  C   UNL     1       7.790   6.215  17.078  0.00  0.00    +0.000 C 
ATOM      8  C   UNL     1       7.309   6.782  18.405  0.00  0.00    +0.000 C 
ATOM      9  C   UNL     1       6.775   5.662  19.288  0.00  0.00    +0.000 C 
ATOM     10  C   UNL     1       5.575   4.994  18.641  0.00  0.00    +0.000 C 
ATOM     11  C   UNL     1       4.454   4.832  19.387  0.00  0.00    +0.000 C 
ENDROOT
BRANCH  11  12
ATOM     12  C   UNL     1       3.196   4.318  18.986  0.00  0.00    +0.000 A 
ATOM     13  C   UNL     1       2.210   4.978  18.295  0.00  0.00    +0.000 A 
ATOM     14  N   UNL     1       1.289   4.007  18.002  0.00  0.00    +0.000 N 
ATOM     15  C   UNL     1       1.728   2.839  18.561  0.00  0.00    +0.000 A 
ATOM     16  N   UNL     1       2.859   3.011  19.209  0.00  0.00    +0.000 NA
ATOM     17  H   UNL     1       0.461   4.117  17.432  0.00  0.00    +0.000 HD
ENDBRANCH  11  12
BRANCH   1  19
ATOM     18  N   UNL     1       6.422   3.492  11.924  0.00  0.00    +0.000 NA
ATOM     19  C   UNL     1       6.287   3.754  13.050  0.00  0.00    +0.000 C 
ENDBRANCH   1  19
TORSDOF 2
ENDMDL
