MODEL 1
REMARK VINA RESULT:      -7.5      0.000      0.000
REMARK  Name = 
REMARK  4 active torsions:
REMARK  status: ('A' for Active; 'I' for Inactive)
REMARK    1  A    between atoms: C_2  and  C_3
REMARK    2  A    between atoms: N_13  and  C_14
REMARK    3  A    between atoms: C_14  and  C_15
REMARK    4  A    between atoms: C_15  and  C_16
REMARK                            x       y       z     vdW  Elec       q    Type
REMARK                         _______ _______ _______ _____ _____    ______ ____
ROOT
ATOM      1  O   UNL     1       8.109   4.200  16.882  0.00  0.00    +0.000 OA
ATOM      2  C   UNL     1       7.088   4.601  16.327  0.00  0.00    +0.000 C 
ATOM      3  N   UNL     1       5.960   5.016  17.045  0.00  0.00    +0.000 N 
ATOM      4  C   UNL     1       4.647   5.358  16.477  0.00  0.00    +0.000 C 
ATOM      5  C   UNL     1       3.495   4.649  17.191  0.00  0.00    +0.000 C 
ATOM      6  N   UNL     1       3.487   4.856  18.649  0.00  0.00    +0.000 NA
ATOM      7  C   UNL     1       4.807   4.402  19.165  0.00  0.00    +0.000 C 
ATOM      8  C   UNL     1       6.029   5.088  18.512  0.00  0.00    +0.000 C 
ENDROOT
BRANCH   2   9
ATOM      9  C   UNL     1       7.050   4.573  14.843  0.00  0.00    +0.000 A 
ATOM     10  C   UNL     1       7.879   5.449  14.132  0.00  0.00    +0.000 A 
ATOM     11  C   UNL     1       7.894   5.422  12.736  0.00  0.00    +0.000 A 
ATOM     12  C   UNL     1       7.111   4.494  12.045  0.00  0.00    +0.000 A 
ATOM     13  C   UNL     1       6.270   3.642  12.753  0.00  0.00    +0.000 A 
ATOM     14 CL   UNL     1       5.331   2.460  11.927  0.00  0.00    +0.000 Cl
ATOM     15  C   UNL     1       6.191   3.722  14.137  0.00  0.00    +0.000 A 
ENDBRANCH   2   9
BRANCH   6  16
ATOM     16  C   UNL     1       3.220   6.270  19.007  0.00  0.00    +0.000 C 
BRANCH  16  17
ATOM     17  C   UNL     1       2.220   6.423  20.165  0.00  0.00    +0.000 C 
BRANCH  17  18
ATOM     18  C   UNL     1       1.661   7.820  20.224  0.00  0.00    +0.000 A 
ATOM     19  C   UNL     1       1.157   8.321  21.413  0.00  0.00    +0.000 A 
ATOM     20  C   UNL     1       0.648   9.617  21.440  0.00  0.00    +0.000 A 
ATOM     21  C   UNL     1       0.663  10.371  20.260  0.00  0.00    +0.000 A 
ATOM     22  C   UNL     1       1.189   9.796  19.117  0.00  0.00    +0.000 A 
ATOM     23  N   UNL     1       1.696   8.546  19.072  0.00  0.00    +0.000 NA
ENDBRANCH  17  18
ENDBRANCH  16  17
ENDBRANCH   6  16
TORSDOF 4
ENDMDL
MODEL 2
REMARK VINA RESULT:      -7.4      0.638      1.196
REMARK  Name = 
REMARK  4 active torsions:
REMARK  status: ('A' for Active; 'I' for Inactive)
REMARK    1  A    between atoms: C_2  and  C_3
REMARK    2  A    between atoms: N_13  and  C_14
REMARK    3  A    between atoms: C_14  and  C_15
REMARK    4  A    between atoms: C_15  and  C_16
REMARK                            x       y       z     vdW  Elec       q    Type
REMARK                         _______ _______ _______ _____ _____    ______ ____
ROOT
ATOM      1  O   UNL     1       8.129   4.112  16.869  0.00  0.00    +0.000 OA
ATOM      2  C   UNL     1       7.120   4.564  16.331  0.00  0.00    +0.000 C 
ATOM      3  N   UNL     1       6.019   5.016  17.069  0.00  0.00    +0.000 N 
ATOM      4  C   UNL     1       4.716   5.421  16.521  0.00  0.00    +0.000 C 
ATOM      5  C   UNL     1       3.543   4.752  17.240  0.00  0.00    +0.000 C 
ATOM      6  N   UNL     1       3.561   4.939  18.701  0.00  0.00    +0.000 NA
ATOM      7  C   UNL     1       4.867   4.423  19.195  0.00  0.00    +0.000 C 
ATOM      8  C   UNL     1       6.109   5.065  18.536  0.00  0.00    +0.000 C 
ENDROOT
BRANCH   2   9
ATOM      9  C   UNL     1       7.063   4.557  14.847  0.00  0.00    +0.000 A 
ATOM     10  C   UNL     1       7.882   5.445  14.140  0.00  0.00    +0.000 A 
ATOM     11  C   UNL     1       7.879   5.438  12.743  0.00  0.00    +0.000 A 
ATOM     12  C   UNL     1       7.090   4.519  12.049  0.00  0.00    +0.000 A 
ATOM     13  C   UNL     1       6.258   3.655  12.754  0.00  0.00    +0.000 A 
ATOM     14 CL   UNL     1       5.312   2.483  11.923  0.00  0.00    +0.000 Cl
ATOM     15  C   UNL     1       6.197   3.715  14.140  0.00  0.00    +0.000 A 
ENDBRANCH   2   9
BRANCH   6  16
ATOM     16  C   UNL     1       3.358   6.358  19.081  0.00  0.00    +0.000 C 
BRANCH  16  17
ATOM     17  C   UNL     1       2.431   7.117  18.118  0.00  0.00    +0.000 C 
BRANCH  17  18
ATOM     18  C   UNL     1       1.833   8.331  18.778  0.00  0.00    +0.000 A 
ATOM     19  C   UNL     1       1.580   9.475  18.037  0.00  0.00    +0.000 A 
ATOM     20  C   UNL     1       1.025  10.583  18.672  0.00  0.00    +0.000 A 
ATOM     21  C   UNL     1       0.741  10.503  20.041  0.00  0.00    +0.000 A 
ATOM     22  C   UNL     1       1.021   9.321  20.704  0.00  0.00    +0.000 A 
ATOM     23  N   UNL     1       1.549   8.233  20.106  0.00  0.00    +0.000 NA
ENDBRANCH  17  18
ENDBRANCH  16  17
ENDBRANCH   6  16
TORSDOF 4
ENDMDL
MODEL 3
REMARK VINA RESULT:      -7.4      3.489      8.262
REMARK  Name = 
REMARK  4 active torsions:
REMARK  status: ('A' for Active; 'I' for Inactive)
REMARK    1  A    between atoms: C_2  and  C_3
REMARK    2  A    between atoms: N_13  and  C_14
REMARK    3  A    between atoms: C_14  and  C_15
REMARK    4  A    between atoms: C_15  and  C_16
REMARK                            x       y       z     vdW  Elec       q    Type
REMARK                         _______ _______ _______ _____ _____    ______ ____
ROOT
ATOM      1  O   UNL     1       1.343   4.882  20.284  0.00  0.00    +0.000 OA
ATOM      2  C   UNL     1       2.076   5.693  19.722  0.00  0.00    +0.000 C 
ATOM      3  N   UNL     1       3.220   5.302  19.015  0.00  0.00    +0.000 N 
ATOM      4  C   UNL     1       4.238   6.200  18.449  0.00  0.00    +0.000 C 
ATOM      5  C   UNL     1       5.661   5.789  18.831  0.00  0.00    +0.000 C 
ATOM      6  N   UNL     1       5.980   4.388  18.503  0.00  0.00    +0.000 NA
ATOM      7  C   UNL     1       4.966   3.536  19.184  0.00  0.00    +0.000 C 
ATOM      8  C   UNL     1       3.498   3.870  18.834  0.00  0.00    +0.000 C 
ENDROOT
BRANCH   2   9
ATOM      9  C   UNL     1       1.754   7.136  19.867  0.00  0.00    +0.000 A 
ATOM     10  C   UNL     1       1.838   7.960  18.740  0.00  0.00    +0.000 A 
ATOM     11  C   UNL     1       1.507   9.314  18.835  0.00  0.00    +0.000 A 
ATOM     12  C   UNL     1       1.051   9.839  20.047  0.00  0.00    +0.000 A 
ATOM     13  C   UNL     1       0.993   9.023  21.171  0.00  0.00    +0.000 A 
ATOM     14 CL   UNL     1       0.391   9.636  22.662  0.00  0.00    +0.000 Cl
ATOM     15  C   UNL     1       1.400   7.697  21.100  0.00  0.00    +0.000 A 
ENDBRANCH   2   9
BRANCH   6  16
ATOM     16  C   UNL     1       5.996   4.151  17.040  0.00  0.00    +0.000 C 
BRANCH  16  17
ATOM     17  C   UNL     1       7.029   5.012  16.297  0.00  0.00    +0.000 C 
BRANCH  17  18
ATOM     18  C   UNL     1       7.009   4.736  14.817  0.00  0.00    +0.000 A 
ATOM     19  C   UNL     1       6.119   3.813  14.291  0.00  0.00    +0.000 A 
ATOM     20  C   UNL     1       6.120   3.578  12.918  0.00  0.00    +0.000 A 
ATOM     21  C   UNL     1       7.023   4.285  12.115  0.00  0.00    +0.000 A 
ATOM     22  C   UNL     1       7.875   5.192  12.721  0.00  0.00    +0.000 A 
ATOM     23  N   UNL     1       7.883   5.442  14.047  0.00  0.00    +0.000 NA
ENDBRANCH  17  18
ENDBRANCH  16  17
ENDBRANCH   6  16
TORSDOF 4
ENDMDL
MODEL 4
REMARK VINA RESULT:      -7.3      1.876      3.077
REMARK  Name = 
REMARK  4 active torsions:
REMARK  status: ('A' for Active; 'I' for Inactive)
REMARK    1  A    between atoms: C_2  and  C_3
REMARK    2  A    between atoms: N_13  and  C_14
REMARK    3  A    between atoms: C_14  and  C_15
REMARK    4  A    between atoms: C_15  and  C_16
REMARK                            x       y       z     vdW  Elec       q    Type
REMARK                         _______ _______ _______ _____ _____    ______ ____
ROOT
ATOM      1  O   UNL     1       8.223   4.279  16.576  0.00  0.00    +0.000 OA
ATOM      2  C   UNL     1       7.166   4.618  16.047  0.00  0.00    +0.000 C 
ATOM      3  N   UNL     1       6.040   4.983  16.796  0.00  0.00    +0.000 N 
ATOM      4  C   UNL     1       4.694   5.248  16.265  0.00  0.00    +0.000 C 
ATOM      5  C   UNL     1       3.604   4.489  17.023  0.00  0.00    +0.000 C 
ATOM      6  N   UNL     1       3.630   4.716  18.478  0.00  0.00    +0.000 NA
ATOM      7  C   UNL     1       4.988   4.341  18.958  0.00  0.00    +0.000 C 
ATOM      8  C   UNL     1       6.150   5.080  18.259  0.00  0.00    +0.000 C 
ENDROOT
BRANCH   2   9
ATOM      9  C   UNL     1       7.083   4.567  14.566  0.00  0.00    +0.000 A 
ATOM     10  C   UNL     1       7.850   5.468  13.818  0.00  0.00    +0.000 A 
ATOM     11  C   UNL     1       7.823   5.422  12.422  0.00  0.00    +0.000 A 
ATOM     12  C   UNL     1       7.063   4.449  11.769  0.00  0.00    +0.000 A 
ATOM     13  C   UNL     1       6.283   3.571  12.514  0.00  0.00    +0.000 A 
ATOM     14 CL   UNL     1       5.374   2.336  11.733  0.00  0.00    +0.000 Cl
ATOM     15  C   UNL     1       6.243   3.668  13.899  0.00  0.00    +0.000 A 
ENDBRANCH   2   9
BRANCH   6  16
ATOM     16  C   UNL     1       3.299   6.119  18.827  0.00  0.00    +0.000 C 
BRANCH  16  17
ATOM     17  C   UNL     1       2.219   6.235  19.915  0.00  0.00    +0.000 C 
BRANCH  17  18
ATOM     18  C   UNL     1       1.856   4.884  20.471  0.00  0.00    +0.000 A 
ATOM     19  C   UNL     1       0.861   4.127  19.873  0.00  0.00    +0.000 A 
ATOM     20  C   UNL     1       0.547   2.880  20.407  0.00  0.00    +0.000 A 
ATOM     21  C   UNL     1       1.249   2.433  21.534  0.00  0.00    +0.000 A 
ATOM     22  C   UNL     1       2.230   3.251  22.066  0.00  0.00    +0.000 A 
ATOM     23  N   UNL     1       2.557   4.458  21.558  0.00  0.00    +0.000 NA
ENDBRANCH  17  18
ENDBRANCH  16  17
ENDBRANCH   6  16
TORSDOF 4
ENDMDL
MODEL 5
REMARK VINA RESULT:      -7.2      2.837      3.624
REMARK  Name = 
REMARK  4 active torsions:
REMARK  status: ('A' for Active; 'I' for Inactive)
REMARK    1  A    between atoms: C_2  and  C_3
REMARK    2  A    between atoms: N_13  and  C_14
REMARK    3  A    between atoms: C_14  and  C_15
REMARK    4  A    between atoms: C_15  and  C_16
REMARK                            x       y       z     vdW  Elec       q    Type
REMARK                         _______ _______ _______ _____ _____    ______ ____
ROOT
ATOM      1  O   UNL     1       8.002   5.464  13.638  0.00  0.00    +0.000 OA
ATOM      2  C   UNL     1       6.957   4.859  13.874  0.00  0.00    +0.000 C 
ATOM      3  N   UNL     1       6.272   4.995  15.088  0.00  0.00    +0.000 N 
ATOM      4  C   UNL     1       5.113   4.202  15.523  0.00  0.00    +0.000 C 
ATOM      5  C   UNL     1       5.285   3.637  16.934  0.00  0.00    +0.000 C 
ATOM      6  N   UNL     1       5.608   4.660  17.944  0.00  0.00    +0.000 NA
ATOM      7  C   UNL     1       6.840   5.357  17.484  0.00  0.00    +0.000 C 
ATOM      8  C   UNL     1       6.745   5.979  16.072  0.00  0.00    +0.000 C 
ENDROOT
BRANCH   2   9
ATOM      9  C   UNL     1       6.461   3.907  12.848  0.00  0.00    +0.000 A 
ATOM     10  C   UNL     1       7.344   2.946  12.340  0.00  0.00    +0.000 A 
ATOM     11  C   UNL     1       6.899   2.013  11.401  0.00  0.00    +0.000 A 
ATOM     12  C   UNL     1       5.562   2.009  10.997  0.00  0.00    +0.000 A 
ATOM     13  C   UNL     1       4.694   2.980  11.485  0.00  0.00    +0.000 A 
ATOM     14 CL   UNL     1       3.032   2.967  11.037  0.00  0.00    +0.000 Cl
ATOM     15  C   UNL     1       5.152   3.960  12.355  0.00  0.00    +0.000 A 
ENDBRANCH   2   9
BRANCH   6  16
ATOM     16  C   UNL     1       4.489   5.611  18.149  0.00  0.00    +0.000 C 
BRANCH  16  17
ATOM     17  C   UNL     1       3.909   5.566  19.571  0.00  0.00    +0.000 C 
BRANCH  17  18
ATOM     18  C   UNL     1       2.774   4.582  19.669  0.00  0.00    +0.000 A 
ATOM     19  C   UNL     1       2.352   4.123  20.906  0.00  0.00    +0.000 A 
ATOM     20  C   UNL     1       1.298   3.215  20.968  0.00  0.00    +0.000 A 
ATOM     21  C   UNL     1       0.700   2.795  19.773  0.00  0.00    +0.000 A 
ATOM     22  C   UNL     1       1.180   3.307  18.580  0.00  0.00    +0.000 A 
ATOM     23  N   UNL     1       2.193   4.195  18.500  0.00  0.00    +0.000 NA
ENDBRANCH  17  18
ENDBRANCH  16  17
ENDBRANCH   6  16
TORSDOF 4
ENDMDL
MODEL 6
REMARK VINA RESULT:      -7.2      0.987      1.459
REMARK  Name = 
REMARK  4 active torsions:
REMARK  status: ('A' for Active; 'I' for Inactive)
REMARK    1  A    between atoms: C_2  and  C_3
REMARK    2  A    between atoms: N_13  and  C_14
REMARK    3  A    between atoms: C_14  and  C_15
REMARK    4  A    between atoms: C_15  and  C_16
REMARK                            x       y       z     vdW  Elec       q    Type
REMARK                         _______ _______ _______ _____ _____    ______ ____
ROOT
ATOM      1  O   UNL     1       7.838   4.834  16.810  0.00  0.00    +0.000 OA
ATOM      2  C   UNL     1       6.784   4.716  16.186  0.00  0.00    +0.000 C 
ATOM      3  N   UNL     1       5.542   4.634  16.827  0.00  0.00    +0.000 N 
ATOM      4  C   UNL     1       4.253   4.335  16.185  0.00  0.00    +0.000 C 
ATOM      5  C   UNL     1       3.477   3.234  16.911  0.00  0.00    +0.000 C 
ATOM      6  N   UNL     1       3.281   3.499  18.347  0.00  0.00    +0.000 NA
ATOM      7  C   UNL     1       4.629   3.699  18.946  0.00  0.00    +0.000 C 
ATOM      8  C   UNL     1       5.473   4.812  18.285  0.00  0.00    +0.000 C 
ENDROOT
BRANCH   2   9
ATOM      9  C   UNL     1       6.864   4.590  14.709  0.00  0.00    +0.000 A 
ATOM     10  C   UNL     1       7.735   5.431  14.009  0.00  0.00    +0.000 A 
ATOM     11  C   UNL     1       7.860   5.314  12.622  0.00  0.00    +0.000 A 
ATOM     12  C   UNL     1       7.146   4.329  11.937  0.00  0.00    +0.000 A 
ATOM     13  C   UNL     1       6.262   3.511  12.632  0.00  0.00    +0.000 A 
ATOM     14 CL   UNL     1       5.406   2.260  11.815  0.00  0.00    +0.000 Cl
ATOM     15  C   UNL     1       6.073   3.679  13.997  0.00  0.00    +0.000 A 
ENDBRANCH   2   9
BRANCH   6  16
ATOM     16  C   UNL     1       2.403   4.670  18.580  0.00  0.00    +0.000 C 
BRANCH  16  17
ATOM     17  C   UNL     1       2.992   5.681  19.577  0.00  0.00    +0.000 C 
BRANCH  17  18
ATOM     18  C   UNL     1       2.410   7.054  19.373  0.00  0.00    +0.000 A 
ATOM     19  C   UNL     1       2.534   7.690  18.148  0.00  0.00    +0.000 A 
ATOM     20  C   UNL     1       1.985   8.959  17.985  0.00  0.00    +0.000 A 
ATOM     21  C   UNL     1       1.324   9.551  19.070  0.00  0.00    +0.000 A 
ATOM     22  C   UNL     1       1.242   8.845  20.256  0.00  0.00    +0.000 A 
ATOM     23  N   UNL     1       1.758   7.610  20.431  0.00  0.00    +0.000 NA
ENDBRANCH  17  18
ENDBRANCH  16  17
ENDBRANCH   6  16
TORSDOF 4
ENDMDL
MODEL 7
REMARK VINA RESULT:      -7.1      2.898      3.648
REMARK  Name = 
REMARK  4 active torsions:
REMARK  status: ('A' for Active; 'I' for Inactive)
REMARK    1  A    between atoms: C_2  and  C_3
REMARK    2  A    between atoms: N_13  and  C_14
REMARK    3  A    between atoms: C_14  and  C_15
REMARK    4  A    between atoms: C_15  and  C_16
REMARK                            x       y       z     vdW  Elec       q    Type
REMARK                         _______ _______ _______ _____ _____    ______ ____
ROOT
ATOM      1  O   UNL     1       7.953   5.457  13.918  0.00  0.00    +0.000 OA
ATOM      2  C   UNL     1       6.871   4.892  14.062  0.00  0.00    +0.000 C 
ATOM      3  N   UNL     1       6.097   5.044  15.220  0.00  0.00    +0.000 N 
ATOM      4  C   UNL     1       4.877   4.293  15.552  0.00  0.00    +0.000 C 
ATOM      5  C   UNL     1       4.914   3.709  16.965  0.00  0.00    +0.000 C 
ATOM      6  N   UNL     1       5.195   4.708  18.010  0.00  0.00    +0.000 NA
ATOM      7  C   UNL     1       6.486   5.360  17.658  0.00  0.00    +0.000 C 
ATOM      8  C   UNL     1       6.527   5.999  16.251  0.00  0.00    +0.000 C 
ENDROOT
BRANCH   2   9
ATOM      9  C   UNL     1       6.422   3.970  12.989  0.00  0.00    +0.000 A 
ATOM     10  C   UNL     1       7.351   3.083  12.432  0.00  0.00    +0.000 A 
ATOM     11  C   UNL     1       6.951   2.178  11.446  0.00  0.00    +0.000 A 
ATOM     12  C   UNL     1       5.616   2.127  11.042  0.00  0.00    +0.000 A 
ATOM     13  C   UNL     1       4.700   3.026  11.579  0.00  0.00    +0.000 A 
ATOM     14 CL   UNL     1       3.041   2.952  11.130  0.00  0.00    +0.000 Cl
ATOM     15  C   UNL     1       5.110   3.982  12.498  0.00  0.00    +0.000 A 
ENDBRANCH   2   9
BRANCH   6  16
ATOM     16  C   UNL     1       4.101   5.701  18.138  0.00  0.00    +0.000 C 
BRANCH  16  17
ATOM     17  C   UNL     1       2.709   5.106  17.874  0.00  0.00    +0.000 C 
BRANCH  17  18
ATOM     18  C   UNL     1       2.203   4.345  19.070  0.00  0.00    +0.000 A 
ATOM     19  C   UNL     1       1.341   3.272  18.902  0.00  0.00    +0.000 A 
ATOM     20  C   UNL     1       0.890   2.585  20.025  0.00  0.00    +0.000 A 
ATOM     21  C   UNL     1       1.324   3.002  21.290  0.00  0.00    +0.000 A 
ATOM     22  C   UNL     1       2.188   4.080  21.368  0.00  0.00    +0.000 A 
ATOM     23  N   UNL     1       2.645   4.753  20.291  0.00  0.00    +0.000 NA
ENDBRANCH  17  18
ENDBRANCH  16  17
ENDBRANCH   6  16
TORSDOF 4
ENDMDL
MODEL 8
REMARK VINA RESULT:      -7.1      3.351      8.454
REMARK  Name = 
REMARK  4 active torsions:
REMARK  status: ('A' for Active; 'I' for Inactive)
REMARK    1  A    between atoms: C_2  and  C_3
REMARK    2  A    between atoms: N_13  and  C_14
REMARK    3  A    between atoms: C_14  and  C_15
REMARK    4  A    between atoms: C_15  and  C_16
REMARK                            x       y       z     vdW  Elec       q    Type
REMARK                         _______ _______ _______ _____ _____    ______ ____
ROOT
ATOM      1  O   UNL     1       6.282   4.999  20.122  0.00  0.00    +0.000 OA
ATOM      2  C   UNL     1       5.439   4.834  19.243  0.00  0.00    +0.000 C 
ATOM      3  N   UNL     1       5.775   4.793  17.884  0.00  0.00    +0.000 N 
ATOM      4  C   UNL     1       4.830   4.760  16.758  0.00  0.00    +0.000 C 
ATOM      5  C   UNL     1       5.153   5.805  15.689  0.00  0.00    +0.000 C 
ATOM      6  N   UNL     1       6.538   5.733  15.192  0.00  0.00    +0.000 NA
ATOM      7  C   UNL     1       7.436   5.866  16.371  0.00  0.00    +0.000 C 
ATOM      8  C   UNL     1       7.192   4.830  17.493  0.00  0.00    +0.000 C 
ENDROOT
BRANCH   2   9
ATOM      9  C   UNL     1       4.015   4.745  19.656  0.00  0.00    +0.000 A 
ATOM     10  C   UNL     1       3.427   3.481  19.770  0.00  0.00    +0.000 A 
ATOM     11  C   UNL     1       2.100   3.361  20.191  0.00  0.00    +0.000 A 
ATOM     12  C   UNL     1       1.371   4.500  20.538  0.00  0.00    +0.000 A 
ATOM     13  C   UNL     1       1.950   5.757  20.400  0.00  0.00    +0.000 A 
ATOM     14 CL   UNL     1       1.087   7.170  20.865  0.00  0.00    +0.000 Cl
ATOM     15  C   UNL     1       3.240   5.885  19.903  0.00  0.00    +0.000 A 
ENDBRANCH   2   9
BRANCH   6  16
ATOM     16  C   UNL     1       6.797   4.474  14.451  0.00  0.00    +0.000 C 
BRANCH  16  17
ATOM     17  C   UNL     1       7.004   4.690  12.943  0.00  0.00    +0.000 C 
BRANCH  17  18
ATOM     18  C   UNL     1       6.596   3.474  12.156  0.00  0.00    +0.000 A 
ATOM     19  C   UNL     1       7.559   2.635  11.618  0.00  0.00    +0.000 A 
ATOM     20  C   UNL     1       7.155   1.516  10.895  0.00  0.00    +0.000 A 
ATOM     21  C   UNL     1       5.784   1.276  10.736  0.00  0.00    +0.000 A 
ATOM     22  C   UNL     1       4.889   2.162  11.309  0.00  0.00    +0.000 A 
ATOM     23  N   UNL     1       5.260   3.247  12.022  0.00  0.00    +0.000 NA
ENDBRANCH  17  18
ENDBRANCH  16  17
ENDBRANCH   6  16
TORSDOF 4
ENDMDL
MODEL 9
REMARK VINA RESULT:      -7.1      2.942      8.110
REMARK  Name = 
REMARK  4 active torsions:
REMARK  status: ('A' for Active; 'I' for Inactive)
REMARK    1  A    between atoms: C_2  and  C_3
REMARK    2  A    between atoms: N_13  and  C_14
REMARK    3  A    between atoms: C_14  and  C_15
REMARK    4  A    between atoms: C_15  and  C_16
REMARK                            x       y       z     vdW  Elec       q    Type
REMARK                         _______ _______ _______ _____ _____    ______ ____
ROOT
ATOM      1  O   UNL     1       1.407   4.755  20.335  0.00  0.00    +0.000 OA
ATOM      2  C   UNL     1       2.109   5.595  19.775  0.00  0.00    +0.000 C 
ATOM      3  N   UNL     1       3.247   5.245  19.038  0.00  0.00    +0.000 N 
ATOM      4  C   UNL     1       4.232   6.178  18.469  0.00  0.00    +0.000 C 
ATOM      5  C   UNL     1       5.672   5.794  18.815  0.00  0.00    +0.000 C 
ATOM      6  N   UNL     1       6.017   4.408  18.454  0.00  0.00    +0.000 NA
ATOM      7  C   UNL     1       5.038   3.519  19.137  0.00  0.00    +0.000 C 
ATOM      8  C   UNL     1       3.556   3.824  18.823  0.00  0.00    +0.000 C 
ENDROOT
BRANCH   2   9
ATOM      9  C   UNL     1       1.756   7.026  19.955  0.00  0.00    +0.000 A 
ATOM     10  C   UNL     1       1.280   7.448  21.202  0.00  0.00    +0.000 A 
ATOM     11  C   UNL     1       0.973   8.794  21.415  0.00  0.00    +0.000 A 
ATOM     12  C   UNL     1       1.180   9.729  20.398  0.00  0.00    +0.000 A 
ATOM     13  C   UNL     1       1.629   9.302  19.153  0.00  0.00    +0.000 A 
ATOM     14 CL   UNL     1       1.935  10.441  17.900  0.00  0.00    +0.000 Cl
ATOM     15  C   UNL     1       1.856   7.953  18.912  0.00  0.00    +0.000 A 
ENDBRANCH   2   9
BRANCH   6  16
ATOM     16  C   UNL     1       6.008   4.199  16.986  0.00  0.00    +0.000 C 
BRANCH  16  17
ATOM     17  C   UNL     1       7.127   4.962  16.258  0.00  0.00    +0.000 C 
BRANCH  17  18
ATOM     18  C   UNL     1       7.073   4.726  14.772  0.00  0.00    +0.000 A 
ATOM     19  C   UNL     1       6.189   3.799  14.244  0.00  0.00    +0.000 A 
ATOM     20  C   UNL     1       6.159   3.601  12.866  0.00  0.00    +0.000 A 
ATOM     21  C   UNL     1       7.027   4.348  12.059  0.00  0.00    +0.000 A 
ATOM     22  C   UNL     1       7.875   5.256  12.668  0.00  0.00    +0.000 A 
ATOM     23  N   UNL     1       7.912   5.470  14.000  0.00  0.00    +0.000 NA
ENDBRANCH  17  18
ENDBRANCH  16  17
ENDBRANCH   6  16
TORSDOF 4
ENDMDL
