MODEL 1
REMARK VINA RESULT:      -9.0      0.000      0.000
REMARK  Name = 
REMARK  6 active torsions:
REMARK  status: ('A' for Active; 'I' for Inactive)
REMARK    1  A    between atoms: C_2  and  C_3
REMARK    2  A    between atoms: C_3  and  C_4
REMARK    3  A    between atoms: N_6  and  N_7
REMARK    4  A    between atoms: C_8  and  C_9
REMARK    5  A    between atoms: N_17  and  C_18
REMARK    6  A    between atoms: C_18  and  C_19
REMARK                            x       y       z     vdW  Elec       q    Type
REMARK                         _______ _______ _______ _____ _____    ______ ____
ROOT
ATOM      1  C   UNL     1       7.519   5.044  18.000  0.00  0.00    +0.000 C 
ATOM      2  O   UNL     1       8.303   4.128  17.743  0.00  0.00    +0.000 OA
ATOM      3  N   UNL     1       6.221   5.120  17.531  0.00  0.00    +0.000 N 
ATOM      4  H   UNL     1       5.596   5.853  17.880  0.00  0.00    +0.000 HD
ENDROOT
BRANCH   3   5
ATOM      5  N   UNL     1       5.701   4.128  16.760  0.00  0.00    +0.000 NA
ATOM      6  C   UNL     1       4.569   3.581  17.104  0.00  0.00    +0.000 C 
BRANCH   6   7
ATOM      7  C   UNL     1       3.596   4.006  18.144  0.00  0.00    +0.000 A 
ATOM      8  C   UNL     1       2.736   5.085  17.884  0.00  0.00    +0.000 A 
ATOM      9  C   UNL     1       1.832   5.529  18.843  0.00  0.00    +0.000 A 
ATOM     10  C   UNL     1       1.737   4.860  20.058  0.00  0.00    +0.000 A 
ATOM     11  C   UNL     1       2.533   3.737  20.306  0.00  0.00    +0.000 A 
ATOM     12 CL   UNL     1       2.299   2.933  21.821  0.00  0.00    +0.000 Cl
ATOM     13  C   UNL     1       3.469   3.299  19.352  0.00  0.00    +0.000 A 
ATOM     14 CL   UNL     1       4.451   1.903  19.678  0.00  0.00    +0.000 Cl
ENDBRANCH   6   7
ENDBRANCH   3   5
BRANCH   1  15
ATOM     15  C   UNL     1       8.012   6.269  18.735  0.00  0.00    +0.000 C 
BRANCH  15  17
ATOM     16  O   UNL     1       7.340   7.696  16.924  0.00  0.00    +0.000 OA
ATOM     17  C   UNL     1       7.913   7.586  18.009  0.00  0.00    +0.000 C 
ATOM     18  N   UNL     1       8.557   8.628  18.636  0.00  0.00    +0.000 N 
ATOM     19  H   UNL     1       9.075   8.459  19.488  0.00  0.00    +0.000 HD
BRANCH  18  20
ATOM     20  C   UNL     1       8.564   9.975  18.109  0.00  0.00    +0.000 C 
BRANCH  20  21
ATOM     21  C   UNL     1       9.658  10.796  18.737  0.00  0.00    +0.000 A 
ATOM     22  C   UNL     1       9.633  11.070  20.113  0.00  0.00    +0.000 A 
ATOM     23  C   UNL     1      10.642  11.836  20.704  0.00  0.00    +0.000 A 
ATOM     24  C   UNL     1      11.680  12.343  19.924  0.00  0.00    +0.000 A 
ATOM     25  C   UNL     1      11.711  12.084  18.555  0.00  0.00    +0.000 A 
ATOM     26  C   UNL     1      10.705  11.318  17.962  0.00  0.00    +0.000 A 
ENDBRANCH  20  21
ENDBRANCH  18  20
ENDBRANCH  15  17
ENDBRANCH   1  15
TORSDOF 6
ENDMDL
MODEL 2
REMARK VINA RESULT:      -8.6      2.002      2.279
REMARK  Name = 
REMARK  6 active torsions:
REMARK  status: ('A' for Active; 'I' for Inactive)
REMARK    1  A    between atoms: C_2  and  C_3
REMARK    2  A    between atoms: C_3  and  C_4
REMARK    3  A    between atoms: N_6  and  N_7
REMARK    4  A    between atoms: C_8  and  C_9
REMARK    5  A    between atoms: N_17  and  C_18
REMARK    6  A    between atoms: C_18  and  C_19
REMARK                            x       y       z     vdW  Elec       q    Type
REMARK                         _______ _______ _______ _____ _____    ______ ____
ROOT
ATOM      1  C   UNL     1       7.428   5.107  18.330  0.00  0.00    +0.000 C 
ATOM      2  O   UNL     1       7.758   4.675  17.223  0.00  0.00    +0.000 OA
ATOM      3  N   UNL     1       6.339   4.659  19.054  0.00  0.00    +0.000 N 
ATOM      4  H   UNL     1       6.197   4.987  20.013  0.00  0.00    +0.000 HD
ENDROOT
BRANCH   3   5
ATOM      5  N   UNL     1       5.563   3.646  18.585  0.00  0.00    +0.000 NA
ATOM      6  C   UNL     1       4.266   3.741  18.681  0.00  0.00    +0.000 C 
BRANCH   6   7
ATOM      7  C   UNL     1       3.434   4.912  19.061  0.00  0.00    +0.000 A 
ATOM      8  C   UNL     1       2.736   4.895  20.279  0.00  0.00    +0.000 A 
ATOM      9  C   UNL     1       1.925   5.960  20.656  0.00  0.00    +0.000 A 
ATOM     10  C   UNL     1       1.846   7.085  19.842  0.00  0.00    +0.000 A 
ATOM     11  C   UNL     1       2.594   7.150  18.661  0.00  0.00    +0.000 A 
ATOM     12 CL   UNL     1       2.481   8.616  17.747  0.00  0.00    +0.000 Cl
ATOM     13  C   UNL     1       3.395   6.067  18.260  0.00  0.00    +0.000 A 
ATOM     14 CL   UNL     1       4.314   6.165  16.789  0.00  0.00    +0.000 Cl
ENDBRANCH   6   7
ENDBRANCH   3   5
BRANCH   1  15
ATOM     15  C   UNL     1       8.128   6.319  18.900  0.00  0.00    +0.000 C 
BRANCH  15  17
ATOM     16  O   UNL     1       7.409   7.670  17.048  0.00  0.00    +0.000 OA
ATOM     17  C   UNL     1       7.997   7.607  18.129  0.00  0.00    +0.000 C 
ATOM     18  N   UNL     1       8.633   8.682  18.710  0.00  0.00    +0.000 N 
ATOM     19  H   UNL     1       9.164   8.552  19.560  0.00  0.00    +0.000 HD
BRANCH  18  20
ATOM     20  C   UNL     1       8.610  10.008  18.135  0.00  0.00    +0.000 C 
BRANCH  20  21
ATOM     21  C   UNL     1       9.710  10.863  18.705  0.00  0.00    +0.000 A 
ATOM     22  C   UNL     1       9.771  11.107  20.085  0.00  0.00    +0.000 A 
ATOM     23  C   UNL     1      10.786  11.904  20.622  0.00  0.00    +0.000 A 
ATOM     24  C   UNL     1      11.744  12.471  19.784  0.00  0.00    +0.000 A 
ATOM     25  C   UNL     1      11.690  12.243  18.411  0.00  0.00    +0.000 A 
ATOM     26  C   UNL     1      10.678  11.446  17.871  0.00  0.00    +0.000 A 
ENDBRANCH  20  21
ENDBRANCH  18  20
ENDBRANCH  15  17
ENDBRANCH   1  15
TORSDOF 6
ENDMDL
MODEL 3
REMARK VINA RESULT:      -8.2      1.621      2.012
REMARK  Name = 
REMARK  6 active torsions:
REMARK  status: ('A' for Active; 'I' for Inactive)
REMARK    1  A    between atoms: C_2  and  C_3
REMARK    2  A    between atoms: C_3  and  C_4
REMARK    3  A    between atoms: N_6  and  N_7
REMARK    4  A    between atoms: C_8  and  C_9
REMARK    5  A    between atoms: N_17  and  C_18
REMARK    6  A    between atoms: C_18  and  C_19
REMARK                            x       y       z     vdW  Elec       q    Type
REMARK                         _______ _______ _______ _____ _____    ______ ____
ROOT
ATOM      1  C   UNL     1       7.084   5.462  18.059  0.00  0.00    +0.000 C 
ATOM      2  O   UNL     1       7.056   5.254  16.844  0.00  0.00    +0.000 OA
ATOM      3  N   UNL     1       6.255   4.848  18.979  0.00  0.00    +0.000 N 
ATOM      4  H   UNL     1       6.415   4.988  19.980  0.00  0.00    +0.000 HD
ENDROOT
BRANCH   3   5
ATOM      5  N   UNL     1       5.353   3.911  18.583  0.00  0.00    +0.000 NA
ATOM      6  C   UNL     1       4.088   4.225  18.535  0.00  0.00    +0.000 C 
BRANCH   6   7
ATOM      7  C   UNL     1       3.444   5.558  18.660  0.00  0.00    +0.000 A 
ATOM      8  C   UNL     1       3.552   6.478  17.605  0.00  0.00    +0.000 A 
ATOM      9  C   UNL     1       2.986   7.745  17.698  0.00  0.00    +0.000 A 
ATOM     10  C   UNL     1       2.253   8.089  18.829  0.00  0.00    +0.000 A 
ATOM     11  C   UNL     1       2.072   7.158  19.858  0.00  0.00    +0.000 A 
ATOM     12 CL   UNL     1       1.092   7.656  21.195  0.00  0.00    +0.000 Cl
ATOM     13  C   UNL     1       2.664   5.885  19.784  0.00  0.00    +0.000 A 
ATOM     14 CL   UNL     1       2.430   4.743  21.072  0.00  0.00    +0.000 Cl
ENDBRANCH   6   7
ENDBRANCH   3   5
BRANCH   1  15
ATOM     15  C   UNL     1       7.948   6.574  18.609  0.00  0.00    +0.000 C 
BRANCH  15  17
ATOM     16  O   UNL     1       7.137   8.101  16.941  0.00  0.00    +0.000 OA
ATOM     17  C   UNL     1       7.829   7.921  17.944  0.00  0.00    +0.000 C 
ATOM     18  N   UNL     1       8.596   8.907  18.524  0.00  0.00    +0.000 N 
ATOM     19  H   UNL     1       9.203   8.681  19.300  0.00  0.00    +0.000 HD
BRANCH  18  20
ATOM     20  C   UNL     1       8.609  10.272  18.045  0.00  0.00    +0.000 C 
BRANCH  20  21
ATOM     21  C   UNL     1       9.808  11.017  18.566  0.00  0.00    +0.000 A 
ATOM     22  C   UNL     1       9.986  11.190  19.947  0.00  0.00    +0.000 A 
ATOM     23  C   UNL     1      11.094  11.885  20.440  0.00  0.00    +0.000 A 
ATOM     24  C   UNL     1      12.030  12.421  19.557  0.00  0.00    +0.000 A 
ATOM     25  C   UNL     1      11.860  12.262  18.183  0.00  0.00    +0.000 A 
ATOM     26  C   UNL     1      10.755  11.567  17.688  0.00  0.00    +0.000 A 
ENDBRANCH  20  21
ENDBRANCH  18  20
ENDBRANCH  15  17
ENDBRANCH   1  15
TORSDOF 6
ENDMDL
MODEL 4
REMARK VINA RESULT:      -8.0      1.741      1.986
REMARK  Name = 
REMARK  6 active torsions:
REMARK  status: ('A' for Active; 'I' for Inactive)
REMARK    1  A    between atoms: C_2  and  C_3
REMARK    2  A    between atoms: C_3  and  C_4
REMARK    3  A    between atoms: N_6  and  N_7
REMARK    4  A    between atoms: C_8  and  C_9
REMARK    5  A    between atoms: N_17  and  C_18
REMARK    6  A    between atoms: C_18  and  C_19
REMARK                            x       y       z     vdW  Elec       q    Type
REMARK                         _______ _______ _______ _____ _____    ______ ____
ROOT
ATOM      1  C   UNL     1       7.206   5.401  18.114  0.00  0.00    +0.000 C 
ATOM      2  O   UNL     1       7.753   4.298  18.046  0.00  0.00    +0.000 OA
ATOM      3  N   UNL     1       6.004   5.720  17.510  0.00  0.00    +0.000 N 
ATOM      4  H   UNL     1       5.560   6.621  17.708  0.00  0.00    +0.000 HD
ENDROOT
BRANCH   3   5
ATOM      5  N   UNL     1       5.309   4.784  16.812  0.00  0.00    +0.000 NA
ATOM      6  C   UNL     1       4.222   4.281  17.328  0.00  0.00    +0.000 C 
BRANCH   6   7
ATOM      7  C   UNL     1       3.464   4.714  18.530  0.00  0.00    +0.000 A 
ATOM      8  C   UNL     1       3.259   3.805  19.581  0.00  0.00    +0.000 A 
ATOM      9  C   UNL     1       2.531   4.166  20.709  0.00  0.00    +0.000 A 
ATOM     10  C   UNL     1       2.044   5.463  20.827  0.00  0.00    +0.000 A 
ATOM     11  C   UNL     1       2.302   6.403  19.824  0.00  0.00    +0.000 A 
ATOM     12 CL   UNL     1       1.710   8.008  20.089  0.00  0.00    +0.000 Cl
ATOM     13  C   UNL     1       3.014   6.040  18.667  0.00  0.00    +0.000 A 
ATOM     14 CL   UNL     1       3.324   7.220  17.431  0.00  0.00    +0.000 Cl
ENDBRANCH   6   7
ENDBRANCH   3   5
BRANCH   1  15
ATOM     15  C   UNL     1       7.938   6.562  18.749  0.00  0.00    +0.000 C 
BRANCH  15  17
ATOM     16  O   UNL     1       7.542   7.938  16.820  0.00  0.00    +0.000 OA
ATOM     17  C   UNL     1       7.971   7.853  17.971  0.00  0.00    +0.000 C 
ATOM     18  N   UNL     1       8.565   8.900  18.639  0.00  0.00    +0.000 N 
ATOM     19  H   UNL     1       8.967   8.749  19.555  0.00  0.00    +0.000 HD
BRANCH  18  20
ATOM     20  C   UNL     1       8.680  10.225  18.072  0.00  0.00    +0.000 C 
BRANCH  20  21
ATOM     21  C   UNL     1       9.808  10.991  18.709  0.00  0.00    +0.000 A 
ATOM     22  C   UNL     1       9.791  11.258  20.087  0.00  0.00    +0.000 A 
ATOM     23  C   UNL     1      10.832  11.972  20.686  0.00  0.00    +0.000 A 
ATOM     24  C   UNL     1      11.896  12.433  19.913  0.00  0.00    +0.000 A 
ATOM     25  C   UNL     1      11.921  12.181  18.543  0.00  0.00    +0.000 A 
ATOM     26  C   UNL     1      10.883  11.467  17.941  0.00  0.00    +0.000 A 
ENDBRANCH  20  21
ENDBRANCH  18  20
ENDBRANCH  15  17
ENDBRANCH   1  15
TORSDOF 6
ENDMDL
MODEL 5
REMARK VINA RESULT:      -8.0      1.763      2.388
REMARK  Name = 
REMARK  6 active torsions:
REMARK  status: ('A' for Active; 'I' for Inactive)
REMARK    1  A    between atoms: C_2  and  C_3
REMARK    2  A    between atoms: C_3  and  C_4
REMARK    3  A    between atoms: N_6  and  N_7
REMARK    4  A    between atoms: C_8  and  C_9
REMARK    5  A    between atoms: N_17  and  C_18
REMARK    6  A    between atoms: C_18  and  C_19
REMARK                            x       y       z     vdW  Elec       q    Type
REMARK                         _______ _______ _______ _____ _____    ______ ____
ROOT
ATOM      1  C   UNL     1       6.581   5.142  18.725  0.00  0.00    +0.000 C 
ATOM      2  O   UNL     1       6.377   4.673  19.847  0.00  0.00    +0.000 OA
ATOM      3  N   UNL     1       5.856   4.816  17.595  0.00  0.00    +0.000 N 
ATOM      4  H   UNL     1       6.011   5.333  16.725  0.00  0.00    +0.000 HD
ENDROOT
BRANCH   3   5
ATOM      5  N   UNL     1       4.807   3.954  17.667  0.00  0.00    +0.000 NA
ATOM      6  C   UNL     1       3.653   4.390  18.090  0.00  0.00    +0.000 C 
BRANCH   6   7
ATOM      7  C   UNL     1       3.208   5.785  18.339  0.00  0.00    +0.000 A 
ATOM      8  C   UNL     1       3.391   6.756  17.342  0.00  0.00    +0.000 A 
ATOM      9  C   UNL     1       3.012   8.078  17.550  0.00  0.00    +0.000 A 
ATOM     10  C   UNL     1       2.391   8.435  18.741  0.00  0.00    +0.000 A 
ATOM     11  C   UNL     1       2.132   7.466  19.716  0.00  0.00    +0.000 A 
ATOM     12 CL   UNL     1       1.298   7.993  21.138  0.00  0.00    +0.000 Cl
ATOM     13  C   UNL     1       2.537   6.133  19.525  0.00  0.00    +0.000 A 
ATOM     14 CL   UNL     1       2.209   4.943  20.747  0.00  0.00    +0.000 Cl
ENDBRANCH   6   7
ENDBRANCH   3   5
BRANCH   1  15
ATOM     15  C   UNL     1       7.797   6.008  18.485  0.00  0.00    +0.000 C 
BRANCH  15  17
ATOM     16  O   UNL     1       6.747   7.543  16.965  0.00  0.00    +0.000 OA
ATOM     17  C   UNL     1       7.556   7.365  17.876  0.00  0.00    +0.000 C 
ATOM     18  N   UNL     1       8.352   8.365  18.390  0.00  0.00    +0.000 N 
ATOM     19  H   UNL     1       9.052   8.143  19.084  0.00  0.00    +0.000 HD
BRANCH  18  20
ATOM     20  C   UNL     1       8.263   9.740  17.950  0.00  0.00    +0.000 C 
BRANCH  20  21
ATOM     21  C   UNL     1       9.314  10.589  18.613  0.00  0.00    +0.000 A 
ATOM     22  C   UNL     1      10.328  11.183  17.846  0.00  0.00    +0.000 A 
ATOM     23  C   UNL     1      11.312  11.968  18.454  0.00  0.00    +0.000 A 
ATOM     24  C   UNL     1      11.295  12.161  19.835  0.00  0.00    +0.000 A 
ATOM     25  C   UNL     1      10.298  11.570  20.607  0.00  0.00    +0.000 A 
ATOM     26  C   UNL     1       9.314  10.785  20.003  0.00  0.00    +0.000 A 
ENDBRANCH  20  21
ENDBRANCH  18  20
ENDBRANCH  15  17
ENDBRANCH   1  15
TORSDOF 6
ENDMDL
MODEL 6
REMARK VINA RESULT:      -7.7      5.181      8.751
REMARK  Name = 
REMARK  6 active torsions:
REMARK  status: ('A' for Active; 'I' for Inactive)
REMARK    1  A    between atoms: C_2  and  C_3
REMARK    2  A    between atoms: C_3  and  C_4
REMARK    3  A    between atoms: N_6  and  N_7
REMARK    4  A    between atoms: C_8  and  C_9
REMARK    5  A    between atoms: N_17  and  C_18
REMARK    6  A    between atoms: C_18  and  C_19
REMARK                            x       y       z     vdW  Elec       q    Type
REMARK                         _______ _______ _______ _____ _____    ______ ____
ROOT
ATOM      1  C   UNL     1       2.248   7.659  19.076  0.00  0.00    +0.000 C 
ATOM      2  O   UNL     1       1.987   8.050  20.215  0.00  0.00    +0.000 OA
ATOM      3  N   UNL     1       2.761   6.411  18.773  0.00  0.00    +0.000 N 
ATOM      4  H   UNL     1       2.845   6.120  17.795  0.00  0.00    +0.000 HD
ENDROOT
BRANCH   3   5
ATOM      5  N   UNL     1       2.977   5.493  19.752  0.00  0.00    +0.000 NA
ATOM      6  C   UNL     1       4.016   4.710  19.673  0.00  0.00    +0.000 C 
BRANCH   6   7
ATOM      7  C   UNL     1       5.176   4.776  18.747  0.00  0.00    +0.000 A 
ATOM      8  C   UNL     1       6.398   5.292  19.208  0.00  0.00    +0.000 A 
ATOM      9  C   UNL     1       7.497   5.396  18.363  0.00  0.00    +0.000 A 
ATOM     10  C   UNL     1       7.405   4.930  17.056  0.00  0.00    +0.000 A 
ATOM     11  C   UNL     1       6.219   4.344  16.602  0.00  0.00    +0.000 A 
ATOM     12 CL   UNL     1       6.220   3.737  14.981  0.00  0.00    +0.000 Cl
ATOM     13  C   UNL     1       5.094   4.261  17.441  0.00  0.00    +0.000 A 
ATOM     14 CL   UNL     1       3.628   3.532  16.860  0.00  0.00    +0.000 Cl
ENDBRANCH   6   7
ENDBRANCH   3   5
BRANCH   1  15
ATOM     15  C   UNL     1       2.178   8.627  17.917  0.00  0.00    +0.000 C 
BRANCH  15  17
ATOM     16  O   UNL     1       2.144  11.018  18.141  0.00  0.00    +0.000 OA
ATOM     17  C   UNL     1       1.520   9.957  18.179  0.00  0.00    +0.000 C 
ATOM     18  N   UNL     1       0.187   9.872  18.511  0.00  0.00    +0.000 N 
ATOM     19  H   UNL     1      -0.253   8.966  18.600  0.00  0.00    +0.000 HD
BRANCH  18  20
ATOM     20  C   UNL     1      -0.627  11.037  18.782  0.00  0.00    +0.000 C 
BRANCH  20  21
ATOM     21  C   UNL     1      -1.930  10.973  18.032  0.00  0.00    +0.000 A 
ATOM     22  C   UNL     1      -2.027  10.227  16.847  0.00  0.00    +0.000 A 
ATOM     23  C   UNL     1      -3.231  10.166  16.141  0.00  0.00    +0.000 A 
ATOM     24  C   UNL     1      -4.349  10.857  16.608  0.00  0.00    +0.000 A 
ATOM     25  C   UNL     1      -4.263  11.607  17.778  0.00  0.00    +0.000 A 
ATOM     26  C   UNL     1      -3.061  11.669  18.487  0.00  0.00    +0.000 A 
ENDBRANCH  20  21
ENDBRANCH  18  20
ENDBRANCH  15  17
ENDBRANCH   1  15
TORSDOF 6
ENDMDL
MODEL 7
REMARK VINA RESULT:      -7.6      1.447      1.657
REMARK  Name = 
REMARK  6 active torsions:
REMARK  status: ('A' for Active; 'I' for Inactive)
REMARK    1  A    between atoms: C_2  and  C_3
REMARK    2  A    between atoms: C_3  and  C_4
REMARK    3  A    between atoms: N_6  and  N_7
REMARK    4  A    between atoms: C_8  and  C_9
REMARK    5  A    between atoms: N_17  and  C_18
REMARK    6  A    between atoms: C_18  and  C_19
REMARK                            x       y       z     vdW  Elec       q    Type
REMARK                         _______ _______ _______ _____ _____    ______ ____
ROOT
ATOM      1  C   UNL     1       7.541   5.746  18.567  0.00  0.00    +0.000 C 
ATOM      2  O   UNL     1       7.195   4.935  19.428  0.00  0.00    +0.000 OA
ATOM      3  N   UNL     1       7.334   5.585  17.209  0.00  0.00    +0.000 N 
ATOM      4  H   UNL     1       7.547   6.353  16.568  0.00  0.00    +0.000 HD
ENDROOT
BRANCH   3   5
ATOM      5  N   UNL     1       6.675   4.495  16.732  0.00  0.00    +0.000 NA
ATOM      6  C   UNL     1       5.406   4.353  16.996  0.00  0.00    +0.000 C 
BRANCH   6   7
ATOM      7  C   UNL     1       4.456   5.323  17.600  0.00  0.00    +0.000 A 
ATOM      8  C   UNL     1       4.288   6.584  17.007  0.00  0.00    +0.000 A 
ATOM      9  C   UNL     1       3.429   7.528  17.560  0.00  0.00    +0.000 A 
ATOM     10  C   UNL     1       2.681   7.200  18.685  0.00  0.00    +0.000 A 
ATOM     11  C   UNL     1       2.779   5.921  19.245  0.00  0.00    +0.000 A 
ATOM     12 CL   UNL     1       1.763   5.586  20.605  0.00  0.00    +0.000 Cl
ATOM     13  C   UNL     1       3.666   4.971  18.709  0.00  0.00    +0.000 A 
ATOM     14 CL   UNL     1       3.777   3.390  19.419  0.00  0.00    +0.000 Cl
ENDBRANCH   6   7
ENDBRANCH   3   5
BRANCH   1  15
ATOM     15  C   UNL     1       8.396   6.931  18.953  0.00  0.00    +0.000 C 
BRANCH  15  17
ATOM     16  O   UNL     1       7.416   8.273  17.218  0.00  0.00    +0.000 OA
ATOM     17  C   UNL     1       8.175   8.210  18.187  0.00  0.00    +0.000 C 
ATOM     18  N   UNL     1       8.928   9.273  18.631  0.00  0.00    +0.000 N 
ATOM     19  H   UNL     1       9.590   9.140  19.384  0.00  0.00    +0.000 HD
BRANCH  18  20
ATOM     20  C   UNL     1       8.847  10.590  18.040  0.00  0.00    +0.000 C 
BRANCH  20  21
ATOM     21  C   UNL     1      10.067  11.407  18.371  0.00  0.00    +0.000 A 
ATOM     22  C   UNL     1      10.672  11.293  19.632  0.00  0.00    +0.000 A 
ATOM     23  C   UNL     1      11.802  12.052  19.950  0.00  0.00    +0.000 A 
ATOM     24  C   UNL     1      12.333  12.938  19.014  0.00  0.00    +0.000 A 
ATOM     25  C   UNL     1      11.736  13.066  17.762  0.00  0.00    +0.000 A 
ATOM     26  C   UNL     1      10.608  12.309  17.440  0.00  0.00    +0.000 A 
ENDBRANCH  20  21
ENDBRANCH  18  20
ENDBRANCH  15  17
ENDBRANCH   1  15
TORSDOF 6
ENDMDL
MODEL 8
REMARK VINA RESULT:      -7.6      4.957      8.488
REMARK  Name = 
REMARK  6 active torsions:
REMARK  status: ('A' for Active; 'I' for Inactive)
REMARK    1  A    between atoms: C_2  and  C_3
REMARK    2  A    between atoms: C_3  and  C_4
REMARK    3  A    between atoms: N_6  and  N_7
REMARK    4  A    between atoms: C_8  and  C_9
REMARK    5  A    between atoms: N_17  and  C_18
REMARK    6  A    between atoms: C_18  and  C_19
REMARK                            x       y       z     vdW  Elec       q    Type
REMARK                         _______ _______ _______ _____ _____    ______ ____
ROOT
ATOM      1  C   UNL     1       2.452   6.708  18.388  0.00  0.00    +0.000 C 
ATOM      2  O   UNL     1       1.837   5.830  17.779  0.00  0.00    +0.000 OA
ATOM      3  N   UNL     1       3.141   6.508  19.570  0.00  0.00    +0.000 N 
ATOM      4  H   UNL     1       3.721   7.259  19.954  0.00  0.00    +0.000 HD
ENDROOT
BRANCH   3   5
ATOM      5  N   UNL     1       3.216   5.271  20.128  0.00  0.00    +0.000 NA
ATOM      6  C   UNL     1       4.120   4.433  19.703  0.00  0.00    +0.000 C 
BRANCH   6   7
ATOM      7  C   UNL     1       5.271   4.673  18.795  0.00  0.00    +0.000 A 
ATOM      8  C   UNL     1       6.435   5.273  19.301  0.00  0.00    +0.000 A 
ATOM      9  C   UNL     1       7.522   5.539  18.475  0.00  0.00    +0.000 A 
ATOM     10  C   UNL     1       7.481   5.154  17.140  0.00  0.00    +0.000 A 
ATOM     11  C   UNL     1       6.359   4.487  16.636  0.00  0.00    +0.000 A 
ATOM     12 CL   UNL     1       6.426   3.990  14.979  0.00  0.00    +0.000 Cl
ATOM     13  C   UNL     1       5.245   4.239  17.457  0.00  0.00    +0.000 A 
ATOM     14 CL   UNL     1       3.859   3.412  16.814  0.00  0.00    +0.000 Cl
ENDBRANCH   6   7
ENDBRANCH   3   5
BRANCH   1  15
ATOM     15  C   UNL     1       2.338   8.148  17.943  0.00  0.00    +0.000 C 
BRANCH  15  17
ATOM     16  O   UNL     1       1.346   8.893  20.000  0.00  0.00    +0.000 OA
ATOM     17  C   UNL     1       1.480   9.055  18.787  0.00  0.00    +0.000 C 
ATOM     18  N   UNL     1       0.827  10.038  18.077  0.00  0.00    +0.000 N 
ATOM     19  H   UNL     1       0.917  10.075  17.070  0.00  0.00    +0.000 HD
BRANCH  18  20
ATOM     20  C   UNL     1      -0.030  11.019  18.705  0.00  0.00    +0.000 C 
BRANCH  20  21
ATOM     21  C   UNL     1      -1.446  10.899  18.206  0.00  0.00    +0.000 A 
ATOM     22  C   UNL     1      -1.762   9.981  17.193  0.00  0.00    +0.000 A 
ATOM     23  C   UNL     1      -3.072   9.867  16.720  0.00  0.00    +0.000 A 
ATOM     24  C   UNL     1      -4.077  10.674  17.251  0.00  0.00    +0.000 A 
ATOM     25  C   UNL     1      -3.774  11.594  18.252  0.00  0.00    +0.000 A 
ATOM     26  C   UNL     1      -2.466  11.710  18.727  0.00  0.00    +0.000 A 
ENDBRANCH  20  21
ENDBRANCH  18  20
ENDBRANCH  15  17
ENDBRANCH   1  15
TORSDOF 6
ENDMDL
MODEL 9
REMARK VINA RESULT:      -7.5      1.667      1.936
REMARK  Name = 
REMARK  6 active torsions:
REMARK  status: ('A' for Active; 'I' for Inactive)
REMARK    1  A    between atoms: C_2  and  C_3
REMARK    2  A    between atoms: C_3  and  C_4
REMARK    3  A    between atoms: N_6  and  N_7
REMARK    4  A    between atoms: C_8  and  C_9
REMARK    5  A    between atoms: N_17  and  C_18
REMARK    6  A    between atoms: C_18  and  C_19
REMARK                            x       y       z     vdW  Elec       q    Type
REMARK                         _______ _______ _______ _____ _____    ______ ____
ROOT
ATOM      1  C   UNL     1       6.832   5.568  16.782  0.00  0.00    +0.000 C 
ATOM      2  O   UNL     1       7.242   5.293  15.652  0.00  0.00    +0.000 OA
ATOM      3  N   UNL     1       5.586   5.222  17.270  0.00  0.00    +0.000 N 
ATOM      4  H   UNL     1       5.363   5.386  18.256  0.00  0.00    +0.000 HD
ENDROOT
BRANCH   3   5
ATOM      5  N   UNL     1       4.723   4.492  16.515  0.00  0.00    +0.000 NA
ATOM      6  C   UNL     1       3.702   3.920  17.089  0.00  0.00    +0.000 C 
BRANCH   6   7
ATOM      7  C   UNL     1       3.181   4.090  18.470  0.00  0.00    +0.000 A 
ATOM      8  C   UNL     1       3.282   3.027  19.381  0.00  0.00    +0.000 A 
ATOM      9  C   UNL     1       2.780   3.140  20.673  0.00  0.00    +0.000 A 
ATOM     10  C   UNL     1       2.220   4.343  21.090  0.00  0.00    +0.000 A 
ATOM     11  C   UNL     1       2.179   5.437  20.219  0.00  0.00    +0.000 A 
ATOM     12 CL   UNL     1       1.521   6.910  20.847  0.00  0.00    +0.000 Cl
ATOM     13  C   UNL     1       2.659   5.322  18.902  0.00  0.00    +0.000 A 
ATOM     14 CL   UNL     1       2.597   6.691  17.834  0.00  0.00    +0.000 Cl
ENDBRANCH   6   7
ENDBRANCH   3   5
BRANCH   1  15
ATOM     15  C   UNL     1       7.642   6.485  17.670  0.00  0.00    +0.000 C 
BRANCH  15  17
ATOM     16  O   UNL     1       6.279   8.390  17.136  0.00  0.00    +0.000 OA
ATOM     17  C   UNL     1       7.346   7.960  17.575  0.00  0.00    +0.000 C 
ATOM     18  N   UNL     1       8.386   8.772  17.970  0.00  0.00    +0.000 N 
ATOM     19  H   UNL     1       9.266   8.361  18.249  0.00  0.00    +0.000 HD
BRANCH  18  20
ATOM     20  C   UNL     1       8.295  10.215  17.970  0.00  0.00    +0.000 C 
BRANCH  20  21
ATOM     21  C   UNL     1       9.473  10.831  18.677  0.00  0.00    +0.000 A 
ATOM     22  C   UNL     1       9.406  11.105  20.051  0.00  0.00    +0.000 A 
ATOM     23  C   UNL     1      10.492  11.682  20.715  0.00  0.00    +0.000 A 
ATOM     24  C   UNL     1      11.652  11.997  20.010  0.00  0.00    +0.000 A 
ATOM     25  C   UNL     1      11.728  11.737  18.644  0.00  0.00    +0.000 A 
ATOM     26  C   UNL     1      10.645  11.160  17.978  0.00  0.00    +0.000 A 
ENDBRANCH  20  21
ENDBRANCH  18  20
ENDBRANCH  15  17
ENDBRANCH   1  15
TORSDOF 6
ENDMDL
