MODEL 1
REMARK VINA RESULT:      -7.4      0.000      0.000
REMARK  Name = 
REMARK  8 active torsions:
REMARK  status: ('A' for Active; 'I' for Inactive)
REMARK    1  A    between atoms: C_1  and  C_2
REMARK    2  A    between atoms: C_2  and  C_4
REMARK    3  A    between atoms: C_7  and  N_8
REMARK    4  A    between atoms: N_13  and  C_14
REMARK    5  A    between atoms: C_17  and  C_18
REMARK    6  A    between atoms: C_18  and  O_20
REMARK    7  A    between atoms: N_23  and  C_24
REMARK    8  A    between atoms: C_24  and  C_25
REMARK                            x       y       z     vdW  Elec       q    Type
REMARK                         _______ _______ _______ _____ _____    ______ ____
ROOT
ATOM      1  N   UNL     1       0.974  10.649  18.815  0.00  0.00    +0.000 N 
ATOM      2  C   UNL     1      -0.347  10.943  18.217  0.00  0.00    +0.000 C 
ATOM      3  C   UNL     1      -1.137  11.923  19.110  0.00  0.00    +0.000 C 
ATOM      4  N   UNL     1      -0.351  13.139  19.331  0.00  0.00    +0.000 N 
ATOM      5  C   UNL     1      -0.954  14.357  19.528  0.00  0.00    +0.000 C 
ATOM      6  N   UNL     1      -1.882  14.755  20.335  0.00  0.00    +0.000 NA
ATOM      7  N   UNL     1      -0.404  15.238  18.630  0.00  0.00    +0.000 N 
ATOM      8  C   UNL     1       0.992  12.884  19.907  0.00  0.00    +0.000 C 
ATOM      9  C   UNL     1       1.787  11.852  19.081  0.00  0.00    +0.000 C 
ATOM     10  H   UNL     1      -0.575  14.938  17.678  0.00  0.00    +0.000 HD
ENDROOT
BRANCH   1  14
ATOM     11  C   UNL     1       2.189   6.720  19.809  0.00  0.00    +0.000 A 
ATOM     12  C   UNL     1       1.536   7.523  20.740  0.00  0.00    +0.000 A 
ATOM     13  C   UNL     1       1.117   8.809  20.383  0.00  0.00    +0.000 A 
ATOM     14  C   UNL     1       1.353   9.361  19.119  0.00  0.00    +0.000 A 
ATOM     15  C   UNL     1       2.015   8.526  18.195  0.00  0.00    +0.000 A 
ATOM     16  C   UNL     1       2.428   7.222  18.529  0.00  0.00    +0.000 A 
BRANCH  11  18
ATOM     17  C   UNL     1       3.713   4.680  19.484  0.00  0.00    +0.000 C 
ATOM     18  C   UNL     1       2.598   5.354  20.232  0.00  0.00    +0.000 C 
ATOM     19  O   UNL     1       2.003   4.796  21.148  0.00  0.00    +0.000 OA
ENDBRANCH  11  18
ENDBRANCH   1  14
BRANCH   6  20
ATOM     20  C   UNL     1      -2.474  14.021  21.370  0.00  0.00    +0.000 A 
ATOM     21  C   UNL     1      -1.996  13.999  22.677  0.00  0.00    +0.000 A 
ATOM     22  C   UNL     1      -2.704  13.391  23.714  0.00  0.00    +0.000 A 
ATOM     23  C   UNL     1      -3.963  12.842  23.475  0.00  0.00    +0.000 A 
ATOM     24  C   UNL     1      -4.477  12.861  22.174  0.00  0.00    +0.000 A 
ATOM     25  C   UNL     1      -3.722  13.434  21.132  0.00  0.00    +0.000 A 
BRANCH  23  26
ATOM     26  C   UNL     1      -4.718  12.370  24.669  0.00  0.00    +0.000 C 
ATOM     27  O   UNL     1      -5.752  11.726  24.582  0.00  0.00    +0.000 OA
BRANCH  26  28
ATOM     28  O   UNL     1      -4.184  12.726  25.857  0.00  0.00    +0.000 OA
ATOM     29  H   UNL     1      -4.241  12.055  26.554  0.00  0.00    +0.000 HD
ENDBRANCH  26  28
ENDBRANCH  23  26
ENDBRANCH   6  20
BRANCH   7  30
ATOM     30  C   UNL     1      -0.495  16.681  18.803  0.00  0.00    +0.000 C 
BRANCH  30  31
ATOM     31  C   UNL     1       0.902  17.326  18.862  0.00  0.00    +0.000 C 
ATOM     32  C   UNL     1       1.997  16.380  19.358  0.00  0.00    +0.000 C 
ATOM     33  C   UNL     1       2.688  15.938  18.096  0.00  0.00    +0.000 C 
ATOM     34  C   UNL     1       2.551  17.156  17.215  0.00  0.00    +0.000 C 
ATOM     35  O   UNL     1       1.285  17.740  17.533  0.00  0.00    +0.000 OA
ENDBRANCH  30  31
ENDBRANCH   7  30
TORSDOF 7
ENDMDL
MODEL 2
REMARK VINA RESULT:      -7.4      0.733      1.262
REMARK  Name = 
REMARK  8 active torsions:
REMARK  status: ('A' for Active; 'I' for Inactive)
REMARK    1  A    between atoms: C_1  and  C_2
REMARK    2  A    between atoms: C_2  and  C_4
REMARK    3  A    between atoms: C_7  and  N_8
REMARK    4  A    between atoms: N_13  and  C_14
REMARK    5  A    between atoms: C_17  and  C_18
REMARK    6  A    between atoms: C_18  and  O_20
REMARK    7  A    between atoms: N_23  and  C_24
REMARK    8  A    between atoms: C_24  and  C_25
REMARK                            x       y       z     vdW  Elec       q    Type
REMARK                         _______ _______ _______ _____ _____    ______ ____
ROOT
ATOM      1  N   UNL     1       0.905  10.982  18.869  0.00  0.00    +0.000 N 
ATOM      2  C   UNL     1      -0.428  11.245  18.285  0.00  0.00    +0.000 C 
ATOM      3  C   UNL     1      -1.238  12.192  19.196  0.00  0.00    +0.000 C 
ATOM      4  N   UNL     1      -0.485  13.427  19.425  0.00  0.00    +0.000 N 
ATOM      5  C   UNL     1      -1.121  14.625  19.641  0.00  0.00    +0.000 C 
ATOM      6  N   UNL     1      -2.053  14.987  20.461  0.00  0.00    +0.000 NA
ATOM      7  N   UNL     1      -0.604  15.532  18.750  0.00  0.00    +0.000 N 
ATOM      8  C   UNL     1       0.869  13.204  19.988  0.00  0.00    +0.000 C 
ATOM      9  C   UNL     1       1.686  12.204  19.143  0.00  0.00    +0.000 C 
ATOM     10  H   UNL     1      -0.774  15.239  17.796  0.00  0.00    +0.000 HD
ENDROOT
BRANCH   1  14
ATOM     11  C   UNL     1       2.142   7.019  19.683  0.00  0.00    +0.000 A 
ATOM     12  C   UNL     1       2.385   7.603  18.443  0.00  0.00    +0.000 A 
ATOM     13  C   UNL     1       1.994   8.924  18.203  0.00  0.00    +0.000 A 
ATOM     14  C   UNL     1       1.324   9.702  19.154  0.00  0.00    +0.000 A 
ATOM     15  C   UNL     1       1.091   9.086  20.402  0.00  0.00    +0.000 A 
ATOM     16  C   UNL     1       1.494   7.764  20.669  0.00  0.00    +0.000 A 
BRANCH  11  18
ATOM     17  C   UNL     1       1.619   4.634  20.476  0.00  0.00    +0.000 C 
ATOM     18  C   UNL     1       2.594   5.618  19.894  0.00  0.00    +0.000 C 
ATOM     19  O   UNL     1       3.749   5.302  19.625  0.00  0.00    +0.000 OA
ENDBRANCH  11  18
ENDBRANCH   1  14
BRANCH   6  20
ATOM     20  C   UNL     1      -2.615  14.224  21.491  0.00  0.00    +0.000 A 
ATOM     21  C   UNL     1      -2.277  14.364  22.834  0.00  0.00    +0.000 A 
ATOM     22  C   UNL     1      -2.975  13.705  23.846  0.00  0.00    +0.000 A 
ATOM     23  C   UNL     1      -4.092  12.932  23.538  0.00  0.00    +0.000 A 
ATOM     24  C   UNL     1      -4.467  12.783  22.198  0.00  0.00    +0.000 A 
ATOM     25  C   UNL     1      -3.717  13.415  21.188  0.00  0.00    +0.000 A 
BRANCH  23  26
ATOM     26  C   UNL     1      -4.874  12.407  24.692  0.00  0.00    +0.000 C 
ATOM     27  O   UNL     1      -5.963  11.869  24.559  0.00  0.00    +0.000 OA
BRANCH  26  28
ATOM     28  O   UNL     1      -4.300  12.592  25.899  0.00  0.00    +0.000 OA
ATOM     29  H   UNL     1      -4.891  12.927  26.592  0.00  0.00    +0.000 HD
ENDBRANCH  26  28
ENDBRANCH  23  26
ENDBRANCH   6  20
BRANCH   7  30
ATOM     30  C   UNL     1      -0.735  16.970  18.941  0.00  0.00    +0.000 C 
BRANCH  30  31
ATOM     31  C   UNL     1       0.610  17.687  18.722  0.00  0.00    +0.000 C 
ATOM     32  C   UNL     1       1.246  18.210  20.011  0.00  0.00    +0.000 C 
ATOM     33  C   UNL     1       2.298  17.182  20.335  0.00  0.00    +0.000 C 
ATOM     34  C   UNL     1       2.724  16.720  18.964  0.00  0.00    +0.000 C 
ATOM     35  O   UNL     1       1.551  16.755  18.146  0.00  0.00    +0.000 OA
ENDBRANCH  30  31
ENDBRANCH   7  30
TORSDOF 7
ENDMDL
MODEL 3
REMARK VINA RESULT:      -7.2      3.399      6.262
REMARK  Name = 
REMARK  8 active torsions:
REMARK  status: ('A' for Active; 'I' for Inactive)
REMARK    1  A    between atoms: C_1  and  C_2
REMARK    2  A    between atoms: C_2  and  C_4
REMARK    3  A    between atoms: C_7  and  N_8
REMARK    4  A    between atoms: N_13  and  C_14
REMARK    5  A    between atoms: C_17  and  C_18
REMARK    6  A    between atoms: C_18  and  O_20
REMARK    7  A    between atoms: N_23  and  C_24
REMARK    8  A    between atoms: C_24  and  C_25
REMARK                            x       y       z     vdW  Elec       q    Type
REMARK                         _______ _______ _______ _____ _____    ______ ____
ROOT
ATOM      1  N   UNL     1       1.539   8.541  20.041  0.00  0.00    +0.000 N 
ATOM      2  C   UNL     1       1.751   9.823  19.334  0.00  0.00    +0.000 C 
ATOM      3  C   UNL     1       0.401  10.421  18.886  0.00  0.00    +0.000 C 
ATOM      4  N   UNL     1      -0.486  10.571  20.043  0.00  0.00    +0.000 N 
ATOM      5  C   UNL     1      -1.431  11.566  20.098  0.00  0.00    +0.000 C 
ATOM      6  N   UNL     1      -2.360  11.938  19.280  0.00  0.00    +0.000 NA
ATOM      7  N   UNL     1      -1.248  12.242  21.279  0.00  0.00    +0.000 N 
ATOM      8  C   UNL     1      -0.703   9.310  20.794  0.00  0.00    +0.000 C 
ATOM      9  C   UNL     1       0.628   8.644  21.197  0.00  0.00    +0.000 C 
ATOM     10  H   UNL     1      -0.327  12.662  21.316  0.00  0.00    +0.000 HD
ENDROOT
BRANCH   1  14
ATOM     11  C   UNL     1       3.291   4.960  18.624  0.00  0.00    +0.000 A 
ATOM     12  C   UNL     1       3.391   6.142  17.895  0.00  0.00    +0.000 A 
ATOM     13  C   UNL     1       2.829   7.322  18.394  0.00  0.00    +0.000 A 
ATOM     14  C   UNL     1       2.125   7.375  19.602  0.00  0.00    +0.000 A 
ATOM     15  C   UNL     1       2.041   6.165  20.322  0.00  0.00    +0.000 A 
ATOM     16  C   UNL     1       2.616   4.972  19.845  0.00  0.00    +0.000 A 
BRANCH  11  18
ATOM     17  C   UNL     1       4.627   3.846  16.737  0.00  0.00    +0.000 C 
ATOM     18  C   UNL     1       3.921   3.738  18.059  0.00  0.00    +0.000 C 
ATOM     19  O   UNL     1       3.825   2.670  18.655  0.00  0.00    +0.000 OA
ENDBRANCH  11  18
ENDBRANCH   1  14
BRANCH   6  20
ATOM     20  C   UNL     1      -2.743  11.305  18.092  0.00  0.00    +0.000 A 
ATOM     21  C   UNL     1      -3.877  11.648  17.360  0.00  0.00    +0.000 A 
ATOM     22  C   UNL     1      -4.135  11.109  16.100  0.00  0.00    +0.000 A 
ATOM     23  C   UNL     1      -3.214  10.252  15.501  0.00  0.00    +0.000 A 
ATOM     24  C   UNL     1      -2.057   9.899  16.205  0.00  0.00    +0.000 A 
ATOM     25  C   UNL     1      -1.841  10.414  17.498  0.00  0.00    +0.000 A 
BRANCH  23  26
ATOM     26  C   UNL     1      -3.489   9.862  14.090  0.00  0.00    +0.000 C 
ATOM     27  O   UNL     1      -2.603   9.714  13.263  0.00  0.00    +0.000 OA
BRANCH  26  28
ATOM     28  O   UNL     1      -4.796   9.707  13.788  0.00  0.00    +0.000 OA
ATOM     29  H   UNL     1      -5.127   8.797  13.840  0.00  0.00    +0.000 HD
ENDBRANCH  26  28
ENDBRANCH  23  26
ENDBRANCH   6  20
BRANCH   7  30
ATOM     30  C   UNL     1      -2.286  13.079  21.863  0.00  0.00    +0.000 C 
BRANCH  30  31
ATOM     31  C   UNL     1      -2.372  12.880  23.388  0.00  0.00    +0.000 C 
ATOM     32  C   UNL     1      -2.721  14.155  24.157  0.00  0.00    +0.000 C 
ATOM     33  C   UNL     1      -4.190  14.005  24.452  0.00  0.00    +0.000 C 
ATOM     34  C   UNL     1      -4.333  12.511  24.604  0.00  0.00    +0.000 C 
ATOM     35  O   UNL     1      -3.415  11.924  23.678  0.00  0.00    +0.000 OA
ENDBRANCH  30  31
ENDBRANCH   7  30
TORSDOF 7
ENDMDL
MODEL 4
REMARK VINA RESULT:      -7.2      3.496      6.296
REMARK  Name = 
REMARK  8 active torsions:
REMARK  status: ('A' for Active; 'I' for Inactive)
REMARK    1  A    between atoms: C_1  and  C_2
REMARK    2  A    between atoms: C_2  and  C_4
REMARK    3  A    between atoms: C_7  and  N_8
REMARK    4  A    between atoms: N_13  and  C_14
REMARK    5  A    between atoms: C_17  and  C_18
REMARK    6  A    between atoms: C_18  and  O_20
REMARK    7  A    between atoms: N_23  and  C_24
REMARK    8  A    between atoms: C_24  and  C_25
REMARK                            x       y       z     vdW  Elec       q    Type
REMARK                         _______ _______ _______ _____ _____    ______ ____
ROOT
ATOM      1  N   UNL     1       1.715   8.676  19.498  0.00  0.00    +0.000 N 
ATOM      2  C   UNL     1       1.808   9.998  18.841  0.00  0.00    +0.000 C 
ATOM      3  C   UNL     1       0.402  10.521  18.483  0.00  0.00    +0.000 C 
ATOM      4  N   UNL     1      -0.435  10.562  19.684  0.00  0.00    +0.000 N 
ATOM      5  C   UNL     1      -1.440  11.488  19.828  0.00  0.00    +0.000 C 
ATOM      6  N   UNL     1      -2.430  11.831  19.070  0.00  0.00    +0.000 NA
ATOM      7  N   UNL     1      -1.244  12.124  21.029  0.00  0.00    +0.000 N 
ATOM      8  C   UNL     1      -0.533   9.259  20.386  0.00  0.00    +0.000 C 
ATOM      9  C   UNL     1       0.856   8.667  20.698  0.00  0.00    +0.000 C 
ATOM     10  H   UNL     1      -0.352  12.603  21.043  0.00  0.00    +0.000 HD
ENDROOT
BRANCH   1  14
ATOM     11  C   UNL     1       3.719   5.272  17.980  0.00  0.00    +0.000 A 
ATOM     12  C   UNL     1       2.884   5.174  19.091  0.00  0.00    +0.000 A 
ATOM     13  C   UNL     1       2.208   6.305  19.559  0.00  0.00    +0.000 A 
ATOM     14  C   UNL     1       2.354   7.571  18.980  0.00  0.00    +0.000 A 
ATOM     15  C   UNL     1       3.204   7.641  17.857  0.00  0.00    +0.000 A 
ATOM     16  C   UNL     1       3.878   6.511  17.359  0.00  0.00    +0.000 A 
BRANCH  11  18
ATOM     17  C   UNL     1       3.781   2.709  17.849  0.00  0.00    +0.000 C 
ATOM     18  C   UNL     1       4.399   4.036  17.510  0.00  0.00    +0.000 C 
ATOM     19  O   UNL     1       5.456   4.119  16.893  0.00  0.00    +0.000 OA
ENDBRANCH  11  18
ENDBRANCH   1  14
BRANCH   6  20
ATOM     20  C   UNL     1      -2.828  11.224  17.874  0.00  0.00    +0.000 A 
ATOM     21  C   UNL     1      -3.940  11.620  17.135  0.00  0.00    +0.000 A 
ATOM     22  C   UNL     1      -4.209  11.103  15.868  0.00  0.00    +0.000 A 
ATOM     23  C   UNL     1      -3.319  10.214  15.270  0.00  0.00    +0.000 A 
ATOM     24  C   UNL     1      -2.184   9.808  15.980  0.00  0.00    +0.000 A 
ATOM     25  C   UNL     1      -1.957  10.302  17.279  0.00  0.00    +0.000 A 
BRANCH  23  26
ATOM     26  C   UNL     1      -3.597   9.848  13.853  0.00  0.00    +0.000 C 
ATOM     27  O   UNL     1      -4.727   9.638  13.437  0.00  0.00    +0.000 OA
BRANCH  26  28
ATOM     28  O   UNL     1      -2.505   9.744  13.068  0.00  0.00    +0.000 OA
ATOM     29  H   UNL     1      -1.815  10.407  13.228  0.00  0.00    +0.000 HD
ENDBRANCH  26  28
ENDBRANCH  23  26
ENDBRANCH   6  20
BRANCH   7  30
ATOM     30  C   UNL     1      -2.305  12.864  21.697  0.00  0.00    +0.000 C 
BRANCH  30  31
ATOM     31  C   UNL     1      -2.261  12.650  23.221  0.00  0.00    +0.000 C 
ATOM     32  C   UNL     1      -2.261  13.950  24.026  0.00  0.00    +0.000 C 
ATOM     33  C   UNL     1      -3.688  14.088  24.485  0.00  0.00    +0.000 C 
ATOM     34  C   UNL     1      -4.110  12.648  24.651  0.00  0.00    +0.000 C 
ATOM     35  O   UNL     1      -3.435  11.913  23.626  0.00  0.00    +0.000 OA
ENDBRANCH  30  31
ENDBRANCH   7  30
TORSDOF 7
ENDMDL
MODEL 5
REMARK VINA RESULT:      -7.2      4.274     11.095
REMARK  Name = 
REMARK  8 active torsions:
REMARK  status: ('A' for Active; 'I' for Inactive)
REMARK    1  A    between atoms: C_1  and  C_2
REMARK    2  A    between atoms: C_2  and  C_4
REMARK    3  A    between atoms: C_7  and  N_8
REMARK    4  A    between atoms: N_13  and  C_14
REMARK    5  A    between atoms: C_17  and  C_18
REMARK    6  A    between atoms: C_18  and  O_20
REMARK    7  A    between atoms: N_23  and  C_24
REMARK    8  A    between atoms: C_24  and  C_25
REMARK                            x       y       z     vdW  Elec       q    Type
REMARK                         _______ _______ _______ _____ _____    ______ ____
ROOT
ATOM      1  N   UNL     1       1.653   8.306  19.075  0.00  0.00    +0.000 N 
ATOM      2  C   UNL     1       1.988   8.142  17.643  0.00  0.00    +0.000 C 
ATOM      3  C   UNL     1       3.396   7.530  17.486  0.00  0.00    +0.000 C 
ATOM      4  N   UNL     1       3.473   6.264  18.218  0.00  0.00    +0.000 N 
ATOM      5  C   UNL     1       4.296   5.245  17.804  0.00  0.00    +0.000 C 
ATOM      6  N   UNL     1       5.552   5.201  17.503  0.00  0.00    +0.000 NA
ATOM      7  N   UNL     1       3.528   4.111  17.706  0.00  0.00    +0.000 N 
ATOM      8  C   UNL     1       3.120   6.383  19.654  0.00  0.00    +0.000 C 
ATOM      9  C   UNL     1       1.747   7.057  19.855  0.00  0.00    +0.000 C 
ATOM     10  H   UNL     1       2.789   4.232  17.025  0.00  0.00    +0.000 HD
ENDROOT
BRANCH   1  14
ATOM     11  C   UNL     1       0.735  12.116  20.671  0.00  0.00    +0.000 A 
ATOM     12  C   UNL     1       1.183  11.980  19.360  0.00  0.00    +0.000 A 
ATOM     13  C   UNL     1       1.453  10.709  18.842  0.00  0.00    +0.000 A 
ATOM     14  C   UNL     1       1.328   9.538  19.598  0.00  0.00    +0.000 A 
ATOM     15  C   UNL     1       0.872   9.705  20.922  0.00  0.00    +0.000 A 
ATOM     16  C   UNL     1       0.577  10.973  21.456  0.00  0.00    +0.000 A 
BRANCH  11  18
ATOM     17  C   UNL     1       0.083  14.547  20.166  0.00  0.00    +0.000 C 
ATOM     18  C   UNL     1       0.444  13.487  21.168  0.00  0.00    +0.000 C 
ATOM     19  O   UNL     1       0.535  13.734  22.366  0.00  0.00    +0.000 OA
ENDBRANCH  11  18
ENDBRANCH   1  14
BRANCH   6  20
ATOM     20  C   UNL     1       6.491   6.230  17.641  0.00  0.00    +0.000 A 
ATOM     21  C   UNL     1       6.402   7.455  16.984  0.00  0.00    +0.000 A 
ATOM     22  C   UNL     1       7.263   8.514  17.273  0.00  0.00    +0.000 A 
ATOM     23  C   UNL     1       8.204   8.394  18.293  0.00  0.00    +0.000 A 
ATOM     24  C   UNL     1       8.308   7.180  18.982  0.00  0.00    +0.000 A 
ATOM     25  C   UNL     1       7.465   6.107  18.639  0.00  0.00    +0.000 A 
BRANCH  23  26
ATOM     26  C   UNL     1       8.961   9.627  18.646  0.00  0.00    +0.000 C 
ATOM     27  O   UNL     1       9.236  10.489  17.825  0.00  0.00    +0.000 OA
BRANCH  26  28
ATOM     28  O   UNL     1       9.341   9.710  19.938  0.00  0.00    +0.000 OA
ATOM     29  H   UNL     1      10.170   9.255  20.156  0.00  0.00    +0.000 HD
ENDBRANCH  26  28
ENDBRANCH  23  26
ENDBRANCH   6  20
BRANCH   7  30
ATOM     30  C   UNL     1       4.113   2.778  17.689  0.00  0.00    +0.000 C 
BRANCH  30  31
ATOM     31  C   UNL     1       3.486   1.879  18.771  0.00  0.00    +0.000 C 
ATOM     32  C   UNL     1       4.011   2.155  20.181  0.00  0.00    +0.000 C 
ATOM     33  C   UNL     1       2.929   2.992  20.809  0.00  0.00    +0.000 C 
ATOM     34  C   UNL     1       1.685   2.455  20.144  0.00  0.00    +0.000 C 
ATOM     35  O   UNL     1       2.062   2.112  18.808  0.00  0.00    +0.000 OA
ENDBRANCH  30  31
ENDBRANCH   7  30
TORSDOF 7
ENDMDL
MODEL 6
REMARK VINA RESULT:      -7.1      4.274     11.095
REMARK  Name = 
REMARK  8 active torsions:
REMARK  status: ('A' for Active; 'I' for Inactive)
REMARK    1  A    between atoms: C_1  and  C_2
REMARK    2  A    between atoms: C_2  and  C_4
REMARK    3  A    between atoms: C_7  and  N_8
REMARK    4  A    between atoms: N_13  and  C_14
REMARK    5  A    between atoms: C_17  and  C_18
REMARK    6  A    between atoms: C_18  and  O_20
REMARK    7  A    between atoms: N_23  and  C_24
REMARK    8  A    between atoms: C_24  and  C_25
REMARK                            x       y       z     vdW  Elec       q    Type
REMARK                         _______ _______ _______ _____ _____    ______ ____
ROOT
ATOM      1  N   UNL     1       1.690   8.216  19.137  0.00  0.00    +0.000 N 
ATOM      2  C   UNL     1       2.017   8.082  17.700  0.00  0.00    +0.000 C 
ATOM      3  C   UNL     1       3.432   7.492  17.523  0.00  0.00    +0.000 C 
ATOM      4  N   UNL     1       3.531   6.214  18.232  0.00  0.00    +0.000 N 
ATOM      5  C   UNL     1       4.364   5.213  17.793  0.00  0.00    +0.000 C 
ATOM      6  N   UNL     1       5.619   5.191  17.484  0.00  0.00    +0.000 NA
ATOM      7  N   UNL     1       3.610   4.071  17.679  0.00  0.00    +0.000 N 
ATOM      8  C   UNL     1       3.185   6.302  19.671  0.00  0.00    +0.000 C 
ATOM      9  C   UNL     1       1.805   6.955  19.893  0.00  0.00    +0.000 C 
ATOM     10  H   UNL     1       2.865   4.196  17.006  0.00  0.00    +0.000 HD
ENDROOT
BRANCH   1  14
ATOM     11  C   UNL     1       0.577  11.930  20.831  0.00  0.00    +0.000 A 
ATOM     12  C   UNL     1       0.471  10.751  21.563  0.00  0.00    +0.000 A 
ATOM     13  C   UNL     1       0.871   9.537  20.994  0.00  0.00    +0.000 A 
ATOM     14  C   UNL     1       1.353   9.434  19.685  0.00  0.00    +0.000 A 
ATOM     15  C   UNL     1       1.451  10.644  18.966  0.00  0.00    +0.000 A 
ATOM     16  C   UNL     1       1.071  11.878  19.527  0.00  0.00    +0.000 A 
BRANCH  11  18
ATOM     17  C   UNL     1      -0.844  13.121  22.606  0.00  0.00    +0.000 C 
ATOM     18  C   UNL     1       0.156  13.197  21.487  0.00  0.00    +0.000 C 
ATOM     19  O   UNL     1       0.599  14.268  21.086  0.00  0.00    +0.000 OA
ENDBRANCH  11  18
ENDBRANCH   1  14
BRANCH   6  20
ATOM     20  C   UNL     1       6.545   6.230  17.635  0.00  0.00    +0.000 A 
ATOM     21  C   UNL     1       6.457   7.450  16.970  0.00  0.00    +0.000 A 
ATOM     22  C   UNL     1       7.302   8.518  17.271  0.00  0.00    +0.000 A 
ATOM     23  C   UNL     1       8.225   8.412  18.309  0.00  0.00    +0.000 A 
ATOM     24  C   UNL     1       8.328   7.203  19.005  0.00  0.00    +0.000 A 
ATOM     25  C   UNL     1       7.500   6.120  18.652  0.00  0.00    +0.000 A 
BRANCH  23  26
ATOM     26  C   UNL     1       8.964   9.654  18.670  0.00  0.00    +0.000 C 
ATOM     27  O   UNL     1       9.200  10.539  17.862  0.00  0.00    +0.000 OA
BRANCH  26  28
ATOM     28  O   UNL     1       9.374   9.718  19.955  0.00  0.00    +0.000 OA
ATOM     29  H   UNL     1      10.256   9.354  20.127  0.00  0.00    +0.000 HD
ENDBRANCH  26  28
ENDBRANCH  23  26
ENDBRANCH   6  20
BRANCH   7  30
ATOM     30  C   UNL     1       4.212   2.746  17.634  0.00  0.00    +0.000 C 
BRANCH  30  31
ATOM     31  C   UNL     1       3.611   1.823  18.710  0.00  0.00    +0.000 C 
ATOM     32  C   UNL     1       4.080   2.144  20.130  0.00  0.00    +0.000 C 
ATOM     33  C   UNL     1       2.933   2.921  20.720  0.00  0.00    +0.000 C 
ATOM     34  C   UNL     1       1.742   2.304  20.028  0.00  0.00    +0.000 C 
ATOM     35  O   UNL     1       2.174   1.971  18.706  0.00  0.00    +0.000 OA
ENDBRANCH  30  31
ENDBRANCH   7  30
TORSDOF 7
ENDMDL
MODEL 7
REMARK VINA RESULT:      -7.1      7.083     10.423
REMARK  Name = 
REMARK  8 active torsions:
REMARK  status: ('A' for Active; 'I' for Inactive)
REMARK    1  A    between atoms: C_1  and  C_2
REMARK    2  A    between atoms: C_2  and  C_4
REMARK    3  A    between atoms: C_7  and  N_8
REMARK    4  A    between atoms: N_13  and  C_14
REMARK    5  A    between atoms: C_17  and  C_18
REMARK    6  A    between atoms: C_18  and  O_20
REMARK    7  A    between atoms: N_23  and  C_24
REMARK    8  A    between atoms: C_24  and  C_25
REMARK                            x       y       z     vdW  Elec       q    Type
REMARK                         _______ _______ _______ _____ _____    ______ ____
ROOT
ATOM      1  N   UNL     1       6.149  16.114  18.861  0.00  0.00    +0.000 N 
ATOM      2  C   UNL     1       6.921  16.875  19.867  0.00  0.00    +0.000 C 
ATOM      3  C   UNL     1       7.723  15.914  20.770  0.00  0.00    +0.000 C 
ATOM      4  N   UNL     1       8.583  15.059  19.948  0.00  0.00    +0.000 N 
ATOM      5  C   UNL     1       9.781  14.581  20.419  0.00  0.00    +0.000 C 
ATOM      6  N   UNL     1      10.108  13.950  21.499  0.00  0.00    +0.000 NA
ATOM      7  N   UNL     1      10.746  14.909  19.499  0.00  0.00    +0.000 N 
ATOM      8  C   UNL     1       7.847  14.298  18.909  0.00  0.00    +0.000 C 
ATOM      9  C   UNL     1       6.975  15.217  18.030  0.00  0.00    +0.000 C 
ATOM     10  H   UNL     1      10.814  15.913  19.390  0.00  0.00    +0.000 HD
ENDROOT
BRANCH   1  14
ATOM     11  C   UNL     1       1.951  16.506  18.507  0.00  0.00    +0.000 A 
ATOM     12  C   UNL     1       2.675  15.737  17.600  0.00  0.00    +0.000 A 
ATOM     13  C   UNL     1       4.059  15.596  17.752  0.00  0.00    +0.000 A 
ATOM     14  C   UNL     1       4.779  16.230  18.770  0.00  0.00    +0.000 A 
ATOM     15  C   UNL     1       4.021  17.002  19.675  0.00  0.00    +0.000 A 
ATOM     16  C   UNL     1       2.626  17.140  19.550  0.00  0.00    +0.000 A 
BRANCH  11  18
ATOM     17  C   UNL     1      -0.067  17.838  17.645  0.00  0.00    +0.000 C 
ATOM     18  C   UNL     1       0.480  16.608  18.313  0.00  0.00    +0.000 C 
ATOM     19  O   UNL     1      -0.254  15.716  18.726  0.00  0.00    +0.000 OA
ENDBRANCH  11  18
ENDBRANCH   1  14
BRANCH   6  20
ATOM     20  C   UNL     1       9.245  13.456  22.484  0.00  0.00    +0.000 A 
ATOM     21  C   UNL     1       8.795  14.205  23.568  0.00  0.00    +0.000 A 
ATOM     22  C   UNL     1       7.809  13.734  24.434  0.00  0.00    +0.000 A 
ATOM     23  C   UNL     1       7.188  12.511  24.192  0.00  0.00    +0.000 A 
ATOM     24  C   UNL     1       7.608  11.741  23.101  0.00  0.00    +0.000 A 
ATOM     25  C   UNL     1       8.641  12.211  22.269  0.00  0.00    +0.000 A 
BRANCH  23  26
ATOM     26  C   UNL     1       6.032  12.168  25.065  0.00  0.00    +0.000 C 
ATOM     27  O   UNL     1       5.181  12.985  25.382  0.00  0.00    +0.000 OA
BRANCH  26  28
ATOM     28  O   UNL     1       6.007  10.890  25.500  0.00  0.00    +0.000 OA
ATOM     29  H   UNL     1       6.561  10.271  24.999  0.00  0.00    +0.000 HD
ENDBRANCH  26  28
ENDBRANCH  23  26
ENDBRANCH   6  20
BRANCH   7  30
ATOM     30  C   UNL     1      12.036  14.236  19.454  0.00  0.00    +0.000 C 
BRANCH  30  31
ATOM     31  C   UNL     1      12.014  13.052  18.471  0.00  0.00    +0.000 C 
ATOM     32  C   UNL     1      11.999  11.684  19.155  0.00  0.00    +0.000 C 
ATOM     33  C   UNL     1      10.556  11.261  19.079  0.00  0.00    +0.000 C 
ATOM     34  C   UNL     1      10.108  11.889  17.781  0.00  0.00    +0.000 C 
ATOM     35  O   UNL     1      10.815  13.127  17.671  0.00  0.00    +0.000 OA
ENDBRANCH  30  31
ENDBRANCH   7  30
TORSDOF 7
ENDMDL
MODEL 8
REMARK VINA RESULT:      -7.1      3.409      6.154
REMARK  Name = 
REMARK  8 active torsions:
REMARK  status: ('A' for Active; 'I' for Inactive)
REMARK    1  A    between atoms: C_1  and  C_2
REMARK    2  A    between atoms: C_2  and  C_4
REMARK    3  A    between atoms: C_7  and  N_8
REMARK    4  A    between atoms: N_13  and  C_14
REMARK    5  A    between atoms: C_17  and  C_18
REMARK    6  A    between atoms: C_18  and  O_20
REMARK    7  A    between atoms: N_23  and  C_24
REMARK    8  A    between atoms: C_24  and  C_25
REMARK                            x       y       z     vdW  Elec       q    Type
REMARK                         _______ _______ _______ _____ _____    ______ ____
ROOT
ATOM      1  N   UNL     1       1.392   8.300  20.345  0.00  0.00    +0.000 N 
ATOM      2  C   UNL     1       1.711   9.548  19.617  0.00  0.00    +0.000 C 
ATOM      3  C   UNL     1       0.416  10.241  19.145  0.00  0.00    +0.000 C 
ATOM      4  N   UNL     1      -0.466  10.482  20.290  0.00  0.00    +0.000 N 
ATOM      5  C   UNL     1      -1.330  11.550  20.318  0.00  0.00    +0.000 C 
ATOM      6  N   UNL     1      -2.220  11.979  19.483  0.00  0.00    +0.000 NA
ATOM      7  N   UNL     1      -1.105  12.231  21.488  0.00  0.00    +0.000 N 
ATOM      8  C   UNL     1      -0.789   9.257  21.061  0.00  0.00    +0.000 C 
ATOM      9  C   UNL     1       0.481   8.495  21.490  0.00  0.00    +0.000 C 
ATOM     10  H   UNL     1      -0.154  12.578  21.528  0.00  0.00    +0.000 HD
ENDROOT
BRANCH   1  14
ATOM     11  C   UNL     1       2.963   4.558  19.148  0.00  0.00    +0.000 A 
ATOM     12  C   UNL     1       2.257   4.688  20.341  0.00  0.00    +0.000 A 
ATOM     13  C   UNL     1       1.721   5.928  20.705  0.00  0.00    +0.000 A 
ATOM     14  C   UNL     1       1.888   7.083  19.933  0.00  0.00    +0.000 A 
ATOM     15  C   UNL     1       2.606   6.923  18.730  0.00  0.00    +0.000 A 
ATOM     16  C   UNL     1       3.136   5.680  18.337  0.00  0.00    +0.000 A 
BRANCH  11  18
ATOM     17  C   UNL     1       2.925   2.512  17.599  0.00  0.00    +0.000 C 
ATOM     18  C   UNL     1       3.496   3.215  18.798  0.00  0.00    +0.000 C 
ATOM     19  O   UNL     1       4.356   2.696  19.503  0.00  0.00    +0.000 OA
ENDBRANCH  11  18
ENDBRANCH   1  14
BRANCH   6  20
ATOM     20  C   UNL     1      -2.641  11.356  18.303  0.00  0.00    +0.000 A 
ATOM     21  C   UNL     1      -3.805  11.697  17.618  0.00  0.00    +0.000 A 
ATOM     22  C   UNL     1      -4.105  11.170  16.362  0.00  0.00    +0.000 A 
ATOM     23  C   UNL     1      -3.199  10.329  15.719  0.00  0.00    +0.000 A 
ATOM     24  C   UNL     1      -2.013   9.980  16.375  0.00  0.00    +0.000 A 
ATOM     25  C   UNL     1      -1.753  10.481  17.665  0.00  0.00    +0.000 A 
BRANCH  23  26
ATOM     26  C   UNL     1      -3.523   9.954  14.315  0.00  0.00    +0.000 C 
ATOM     27  O   UNL     1      -4.667   9.757  13.933  0.00  0.00    +0.000 OA
BRANCH  26  28
ATOM     28  O   UNL     1      -2.455   9.824  13.500  0.00  0.00    +0.000 OA
ATOM     29  H   UNL     1      -2.053  10.658  13.209  0.00  0.00    +0.000 HD
ENDBRANCH  26  28
ENDBRANCH  23  26
ENDBRANCH   6  20
BRANCH   7  30
ATOM     30  C   UNL     1      -2.079  13.158  22.047  0.00  0.00    +0.000 C 
BRANCH  30  31
ATOM     31  C   UNL     1      -3.147  12.416  22.871  0.00  0.00    +0.000 C 
ATOM     32  C   UNL     1      -3.506  13.112  24.185  0.00  0.00    +0.000 C 
ATOM     33  C   UNL     1      -4.800  13.816  23.876  0.00  0.00    +0.000 C 
ATOM     34  C   UNL     1      -5.436  12.886  22.872  0.00  0.00    +0.000 C 
ATOM     35  O   UNL     1      -4.365  12.338  22.099  0.00  0.00    +0.000 OA
ENDBRANCH  30  31
ENDBRANCH   7  30
TORSDOF 7
ENDMDL
MODEL 9
REMARK VINA RESULT:      -7.1      3.320      7.886
REMARK  Name = 
REMARK  8 active torsions:
REMARK  status: ('A' for Active; 'I' for Inactive)
REMARK    1  A    between atoms: C_1  and  C_2
REMARK    2  A    between atoms: C_2  and  C_4
REMARK    3  A    between atoms: C_7  and  N_8
REMARK    4  A    between atoms: N_13  and  C_14
REMARK    5  A    between atoms: C_17  and  C_18
REMARK    6  A    between atoms: C_18  and  O_20
REMARK    7  A    between atoms: N_23  and  C_24
REMARK    8  A    between atoms: C_24  and  C_25
REMARK                            x       y       z     vdW  Elec       q    Type
REMARK                         _______ _______ _______ _____ _____    ______ ____
ROOT
ATOM      1  N   UNL     1       3.434  14.596  19.210  0.00  0.00    +0.000 N 
ATOM      2  C   UNL     1       2.788  14.107  17.972  0.00  0.00    +0.000 C 
ATOM      3  C   UNL     1       2.059  12.773  18.235  0.00  0.00    +0.000 C 
ATOM      4  N   UNL     1       1.098  12.938  19.329  0.00  0.00    +0.000 N 
ATOM      5  C   UNL     1      -0.056  12.196  19.387  0.00  0.00    +0.000 C 
ATOM      6  N   UNL     1      -0.286  10.926  19.314  0.00  0.00    +0.000 NA
ATOM      7  N   UNL     1      -1.102  13.074  19.529  0.00  0.00    +0.000 N 
ATOM      8  C   UNL     1       1.704  13.451  20.581  0.00  0.00    +0.000 C 
ATOM      9  C   UNL     1       2.504  14.748  20.345  0.00  0.00    +0.000 C 
ATOM     10  H   UNL     1      -1.156  13.703  18.737  0.00  0.00    +0.000 HD
ENDROOT
BRANCH   1  14
ATOM     11  C   UNL     1       7.582  15.408  19.410  0.00  0.00    +0.000 A 
ATOM     12  C   UNL     1       6.792  15.437  20.556  0.00  0.00    +0.000 A 
ATOM     13  C   UNL     1       5.428  15.138  20.473  0.00  0.00    +0.000 A 
ATOM     14  C   UNL     1       4.789  14.835  19.265  0.00  0.00    +0.000 A 
ATOM     15  C   UNL     1       5.613  14.811  18.121  0.00  0.00    +0.000 A 
ATOM     16  C   UNL     1       6.990  15.091  18.187  0.00  0.00    +0.000 A 
BRANCH  11  18
ATOM     17  C   UNL     1       9.898  15.646  18.331  0.00  0.00    +0.000 C 
ATOM     18  C   UNL     1       9.029  15.715  19.555  0.00  0.00    +0.000 C 
ATOM     19  O   UNL     1       9.489  15.982  20.660  0.00  0.00    +0.000 OA
ENDBRANCH  11  18
ENDBRANCH   1  14
BRANCH   6  20
ATOM     20  C   UNL     1       0.661   9.897  19.269  0.00  0.00    +0.000 A 
ATOM     21  C   UNL     1       0.974   9.082  20.354  0.00  0.00    +0.000 A 
ATOM     22  C   UNL     1       1.799   7.965  20.226  0.00  0.00    +0.000 A 
ATOM     23  C   UNL     1       2.283   7.589  18.975  0.00  0.00    +0.000 A 
ATOM     24  C   UNL     1       1.974   8.380  17.862  0.00  0.00    +0.000 A 
ATOM     25  C   UNL     1       1.182   9.533  18.021  0.00  0.00    +0.000 A 
BRANCH  23  26
ATOM     26  C   UNL     1       3.011   6.292  18.906  0.00  0.00    +0.000 C 
ATOM     27  O   UNL     1       3.162   5.676  17.862  0.00  0.00    +0.000 OA
BRANCH  26  28
ATOM     28  O   UNL     1       3.472   5.836  20.090  0.00  0.00    +0.000 OA
ATOM     29  H   UNL     1       2.831   5.851  20.818  0.00  0.00    +0.000 HD
ENDBRANCH  26  28
ENDBRANCH  23  26
ENDBRANCH   6  20
BRANCH   7  30
ATOM     30  C   UNL     1      -2.407  12.654  20.020  0.00  0.00    +0.000 C 
BRANCH  30  31
ATOM     31  C   UNL     1      -2.672  13.197  21.436  0.00  0.00    +0.000 C 
ATOM     32  C   UNL     1      -2.572  12.134  22.532  0.00  0.00    +0.000 C 
ATOM     33  C   UNL     1      -1.208  12.360  23.128  0.00  0.00    +0.000 C 
ATOM     34  C   UNL     1      -1.036  13.851  22.972  0.00  0.00    +0.000 C 
ATOM     35  O   UNL     1      -1.683  14.203  21.746  0.00  0.00    +0.000 OA
ENDBRANCH  30  31
ENDBRANCH   7  30
TORSDOF 7
ENDMDL
