MODEL 1
REMARK VINA RESULT:      -8.4      0.000      0.000
REMARK  Name = 
REMARK  5 active torsions:
REMARK  status: ('A' for Active; 'I' for Inactive)
REMARK    1  A    between atoms: C_2  and  C_3
REMARK    2  A    between atoms: C_6  and  O_7
REMARK    3  A    between atoms: O_7  and  C_8
REMARK    4  A    between atoms: C_16  and  N_17
REMARK    5  A    between atoms: C_21  and  N_22
REMARK                            x       y       z     vdW  Elec       q    Type
REMARK                         _______ _______ _______ _____ _____    ______ ____
ROOT
ATOM      1  C   UNL     1       2.150   6.357  18.718  0.00  0.00    +0.000 C 
ATOM      2  C   UNL     1       1.905   5.031  19.427  0.00  0.00    +0.000 A 
ATOM      3  C   UNL     1       1.227   4.726  20.630  0.00  0.00    +0.000 A 
ATOM      4  C   UNL     1       1.321   3.416  21.141  0.00  0.00    +0.000 A 
ATOM      5  C   UNL     1       2.107   2.454  20.479  0.00  0.00    +0.000 A 
ATOM      6  C   UNL     1       2.748   2.778  19.270  0.00  0.00    +0.000 A 
ATOM      7  C   UNL     1       2.597   4.071  18.748  0.00  0.00    +0.000 A 
ATOM      8  C   UNL     1       3.160   4.659  17.480  0.00  0.00    +0.000 C 
ATOM      9  C   UNL     1       3.585   6.127  17.888  0.00  0.00    +0.000 C 
ENDROOT
BRANCH   9  10
ATOM     10  N   UNL     1       5.139   6.023  17.944  0.00  0.00    +0.000 NA
ATOM     11  C   UNL     1       5.819   6.664  16.820  0.00  0.00    +0.000 C 
ATOM     12  C   UNL     1       5.796   5.652  15.640  0.00  0.00    +0.000 C 
ATOM     13  C   UNL     1       7.063   4.894  15.826  0.00  0.00    +0.000 C 
ATOM     14  C   UNL     1       7.037   4.235  17.259  0.00  0.00    +0.000 C 
ATOM     15  C   UNL     1       6.125   4.955  18.403  0.00  0.00    +0.000 C 
BRANCH  14  16
ATOM     16  N   UNL     1       8.451   4.110  17.681  0.00  0.00    +0.000 NA
ATOM     17  H   UNL     1       8.847   5.074  17.822  0.00  0.00    +0.000 HD
ATOM     18  H   UNL     1       9.023   3.703  16.901  0.00  0.00    +0.000 HD
ENDBRANCH  14  16
ENDBRANCH   9  10
BRANCH   1  19
ATOM     19  O   UNL     1       2.086   7.403  19.638  0.00  0.00    +0.000 OA
BRANCH  19  23
ATOM     20  C   UNL     1       0.714  11.246  18.936  0.00  0.00    +0.000 A 
ATOM     21  C   UNL     1       1.452  10.613  17.936  0.00  0.00    +0.000 A 
ATOM     22  C   UNL     1       1.915   9.305  18.146  0.00  0.00    +0.000 A 
ATOM     23  C   UNL     1       1.643   8.651  19.358  0.00  0.00    +0.000 A 
ATOM     24  C   UNL     1       0.885   9.296  20.342  0.00  0.00    +0.000 A 
ATOM     25 CL   UNL     1       0.522   8.480  21.852  0.00  0.00    +0.000 Cl
ATOM     26  C   UNL     1       0.433  10.579  20.138  0.00  0.00    +0.000 A 
BRANCH  20  28
ATOM     27  N   UNL     1      -0.081  13.696  18.561  0.00  0.00    +0.000 NA
ATOM     28  C   UNL     1       0.253  12.596  18.732  0.00  0.00    +0.000 C 
ENDBRANCH  20  28
ENDBRANCH  19  23
ENDBRANCH   1  19
TORSDOF 5
ENDMDL
MODEL 2
REMARK VINA RESULT:      -8.4      1.716      2.236
REMARK  Name = 
REMARK  5 active torsions:
REMARK  status: ('A' for Active; 'I' for Inactive)
REMARK    1  A    between atoms: C_2  and  C_3
REMARK    2  A    between atoms: C_6  and  O_7
REMARK    3  A    between atoms: O_7  and  C_8
REMARK    4  A    between atoms: C_16  and  N_17
REMARK    5  A    between atoms: C_21  and  N_22
REMARK                            x       y       z     vdW  Elec       q    Type
REMARK                         _______ _______ _______ _____ _____    ______ ____
ROOT
ATOM      1  C   UNL     1       2.130   5.673  18.802  0.00  0.00    +0.000 C 
ATOM      2  C   UNL     1       1.948   4.483  19.735  0.00  0.00    +0.000 A 
ATOM      3  C   UNL     1       1.753   4.412  21.133  0.00  0.00    +0.000 A 
ATOM      4  C   UNL     1       1.802   3.149  21.755  0.00  0.00    +0.000 A 
ATOM      5  C   UNL     1       2.076   1.997  20.996  0.00  0.00    +0.000 A 
ATOM      6  C   UNL     1       2.239   2.093  19.602  0.00  0.00    +0.000 A 
ATOM      7  C   UNL     1       2.132   3.352  18.993  0.00  0.00    +0.000 A 
ATOM      8  C   UNL     1       2.249   3.719  17.536  0.00  0.00    +0.000 C 
ATOM      9  C   UNL     1       3.057   5.079  17.542  0.00  0.00    +0.000 C 
ENDROOT
BRANCH   9  10
ATOM     10  N   UNL     1       4.462   4.635  17.033  0.00  0.00    +0.000 NA
ATOM     11  C   UNL     1       5.506   4.677  18.054  0.00  0.00    +0.000 C 
ATOM     12  C   UNL     1       6.002   6.149  18.135  0.00  0.00    +0.000 C 
ATOM     13  C   UNL     1       7.121   6.178  17.154  0.00  0.00    +0.000 C 
ATOM     14  C   UNL     1       6.552   5.751  15.746  0.00  0.00    +0.000 C 
ATOM     15  C   UNL     1       5.227   4.800  15.725  0.00  0.00    +0.000 C 
BRANCH  14  16
ATOM     16  N   UNL     1       7.683   5.135  15.014  0.00  0.00    +0.000 NA
ATOM     17  H   UNL     1       7.560   5.321  13.986  0.00  0.00    +0.000 HD
ATOM     18  H   UNL     1       7.638   4.090  15.099  0.00  0.00    +0.000 HD
ENDBRANCH  14  16
ENDBRANCH   9  10
BRANCH   1  19
ATOM     19  O   UNL     1       2.623   6.764  19.520  0.00  0.00    +0.000 OA
BRANCH  19  23
ATOM     20  C   UNL     1       0.308   9.996  20.675  0.00  0.00    +0.000 A 
ATOM     21  C   UNL     1       0.518   8.969  21.594  0.00  0.00    +0.000 A 
ATOM     22  C   UNL     1       1.310   7.870  21.231  0.00  0.00    +0.000 A 
ATOM     23  C   UNL     1       1.875   7.808  19.947  0.00  0.00    +0.000 A 
ATOM     24  C   UNL     1       1.670   8.858  19.044  0.00  0.00    +0.000 A 
ATOM     25 CL   UNL     1       2.387   8.799  17.445  0.00  0.00    +0.000 Cl
ATOM     26  C   UNL     1       0.890   9.934  19.400  0.00  0.00    +0.000 A 
BRANCH  20  28
ATOM     27  N   UNL     1      -1.213  11.996  21.353  0.00  0.00    +0.000 NA
ATOM     28  C   UNL     1      -0.520  11.117  21.039  0.00  0.00    +0.000 C 
ENDBRANCH  20  28
ENDBRANCH  19  23
ENDBRANCH   1  19
TORSDOF 5
ENDMDL
MODEL 3
REMARK VINA RESULT:      -8.4      1.325      1.720
REMARK  Name = 
REMARK  5 active torsions:
REMARK  status: ('A' for Active; 'I' for Inactive)
REMARK    1  A    between atoms: C_2  and  C_3
REMARK    2  A    between atoms: C_6  and  O_7
REMARK    3  A    between atoms: O_7  and  C_8
REMARK    4  A    between atoms: C_16  and  N_17
REMARK    5  A    between atoms: C_21  and  N_22
REMARK                            x       y       z     vdW  Elec       q    Type
REMARK                         _______ _______ _______ _____ _____    ______ ____
ROOT
ATOM      1  C   UNL     1       2.193   6.470  19.044  0.00  0.00    +0.000 C 
ATOM      2  C   UNL     1       1.941   5.086  19.629  0.00  0.00    +0.000 A 
ATOM      3  C   UNL     1       1.353   4.680  20.849  0.00  0.00    +0.000 A 
ATOM      4  C   UNL     1       1.422   3.319  21.207  0.00  0.00    +0.000 A 
ATOM      5  C   UNL     1       2.096   2.403  20.379  0.00  0.00    +0.000 A 
ATOM      6  C   UNL     1       2.648   2.831  19.157  0.00  0.00    +0.000 A 
ATOM      7  C   UNL     1       2.521   4.179  18.792  0.00  0.00    +0.000 A 
ATOM      8  C   UNL     1       3.003   4.878  17.547  0.00  0.00    +0.000 C 
ATOM      9  C   UNL     1       3.537   6.272  18.068  0.00  0.00    +0.000 C 
ENDROOT
BRANCH   9  10
ATOM     10  N   UNL     1       5.083   6.097  17.970  0.00  0.00    +0.000 NA
ATOM     11  C   UNL     1       5.695   6.816  16.856  0.00  0.00    +0.000 C 
ATOM     12  C   UNL     1       5.516   5.929  15.591  0.00  0.00    +0.000 C 
ATOM     13  C   UNL     1       6.754   5.102  15.587  0.00  0.00    +0.000 C 
ATOM     14  C   UNL     1       6.819   4.305  16.948  0.00  0.00    +0.000 C 
ATOM     15  C   UNL     1       6.048   4.946  18.234  0.00  0.00    +0.000 C 
BRANCH  14  16
ATOM     16  N   UNL     1       8.256   4.078  17.224  0.00  0.00    +0.000 NA
ATOM     17  H   UNL     1       8.526   4.631  18.076  0.00  0.00    +0.000 HD
ATOM     18  H   UNL     1       8.838   4.485  16.451  0.00  0.00    +0.000 HD
ENDBRANCH  14  16
ENDBRANCH   9  10
BRANCH   1  19
ATOM     19  O   UNL     1       2.263   7.411  20.072  0.00  0.00    +0.000 OA
BRANCH  19  23
ATOM     20  C   UNL     1      -0.448  10.512  20.487  0.00  0.00    +0.000 A 
ATOM     21  C   UNL     1      -0.336   9.587  21.524  0.00  0.00    +0.000 A 
ATOM     22  C   UNL     1       0.586   8.536  21.412  0.00  0.00    +0.000 A 
ATOM     23  C   UNL     1       1.377   8.417  20.259  0.00  0.00    +0.000 A 
ATOM     24  C   UNL     1       1.264   9.367  19.237  0.00  0.00    +0.000 A 
ATOM     25 CL   UNL     1       2.263   9.240  17.800  0.00  0.00    +0.000 Cl
ATOM     26  C   UNL     1       0.358  10.397  19.345  0.00  0.00    +0.000 A 
BRANCH  20  28
ATOM     27  N   UNL     1      -2.204  12.422  20.698  0.00  0.00    +0.000 NA
ATOM     28  C   UNL     1      -1.407  11.583  20.591  0.00  0.00    +0.000 C 
ENDBRANCH  20  28
ENDBRANCH  19  23
ENDBRANCH   1  19
TORSDOF 5
ENDMDL
MODEL 4
REMARK VINA RESULT:      -8.3      1.124      1.471
REMARK  Name = 
REMARK  5 active torsions:
REMARK  status: ('A' for Active; 'I' for Inactive)
REMARK    1  A    between atoms: C_2  and  C_3
REMARK    2  A    between atoms: C_6  and  O_7
REMARK    3  A    between atoms: O_7  and  C_8
REMARK    4  A    between atoms: C_16  and  N_17
REMARK    5  A    between atoms: C_21  and  N_22
REMARK                            x       y       z     vdW  Elec       q    Type
REMARK                         _______ _______ _______ _____ _____    ______ ____
ROOT
ATOM      1  C   UNL     1       2.117   5.650  18.686  0.00  0.00    +0.000 C 
ATOM      2  C   UNL     1       2.008   4.522  19.703  0.00  0.00    +0.000 A 
ATOM      3  C   UNL     1       1.866   4.542  21.110  0.00  0.00    +0.000 A 
ATOM      4  C   UNL     1       1.979   3.326  21.813  0.00  0.00    +0.000 A 
ATOM      5  C   UNL     1       2.264   2.134  21.123  0.00  0.00    +0.000 A 
ATOM      6  C   UNL     1       2.374   2.139  19.721  0.00  0.00    +0.000 A 
ATOM      7  C   UNL     1       2.203   3.349  19.033  0.00  0.00    +0.000 A 
ATOM      8  C   UNL     1       2.255   3.619  17.551  0.00  0.00    +0.000 C 
ATOM      9  C   UNL     1       3.017   4.999  17.435  0.00  0.00    +0.000 C 
ENDROOT
BRANCH   9  10
ATOM     10  N   UNL     1       4.417   4.566  16.903  0.00  0.00    +0.000 NA
ATOM     11  C   UNL     1       5.443   4.470  17.939  0.00  0.00    +0.000 C 
ATOM     12  C   UNL     1       5.982   5.908  18.178  0.00  0.00    +0.000 C 
ATOM     13  C   UNL     1       7.119   6.002  17.221  0.00  0.00    +0.000 C 
ATOM     14  C   UNL     1       6.563   5.739  15.768  0.00  0.00    +0.000 C 
ATOM     15  C   UNL     1       5.210   4.838  15.630  0.00  0.00    +0.000 C 
BRANCH  14  16
ATOM     16  N   UNL     1       7.687   5.166  14.994  0.00  0.00    +0.000 NA
ATOM     17  H   UNL     1       8.491   5.844  15.015  0.00  0.00    +0.000 HD
ATOM     18  H   UNL     1       7.427   5.099  13.979  0.00  0.00    +0.000 HD
ENDBRANCH  14  16
ENDBRANCH   9  10
BRANCH   1  19
ATOM     19  O   UNL     1       2.598   6.802  19.309  0.00  0.00    +0.000 OA
BRANCH  19  23
ATOM     20  C   UNL     1       1.123  10.639  18.815  0.00  0.00    +0.000 A 
ATOM     21  C   UNL     1       1.876  10.081  17.783  0.00  0.00    +0.000 A 
ATOM     22  C   UNL     1       2.375   8.777  17.921  0.00  0.00    +0.000 A 
ATOM     23  C   UNL     1       2.122   8.051  19.096  0.00  0.00    +0.000 A 
ATOM     24  C   UNL     1       1.347   8.621  20.113  0.00  0.00    +0.000 A 
ATOM     25 CL   UNL     1       1.009   7.715  21.577  0.00  0.00    +0.000 Cl
ATOM     26  C   UNL     1       0.861   9.901  19.979  0.00  0.00    +0.000 A 
BRANCH  20  28
ATOM     27  N   UNL     1       0.207  13.060  18.542  0.00  0.00    +0.000 NA
ATOM     28  C   UNL     1       0.626  11.985  18.683  0.00  0.00    +0.000 C 
ENDBRANCH  20  28
ENDBRANCH  19  23
ENDBRANCH   1  19
TORSDOF 5
ENDMDL
MODEL 5
REMARK VINA RESULT:      -7.1      2.958      8.122
REMARK  Name = 
REMARK  5 active torsions:
REMARK  status: ('A' for Active; 'I' for Inactive)
REMARK    1  A    between atoms: C_2  and  C_3
REMARK    2  A    between atoms: C_6  and  O_7
REMARK    3  A    between atoms: O_7  and  C_8
REMARK    4  A    between atoms: C_16  and  N_17
REMARK    5  A    between atoms: C_21  and  N_22
REMARK                            x       y       z     vdW  Elec       q    Type
REMARK                         _______ _______ _______ _____ _____    ______ ____
ROOT
ATOM      1  C   UNL     1       0.542   9.570  19.229  0.00  0.00    +0.000 C 
ATOM      2  C   UNL     1       0.306   9.864  20.705  0.00  0.00    +0.000 A 
ATOM      3  C   UNL     1       0.726   9.185  21.872  0.00  0.00    +0.000 A 
ATOM      4  C   UNL     1       0.195   9.591  23.112  0.00  0.00    +0.000 A 
ATOM      5  C   UNL     1      -0.758  10.624  23.169  0.00  0.00    +0.000 A 
ATOM      6  C   UNL     1      -1.137  11.300  21.995  0.00  0.00    +0.000 A 
ATOM      7  C   UNL     1      -0.556  10.919  20.777  0.00  0.00    +0.000 A 
ATOM      8  C   UNL     1      -0.776  11.485  19.398  0.00  0.00    +0.000 C 
ATOM      9  C   UNL     1      -0.794  10.215  18.456  0.00  0.00    +0.000 C 
ENDROOT
BRANCH   9  10
ATOM     10  N   UNL     1      -2.307  10.082  18.103  0.00  0.00    +0.000 NA
ATOM     11  C   UNL     1      -2.563   9.459  16.807  0.00  0.00    +0.000 C 
ATOM     12  C   UNL     1      -2.413  10.572  15.731  0.00  0.00    +0.000 C 
ATOM     13  C   UNL     1      -3.795  11.113  15.616  0.00  0.00    +0.000 C 
ATOM     14  C   UNL     1      -4.243  11.627  17.039  0.00  0.00    +0.000 C 
ATOM     15  C   UNL     1      -3.542  10.943  18.343  0.00  0.00    +0.000 C 
BRANCH  14  16
ATOM     16  N   UNL     1      -5.718  11.500  17.077  0.00  0.00    +0.000 NA
ATOM     17  H   UNL     1      -6.130  12.137  16.348  0.00  0.00    +0.000 HD
ATOM     18  H   UNL     1      -6.086  11.870  17.987  0.00  0.00    +0.000 HD
ENDBRANCH  14  16
ENDBRANCH   9  10
BRANCH   1  19
ATOM     19  O   UNL     1       0.806   8.211  19.055  0.00  0.00    +0.000 OA
BRANCH  19  23
ATOM     20  C   UNL     1       4.414   6.509  17.947  0.00  0.00    +0.000 A 
ATOM     21  C   UNL     1       3.984   7.650  17.270  0.00  0.00    +0.000 A 
ATOM     22  C   UNL     1       2.772   8.253  17.637  0.00  0.00    +0.000 A 
ATOM     23  C   UNL     1       1.999   7.700  18.671  0.00  0.00    +0.000 A 
ATOM     24  C   UNL     1       2.456   6.565  19.352  0.00  0.00    +0.000 A 
ATOM     25 CL   UNL     1       1.508   5.878  20.657  0.00  0.00    +0.000 Cl
ATOM     26  C   UNL     1       3.644   5.972  18.989  0.00  0.00    +0.000 A 
BRANCH  20  28
ATOM     27  N   UNL     1       6.637   5.335  17.272  0.00  0.00    +0.000 NA
ATOM     28  C   UNL     1       5.649   5.876  17.560  0.00  0.00    +0.000 C 
ENDBRANCH  20  28
ENDBRANCH  19  23
ENDBRANCH   1  19
TORSDOF 5
ENDMDL
MODEL 6
REMARK VINA RESULT:      -7.0      1.890      4.388
REMARK  Name = 
REMARK  5 active torsions:
REMARK  status: ('A' for Active; 'I' for Inactive)
REMARK    1  A    between atoms: C_2  and  C_3
REMARK    2  A    between atoms: C_6  and  O_7
REMARK    3  A    between atoms: O_7  and  C_8
REMARK    4  A    between atoms: C_16  and  N_17
REMARK    5  A    between atoms: C_21  and  N_22
REMARK                            x       y       z     vdW  Elec       q    Type
REMARK                         _______ _______ _______ _____ _____    ______ ____
ROOT
ATOM      1  C   UNL     1       4.121   6.732  18.403  0.00  0.00    +0.000 C 
ATOM      2  C   UNL     1       4.889   6.142  17.227  0.00  0.00    +0.000 A 
ATOM      3  C   UNL     1       4.773   6.357  15.834  0.00  0.00    +0.000 A 
ATOM      4  C   UNL     1       5.502   5.523  14.963  0.00  0.00    +0.000 A 
ATOM      5  C   UNL     1       6.293   4.481  15.480  0.00  0.00    +0.000 A 
ATOM      6  C   UNL     1       6.411   4.308  16.872  0.00  0.00    +0.000 A 
ATOM      7  C   UNL     1       5.721   5.183  17.723  0.00  0.00    +0.000 A 
ATOM      8  C   UNL     1       5.692   5.221  19.229  0.00  0.00    +0.000 C 
ATOM      9  C   UNL     1       4.184   5.544  19.580  0.00  0.00    +0.000 C 
ENDROOT
BRANCH   9  10
ATOM     10  N   UNL     1       3.659   4.172  20.098  0.00  0.00    +0.000 NA
ATOM     11  C   UNL     1       3.054   3.336  19.063  0.00  0.00    +0.000 C 
ATOM     12  C   UNL     1       1.590   3.827  18.883  0.00  0.00    +0.000 C 
ATOM     13  C   UNL     1       0.835   2.980  19.847  0.00  0.00    +0.000 C 
ATOM     14  C   UNL     1       1.436   3.214  21.286  0.00  0.00    +0.000 C 
ATOM     15  C   UNL     1       2.991   3.697  21.384  0.00  0.00    +0.000 C 
BRANCH  14  16
ATOM     16  N   UNL     1       1.200   1.962  22.041  0.00  0.00    +0.000 NA
ATOM     17  H   UNL     1       1.350   2.152  23.064  0.00  0.00    +0.000 HD
ATOM     18  H   UNL     1       1.934   1.252  21.796  0.00  0.00    +0.000 HD
ENDBRANCH  14  16
ENDBRANCH   9  10
BRANCH   1  19
ATOM     19  O   UNL     1       2.866   7.166  17.978  0.00  0.00    +0.000 OA
BRANCH  19  23
ATOM     20  C   UNL     1       1.069  10.653  19.303  0.00  0.00    +0.000 A 
ATOM     21  C   UNL     1       1.726  10.672  18.073  0.00  0.00    +0.000 A 
ATOM     22  C   UNL     1       2.331   9.499  17.597  0.00  0.00    +0.000 A 
ATOM     23  C   UNL     1       2.278   8.323  18.362  0.00  0.00    +0.000 A 
ATOM     24  C   UNL     1       1.596   8.318  19.585  0.00  0.00    +0.000 A 
ATOM     25 CL   UNL     1       1.508   6.849  20.539  0.00  0.00    +0.000 Cl
ATOM     26  C   UNL     1       1.006   9.469  20.054  0.00  0.00    +0.000 A 
BRANCH  20  28
ATOM     27  N   UNL     1      -0.010  12.827  20.244  0.00  0.00    +0.000 NA
ATOM     28  C   UNL     1       0.463  11.861  19.803  0.00  0.00    +0.000 C 
ENDBRANCH  20  28
ENDBRANCH  19  23
ENDBRANCH   1  19
TORSDOF 5
ENDMDL
MODEL 7
REMARK VINA RESULT:      -6.9      3.032      8.868
REMARK  Name = 
REMARK  5 active torsions:
REMARK  status: ('A' for Active; 'I' for Inactive)
REMARK    1  A    between atoms: C_2  and  C_3
REMARK    2  A    between atoms: C_6  and  O_7
REMARK    3  A    between atoms: O_7  and  C_8
REMARK    4  A    between atoms: C_16  and  N_17
REMARK    5  A    between atoms: C_21  and  N_22
REMARK                            x       y       z     vdW  Elec       q    Type
REMARK                         _______ _______ _______ _____ _____    ______ ____
ROOT
ATOM      1  C   UNL     1       0.590  11.480  19.112  0.00  0.00    +0.000 C 
ATOM      2  C   UNL     1       0.338  12.675  20.023  0.00  0.00    +0.000 A 
ATOM      3  C   UNL     1       0.835  12.991  21.309  0.00  0.00    +0.000 A 
ATOM      4  C   UNL     1       0.276  14.089  21.993  0.00  0.00    +0.000 A 
ATOM      5  C   UNL     1      -0.777  14.821  21.415  0.00  0.00    +0.000 A 
ATOM      6  C   UNL     1      -1.232  14.501  20.123  0.00  0.00    +0.000 A 
ATOM      7  C   UNL     1      -0.626  13.439  19.435  0.00  0.00    +0.000 A 
ATOM      8  C   UNL     1      -0.915  12.911  18.054  0.00  0.00    +0.000 C 
ATOM      9  C   UNL     1      -0.812  11.341  18.210  0.00  0.00    +0.000 C 
ENDROOT
BRANCH   9  10
ATOM     10  N   UNL     1      -2.306  10.900  18.153  0.00  0.00    +0.000 NA
ATOM     11  C   UNL     1      -2.571   9.816  17.209  0.00  0.00    +0.000 C 
ATOM     12  C   UNL     1      -2.710  10.464  15.802  0.00  0.00    +0.000 C 
ATOM     13  C   UNL     1      -4.169  10.747  15.709  0.00  0.00    +0.000 C 
ATOM     14  C   UNL     1      -4.565  11.690  16.911  0.00  0.00    +0.000 C 
ATOM     15  C   UNL     1      -3.642  11.627  18.254  0.00  0.00    +0.000 C 
BRANCH  14  16
ATOM     16  N   UNL     1      -5.988  11.403  17.207  0.00  0.00    +0.000 NA
ATOM     17  H   UNL     1      -6.571  11.716  16.390  0.00  0.00    +0.000 HD
ATOM     18  H   UNL     1      -6.314  12.000  18.007  0.00  0.00    +0.000 HD
ENDBRANCH  14  16
ENDBRANCH   9  10
BRANCH   1  19
ATOM     19  O   UNL     1       0.990  10.382  19.874  0.00  0.00    +0.000 OA
BRANCH  19  23
ATOM     20  C   UNL     1       2.681   6.879  18.456  0.00  0.00    +0.000 A 
ATOM     21  C   UNL     1       2.615   7.977  17.599  0.00  0.00    +0.000 A 
ATOM     22  C   UNL     1       2.059   9.180  18.062  0.00  0.00    +0.000 A 
ATOM     23  C   UNL     1       1.567   9.264  19.374  0.00  0.00    +0.000 A 
ATOM     24  C   UNL     1       1.659   8.157  20.225  0.00  0.00    +0.000 A 
ATOM     25 CL   UNL     1       1.065   8.259  21.872  0.00  0.00    +0.000 Cl
ATOM     26  C   UNL     1       2.202   6.977  19.770  0.00  0.00    +0.000 A 
BRANCH  20  28
ATOM     27  N   UNL     1       3.708   4.637  17.623  0.00  0.00    +0.000 NA
ATOM     28  C   UNL     1       3.235   5.638  17.978  0.00  0.00    +0.000 C 
ENDBRANCH  20  28
ENDBRANCH  19  23
ENDBRANCH   1  19
TORSDOF 5
ENDMDL
MODEL 8
REMARK VINA RESULT:      -6.8      2.913      8.761
REMARK  Name = 
REMARK  5 active torsions:
REMARK  status: ('A' for Active; 'I' for Inactive)
REMARK    1  A    between atoms: C_2  and  C_3
REMARK    2  A    between atoms: C_6  and  O_7
REMARK    3  A    between atoms: O_7  and  C_8
REMARK    4  A    between atoms: C_16  and  N_17
REMARK    5  A    between atoms: C_21  and  N_22
REMARK                            x       y       z     vdW  Elec       q    Type
REMARK                         _______ _______ _______ _____ _____    ______ ____
ROOT
ATOM      1  C   UNL     1      -0.783  10.898  19.403  0.00  0.00    +0.000 C 
ATOM      2  C   UNL     1      -1.776  10.655  18.273  0.00  0.00    +0.000 A 
ATOM      3  C   UNL     1      -1.689   9.857  17.109  0.00  0.00    +0.000 A 
ATOM      4  C   UNL     1      -2.705   9.973  16.139  0.00  0.00    +0.000 A 
ATOM      5  C   UNL     1      -3.755  10.892  16.321  0.00  0.00    +0.000 A 
ATOM      6  C   UNL     1      -3.830  11.653  17.501  0.00  0.00    +0.000 A 
ATOM      7  C   UNL     1      -2.840  11.483  18.480  0.00  0.00    +0.000 A 
ATOM      8  C   UNL     1      -2.701  12.156  19.821  0.00  0.00    +0.000 C 
ATOM      9  C   UNL     1      -1.149  12.434  19.956  0.00  0.00    +0.000 C 
ENDROOT
BRANCH   9  10
ATOM     10  N   UNL     1      -1.064  13.974  19.729  0.00  0.00    +0.000 NA
ATOM     11  C   UNL     1      -0.294  14.359  18.548  0.00  0.00    +0.000 C 
ATOM     12  C   UNL     1       1.206  14.338  18.958  0.00  0.00    +0.000 C 
ATOM     13  C   UNL     1       1.443  15.731  19.426  0.00  0.00    +0.000 C 
ATOM     14  C   UNL     1       0.441  16.031  20.607  0.00  0.00    +0.000 C 
ATOM     15  C   UNL     1      -0.954  15.187  20.645  0.00  0.00    +0.000 C 
BRANCH  14  16
ATOM     16  N   UNL     1       0.200  17.492  20.581  0.00  0.00    +0.000 NA
ATOM     17  H   UNL     1       0.018  17.786  19.587  0.00  0.00    +0.000 HD
ATOM     18  H   UNL     1       1.075  18.005  20.849  0.00  0.00    +0.000 HD
ENDBRANCH  14  16
ENDBRANCH   9  10
BRANCH   1  19
ATOM     19  O   UNL     1       0.514  10.657  18.951  0.00  0.00    +0.000 OA
BRANCH  19  23
ATOM     20  C   UNL     1       2.410   7.005  19.406  0.00  0.00    +0.000 A 
ATOM     21  C   UNL     1       2.398   7.592  18.141  0.00  0.00    +0.000 A 
ATOM     22  C   UNL     1       1.774   8.836  17.965  0.00  0.00    +0.000 A 
ATOM     23  C   UNL     1       1.161   9.472  19.056  0.00  0.00    +0.000 A 
ATOM     24  C   UNL     1       1.200   8.877  20.322  0.00  0.00    +0.000 A 
ATOM     25 CL   UNL     1       0.454   9.673  21.695  0.00  0.00    +0.000 Cl
ATOM     26  C   UNL     1       1.809   7.655  20.494  0.00  0.00    +0.000 A 
BRANCH  20  28
ATOM     27  N   UNL     1       3.511   4.665  19.704  0.00  0.00    +0.000 NA
ATOM     28  C   UNL     1       3.034   5.718  19.586  0.00  0.00    +0.000 C 
ENDBRANCH  20  28
ENDBRANCH  19  23
ENDBRANCH   1  19
TORSDOF 5
ENDMDL
MODEL 9
REMARK VINA RESULT:      -6.7      8.855     10.393
REMARK  Name = 
REMARK  5 active torsions:
REMARK  status: ('A' for Active; 'I' for Inactive)
REMARK    1  A    between atoms: C_2  and  C_3
REMARK    2  A    between atoms: C_6  and  O_7
REMARK    3  A    between atoms: O_7  and  C_8
REMARK    4  A    between atoms: C_16  and  N_17
REMARK    5  A    between atoms: C_21  and  N_22
REMARK                            x       y       z     vdW  Elec       q    Type
REMARK                         _______ _______ _______ _____ _____    ______ ____
ROOT
ATOM      1  C   UNL     1       9.543  15.175  19.556  0.00  0.00    +0.000 C 
ATOM      2  C   UNL     1      10.447  13.995  19.223  0.00  0.00    +0.000 A 
ATOM      3  C   UNL     1      10.982  13.546  17.994  0.00  0.00    +0.000 A 
ATOM      4  C   UNL     1      11.644  12.302  17.964  0.00  0.00    +0.000 A 
ATOM      5  C   UNL     1      11.730  11.519  19.130  0.00  0.00    +0.000 A 
ATOM      6  C   UNL     1      11.213  12.004  20.346  0.00  0.00    +0.000 A 
ATOM      7  C   UNL     1      10.606  13.268  20.366  0.00  0.00    +0.000 A 
ATOM      8  C   UNL     1       9.996  14.013  21.525  0.00  0.00    +0.000 C 
ATOM      9  C   UNL     1       8.700  14.685  20.915  0.00  0.00    +0.000 C 
ENDROOT
BRANCH   9  10
ATOM     10  N   UNL     1       7.556  13.812  21.514  0.00  0.00    +0.000 NA
ATOM     11  C   UNL     1       6.273  14.502  21.620  0.00  0.00    +0.000 C 
ATOM     12  C   UNL     1       6.316  15.341  22.929  0.00  0.00    +0.000 C 
ATOM     13  C   UNL     1       5.764  14.402  23.944  0.00  0.00    +0.000 C 
ATOM     14  C   UNL     1       6.666  13.108  23.960  0.00  0.00    +0.000 C 
ATOM     15  C   UNL     1       7.482  12.740  22.596  0.00  0.00    +0.000 C 
BRANCH  14  16
ATOM     16  N   UNL     1       5.786  11.998  24.391  0.00  0.00    +0.000 NA
ATOM     17  H   UNL     1       5.746  11.988  25.442  0.00  0.00    +0.000 HD
ATOM     18  H   UNL     1       6.221  11.076  24.137  0.00  0.00    +0.000 HD
ENDBRANCH  14  16
ENDBRANCH   9  10
BRANCH   1  19
ATOM     19  O   UNL     1       8.810  15.541  18.427  0.00  0.00    +0.000 OA
BRANCH  19  23
ATOM     20  C   UNL     1       4.689  15.934  18.346  0.00  0.00    +0.000 A 
ATOM     21  C   UNL     1       5.446  16.995  18.841  0.00  0.00    +0.000 A 
ATOM     22  C   UNL     1       6.845  16.891  18.865  0.00  0.00    +0.000 A 
ATOM     23  C   UNL     1       7.469  15.721  18.403  0.00  0.00    +0.000 A 
ATOM     24  C   UNL     1       6.693  14.674  17.892  0.00  0.00    +0.000 A 
ATOM     25 CL   UNL     1       7.463  13.216  17.294  0.00  0.00    +0.000 Cl
ATOM     26  C   UNL     1       5.321  14.775  17.871  0.00  0.00    +0.000 A 
BRANCH  20  28
ATOM     27  N   UNL     1       2.092  16.099  18.289  0.00  0.00    +0.000 NA
ATOM     28  C   UNL     1       3.252  16.030  18.337  0.00  0.00    +0.000 C 
ENDBRANCH  20  28
ENDBRANCH  19  23
ENDBRANCH   1  19
TORSDOF 5
ENDMDL
