MODEL 1
REMARK VINA RESULT:      -7.7      0.000      0.000
REMARK  Name = 
REMARK  4 active torsions:
REMARK  status: ('A' for Active; 'I' for Inactive)
REMARK    1  A    between atoms: C_2  and  C_3
REMARK    2  A    between atoms: C_3  and  N_4
REMARK    3  A    between atoms: C_7  and  N_8
REMARK    4  A    between atoms: C_20  and  C_21
REMARK                            x       y       z     vdW  Elec       q    Type
REMARK                         _______ _______ _______ _____ _____    ______ ____
ROOT
ATOM      1  N   UNL     1       1.041  14.679  20.748  0.00  0.00    +0.000 N 
ATOM      2  C   UNL     1       0.878  16.071  20.772  0.00  0.00    +0.000 A 
ATOM      3  O   UNL     1       1.173  16.887  19.911  0.00  0.00    +0.000 OA
ATOM      4  C   UNL     1       0.304  16.669  22.006  0.00  0.00    +0.000 A 
ATOM      5  N   UNL     1      -0.324  15.992  22.900  0.00  0.00    +0.000 NA
ATOM      6  C   UNL     1      -0.453  14.612  22.681  0.00  0.00    +0.000 A 
ATOM      7  C   UNL     1      -1.247  13.921  23.577  0.00  0.00    +0.000 A 
ATOM      8  N   UNL     1      -1.437  12.592  23.565  0.00  0.00    +0.000 NA
ATOM      9  C   UNL     1      -0.828  11.886  22.616  0.00  0.00    +0.000 A 
ATOM     10  C   UNL     1      -1.029  10.521  22.688  0.00  0.00    +0.000 A 
ATOM     11  C   UNL     1      -0.410   9.642  21.809  0.00  0.00    +0.000 A 
ATOM     12  F   UNL     1      -0.588   8.328  22.010  0.00  0.00    +0.000 F 
ATOM     13  C   UNL     1       0.374  10.107  20.763  0.00  0.00    +0.000 A 
ATOM     14  C   UNL     1       0.442  11.506  20.627  0.00  0.00    +0.000 A 
ATOM     15  C   UNL     1      -0.027  12.452  21.593  0.00  0.00    +0.000 A 
ATOM     16  C   UNL     1       0.196  13.889  21.652  0.00  0.00    +0.000 A 
ENDROOT
BRANCH  13  17
ATOM     17  C   UNL     1       1.162   9.231  19.866  0.00  0.00    +0.000 A 
ATOM     18  C   UNL     1       1.526   9.638  18.579  0.00  0.00    +0.000 A 
ATOM     19  N   UNL     1       2.268   8.924  17.695  0.00  0.00    +0.000 NA
ATOM     20  C   UNL     1       2.731   7.733  18.097  0.00  0.00    +0.000 A 
ATOM     21  C   UNL     1       3.527   6.987  17.239  0.00  0.00    +0.000 A 
ATOM     22  C   UNL     1       4.060   5.754  17.626  0.00  0.00    +0.000 A 
ATOM     23  C   UNL     1       3.789   5.249  18.894  0.00  0.00    +0.000 A 
ATOM     24  C   UNL     1       2.981   5.975  19.766  0.00  0.00    +0.000 A 
ATOM     25  C   UNL     1       2.452   7.217  19.378  0.00  0.00    +0.000 A 
ATOM     26  C   UNL     1       1.647   7.977  20.244  0.00  0.00    +0.000 A 
ENDBRANCH  13  17
BRANCH   1  30
ATOM     27  N   UNL     1       4.220  15.728  18.850  0.00  0.00    +0.000 NA
ATOM     28  C   UNL     1       4.322  14.968  20.103  0.00  0.00    +0.000 C 
ATOM     29  C   UNL     1       3.395  13.782  20.200  0.00  0.00    +0.000 C 
ATOM     30  C   UNL     1       1.954  14.059  19.765  0.00  0.00    +0.000 C 
ATOM     31  C   UNL     1       1.945  14.730  18.391  0.00  0.00    +0.000 C 
ATOM     32  C   UNL     1       2.877  15.927  18.297  0.00  0.00    +0.000 C 
BRANCH  27  33
ATOM     33  C   UNL     1       4.794  17.067  19.087  0.00  0.00    +0.000 C 
BRANCH  33  35
ATOM     34  N   UNL     1       7.560  17.149  18.809  0.00  0.00    +0.000 NA
ATOM     35  C   UNL     1       6.306  17.111  18.935  0.00  0.00    +0.000 C 
ENDBRANCH  33  35
ENDBRANCH  27  33
ENDBRANCH   1  30
TORSDOF 4
ENDMDL
MODEL 2
REMARK VINA RESULT:      -7.7      0.798      1.019
REMARK  Name = 
REMARK  4 active torsions:
REMARK  status: ('A' for Active; 'I' for Inactive)
REMARK    1  A    between atoms: C_2  and  C_3
REMARK    2  A    between atoms: C_3  and  N_4
REMARK    3  A    between atoms: C_7  and  N_8
REMARK    4  A    between atoms: C_20  and  C_21
REMARK                            x       y       z     vdW  Elec       q    Type
REMARK                         _______ _______ _______ _____ _____    ______ ____
ROOT
ATOM      1  N   UNL     1       0.818  14.885  20.820  0.00  0.00    +0.000 N 
ATOM      2  C   UNL     1       0.647  16.276  20.796  0.00  0.00    +0.000 A 
ATOM      3  O   UNL     1       0.912  17.060  19.896  0.00  0.00    +0.000 OA
ATOM      4  C   UNL     1       0.105  16.918  22.022  0.00  0.00    +0.000 A 
ATOM      5  N   UNL     1      -0.492  16.273  22.960  0.00  0.00    +0.000 NA
ATOM      6  C   UNL     1      -0.619  14.885  22.798  0.00  0.00    +0.000 A 
ATOM      7  C   UNL     1      -1.382  14.225  23.742  0.00  0.00    +0.000 A 
ATOM      8  N   UNL     1      -1.564  12.897  23.787  0.00  0.00    +0.000 NA
ATOM      9  C   UNL     1      -0.979  12.157  22.848  0.00  0.00    +0.000 A 
ATOM     10  C   UNL     1      -1.170  10.795  22.979  0.00  0.00    +0.000 A 
ATOM     11  C   UNL     1      -0.571   9.886  22.116  0.00  0.00    +0.000 A 
ATOM     12  F   UNL     1      -0.736   8.580  22.373  0.00  0.00    +0.000 F 
ATOM     13  C   UNL     1       0.179  10.313  21.030  0.00  0.00    +0.000 A 
ATOM     14  C   UNL     1       0.234  11.707  20.839  0.00  0.00    +0.000 A 
ATOM     15  C   UNL     1      -0.212  12.687  21.782  0.00  0.00    +0.000 A 
ATOM     16  C   UNL     1       0.004  14.126  21.779  0.00  0.00    +0.000 A 
ENDROOT
BRANCH  13  17
ATOM     17  C   UNL     1       0.946   9.408  20.144  0.00  0.00    +0.000 A 
ATOM     18  C   UNL     1       1.313   9.786  18.851  0.00  0.00    +0.000 A 
ATOM     19  N   UNL     1       2.037   9.044  17.975  0.00  0.00    +0.000 NA
ATOM     20  C   UNL     1       2.477   7.850  18.395  0.00  0.00    +0.000 A 
ATOM     21  C   UNL     1       3.254   7.074  17.546  0.00  0.00    +0.000 A 
ATOM     22  C   UNL     1       3.765   5.838  17.951  0.00  0.00    +0.000 A 
ATOM     23  C   UNL     1       3.488   5.358  19.228  0.00  0.00    +0.000 A 
ATOM     24  C   UNL     1       2.699   6.115  20.091  0.00  0.00    +0.000 A 
ATOM     25  C   UNL     1       2.193   7.361  19.685  0.00  0.00    +0.000 A 
ATOM     26  C   UNL     1       1.406   8.151  20.542  0.00  0.00    +0.000 A 
ENDBRANCH  13  17
BRANCH   1  30
ATOM     27  N   UNL     1       4.183  15.692  19.138  0.00  0.00    +0.000 NA
ATOM     28  C   UNL     1       4.139  14.846  20.337  0.00  0.00    +0.000 C 
ATOM     29  C   UNL     1       3.084  13.767  20.311  0.00  0.00    +0.000 C 
ATOM     30  C   UNL     1       1.706  14.232  19.836  0.00  0.00    +0.000 C 
ATOM     31  C   UNL     1       1.838  14.989  18.513  0.00  0.00    +0.000 C 
ATOM     32  C   UNL     1       2.898  16.077  18.543  0.00  0.00    +0.000 C 
BRANCH  27  33
ATOM     33  C   UNL     1       4.886  16.940  19.492  0.00  0.00    +0.000 C 
BRANCH  33  35
ATOM     34  N   UNL     1       3.676  18.334  21.572  0.00  0.00    +0.000 NA
ATOM     35  C   UNL     1       4.225  17.703  20.629  0.00  0.00    +0.000 C 
ENDBRANCH  33  35
ENDBRANCH  27  33
ENDBRANCH   1  30
TORSDOF 4
ENDMDL
MODEL 3
REMARK VINA RESULT:      -7.3      4.376      8.485
REMARK  Name = 
REMARK  4 active torsions:
REMARK  status: ('A' for Active; 'I' for Inactive)
REMARK    1  A    between atoms: C_2  and  C_3
REMARK    2  A    between atoms: C_3  and  N_4
REMARK    3  A    between atoms: C_7  and  N_8
REMARK    4  A    between atoms: C_20  and  C_21
REMARK                            x       y       z     vdW  Elec       q    Type
REMARK                         _______ _______ _______ _____ _____    ______ ____
ROOT
ATOM      1  N   UNL     1      -2.404  11.388  18.465  0.00  0.00    +0.000 N 
ATOM      2  C   UNL     1      -2.087  10.442  17.481  0.00  0.00    +0.000 A 
ATOM      3  O   UNL     1      -1.152   9.655  17.453  0.00  0.00    +0.000 OA
ATOM      4  C   UNL     1      -2.966  10.384  16.283  0.00  0.00    +0.000 A 
ATOM      5  N   UNL     1      -4.138  10.909  16.233  0.00  0.00    +0.000 NA
ATOM      6  C   UNL     1      -4.588  11.575  17.383  0.00  0.00    +0.000 A 
ATOM      7  C   UNL     1      -5.898  12.012  17.365  0.00  0.00    +0.000 A 
ATOM      8  N   UNL     1      -6.484  12.720  18.344  0.00  0.00    +0.000 NA
ATOM      9  C   UNL     1      -5.755  13.015  19.418  0.00  0.00    +0.000 A 
ATOM     10  C   UNL     1      -6.403  13.782  20.367  0.00  0.00    +0.000 A 
ATOM     11  C   UNL     1      -5.758  14.227  21.514  0.00  0.00    +0.000 A 
ATOM     12  F   UNL     1      -6.435  15.045  22.333  0.00  0.00    +0.000 F 
ATOM     13  C   UNL     1      -4.455  13.846  21.798  0.00  0.00    +0.000 A 
ATOM     14  C   UNL     1      -3.871  12.944  20.887  0.00  0.00    +0.000 A 
ATOM     15  C   UNL     1      -4.417  12.592  19.612  0.00  0.00    +0.000 A 
ATOM     16  C   UNL     1      -3.793  11.861  18.519  0.00  0.00    +0.000 A 
ENDROOT
BRANCH  13  17
ATOM     17  C   UNL     1      -3.665  14.376  22.932  0.00  0.00    +0.000 A 
ATOM     18  C   UNL     1      -3.881  13.942  24.242  0.00  0.00    +0.000 A 
ATOM     19  N   UNL     1      -3.194  14.344  25.342  0.00  0.00    +0.000 NA
ATOM     20  C   UNL     1      -2.188  15.209  25.158  0.00  0.00    +0.000 A 
ATOM     21  C   UNL     1      -1.433  15.617  26.250  0.00  0.00    +0.000 A 
ATOM     22  C   UNL     1      -0.353  16.491  26.104  0.00  0.00    +0.000 A 
ATOM     23  C   UNL     1      -0.022  16.979  24.844  0.00  0.00    +0.000 A 
ATOM     24  C   UNL     1      -0.774  16.594  23.737  0.00  0.00    +0.000 A 
ATOM     25  C   UNL     1      -1.855  15.708  23.884  0.00  0.00    +0.000 A 
ATOM     26  C   UNL     1      -2.621  15.292  22.782  0.00  0.00    +0.000 A 
ENDBRANCH  13  17
BRANCH   1  30
ATOM     27  N   UNL     1       1.389  10.917  18.916  0.00  0.00    +0.000 NA
ATOM     28  C   UNL     1       0.863  12.138  18.292  0.00  0.00    +0.000 C 
ATOM     29  C   UNL     1      -0.298  12.769  19.018  0.00  0.00    +0.000 C 
ATOM     30  C   UNL     1      -1.387  11.789  19.460  0.00  0.00    +0.000 C 
ATOM     31  C   UNL     1      -0.756  10.618  20.217  0.00  0.00    +0.000 C 
ATOM     32  C   UNL     1       0.411   9.982  19.482  0.00  0.00    +0.000 C 
BRANCH  27  33
ATOM     33  C   UNL     1       2.151  10.178  17.891  0.00  0.00    +0.000 C 
BRANCH  33  35
ATOM     34  N   UNL     1       2.308   7.446  18.389  0.00  0.00    +0.000 NA
ATOM     35  C   UNL     1       2.236   8.685  18.163  0.00  0.00    +0.000 C 
ENDBRANCH  33  35
ENDBRANCH  27  33
ENDBRANCH   1  30
TORSDOF 4
ENDMDL
MODEL 4
REMARK VINA RESULT:      -7.3      1.178      1.563
REMARK  Name = 
REMARK  4 active torsions:
REMARK  status: ('A' for Active; 'I' for Inactive)
REMARK    1  A    between atoms: C_2  and  C_3
REMARK    2  A    between atoms: C_3  and  N_4
REMARK    3  A    between atoms: C_7  and  N_8
REMARK    4  A    between atoms: C_20  and  C_21
REMARK                            x       y       z     vdW  Elec       q    Type
REMARK                         _______ _______ _______ _____ _____    ______ ____
ROOT
ATOM      1  N   UNL     1       1.906  15.861  20.714  0.00  0.00    +0.000 N 
ATOM      2  C   UNL     1       2.074  17.250  20.623  0.00  0.00    +0.000 A 
ATOM      3  O   UNL     1       2.545  17.902  19.703  0.00  0.00    +0.000 OA
ATOM      4  C   UNL     1       1.663  18.064  21.797  0.00  0.00    +0.000 A 
ATOM      5  N   UNL     1       0.901  17.628  22.736  0.00  0.00    +0.000 NA
ATOM      6  C   UNL     1       0.451  16.303  22.628  0.00  0.00    +0.000 A 
ATOM      7  C   UNL     1      -0.475  15.893  23.567  0.00  0.00    +0.000 A 
ATOM      8  N   UNL     1      -0.971  14.649  23.661  0.00  0.00    +0.000 NA
ATOM      9  C   UNL     1      -0.551  13.744  22.780  0.00  0.00    +0.000 A 
ATOM     10  C   UNL     1      -1.065  12.475  22.960  0.00  0.00    +0.000 A 
ATOM     11  C   UNL     1      -0.674  11.407  22.163  0.00  0.00    +0.000 A 
ATOM     12  F   UNL     1      -1.153  10.192  22.469  0.00  0.00    +0.000 F 
ATOM     13  C   UNL     1       0.190  11.588  21.092  0.00  0.00    +0.000 A 
ATOM     14  C   UNL     1       0.581  12.917  20.844  0.00  0.00    +0.000 A 
ATOM     15  C   UNL     1       0.353  14.022  21.724  0.00  0.00    +0.000 A 
ATOM     16  C   UNL     1       0.906  15.367  21.669  0.00  0.00    +0.000 A 
ENDROOT
BRANCH  13  17
ATOM     17  C   UNL     1       0.745  10.482  20.279  0.00  0.00    +0.000 A 
ATOM     18  C   UNL     1       1.108  10.667  18.943  0.00  0.00    +0.000 A 
ATOM     19  N   UNL     1       1.650   9.729  18.125  0.00  0.00    +0.000 NA
ATOM     20  C   UNL     1       1.898   8.522  18.649  0.00  0.00    +0.000 A 
ATOM     21  C   UNL     1       2.488   7.544  17.859  0.00  0.00    +0.000 A 
ATOM     22  C   UNL     1       2.796   6.281  18.371  0.00  0.00    +0.000 A 
ATOM     23  C   UNL     1       2.503   5.980  19.697  0.00  0.00    +0.000 A 
ATOM     24  C   UNL     1       1.899   6.941  20.504  0.00  0.00    +0.000 A 
ATOM     25  C   UNL     1       1.596   8.214  19.990  0.00  0.00    +0.000 A 
ATOM     26  C   UNL     1       1.000   9.206  20.787  0.00  0.00    +0.000 A 
ENDBRANCH  13  17
BRANCH   1  30
ATOM     27  N   UNL     1       5.234  15.975  18.785  0.00  0.00    +0.000 NA
ATOM     28  C   UNL     1       5.160  15.316  20.095  0.00  0.00    +0.000 C 
ATOM     29  C   UNL     1       3.980  14.394  20.272  0.00  0.00    +0.000 C 
ATOM     30  C   UNL     1       2.643  14.966  19.797  0.00  0.00    +0.000 C 
ATOM     31  C   UNL     1       2.785  15.509  18.373  0.00  0.00    +0.000 C 
ATOM     32  C   UNL     1       3.973  16.440  18.198  0.00  0.00    +0.000 C 
BRANCH  27  33
ATOM     33  C   UNL     1       6.108  17.156  18.923  0.00  0.00    +0.000 C 
BRANCH  33  35
ATOM     34  N   UNL     1       8.750  16.664  18.207  0.00  0.00    +0.000 NA
ATOM     35  C   UNL     1       7.552  16.887  18.531  0.00  0.00    +0.000 C 
ENDBRANCH  33  35
ENDBRANCH  27  33
ENDBRANCH   1  30
TORSDOF 4
ENDMDL
MODEL 5
REMARK VINA RESULT:      -7.3      1.440      2.108
REMARK  Name = 
REMARK  4 active torsions:
REMARK  status: ('A' for Active; 'I' for Inactive)
REMARK    1  A    between atoms: C_2  and  C_3
REMARK    2  A    between atoms: C_3  and  N_4
REMARK    3  A    between atoms: C_7  and  N_8
REMARK    4  A    between atoms: C_20  and  C_21
REMARK                            x       y       z     vdW  Elec       q    Type
REMARK                         _______ _______ _______ _____ _____    ______ ____
ROOT
ATOM      1  N   UNL     1       1.069  15.652  20.197  0.00  0.00    +0.000 N 
ATOM      2  C   UNL     1       1.071  16.986  19.768  0.00  0.00    +0.000 A 
ATOM      3  O   UNL     1       1.471  17.445  18.708  0.00  0.00    +0.000 OA
ATOM      4  C   UNL     1       0.555  18.007  20.717  0.00  0.00    +0.000 A 
ATOM      5  N   UNL     1      -0.160  17.726  21.748  0.00  0.00    +0.000 NA
ATOM      6  C   UNL     1      -0.447  16.372  21.973  0.00  0.00    +0.000 A 
ATOM      7  C   UNL     1      -1.328  16.096  23.002  0.00  0.00    +0.000 A 
ATOM      8  N   UNL     1      -1.673  14.863  23.405  0.00  0.00    +0.000 NA
ATOM      9  C   UNL     1      -1.139  13.826  22.762  0.00  0.00    +0.000 A 
ATOM     10  C   UNL     1      -1.500  12.588  23.255  0.00  0.00    +0.000 A 
ATOM     11  C   UNL     1      -0.977  11.411  22.734  0.00  0.00    +0.000 A 
ATOM     12  F   UNL     1      -1.311  10.260  23.335  0.00  0.00    +0.000 F 
ATOM     13  C   UNL     1      -0.130  11.427  21.635  0.00  0.00    +0.000 A 
ATOM     14  C   UNL     1       0.103  12.693  21.064  0.00  0.00    +0.000 A 
ATOM     15  C   UNL     1      -0.264  13.944  21.654  0.00  0.00    +0.000 A 
ATOM     16  C   UNL     1       0.126  15.290  21.263  0.00  0.00    +0.000 A 
ENDROOT
BRANCH  13  17
ATOM     17  C   UNL     1       0.561  10.230  21.105  0.00  0.00    +0.000 A 
ATOM     18  C   UNL     1       0.745   9.085  21.884  0.00  0.00    +0.000 A 
ATOM     19  N   UNL     1       1.338   7.932  21.482  0.00  0.00    +0.000 NA
ATOM     20  C   UNL     1       1.753   7.861  20.211  0.00  0.00    +0.000 A 
ATOM     21  C   UNL     1       2.329   6.687  19.747  0.00  0.00    +0.000 A 
ATOM     22  C   UNL     1       2.747   6.554  18.420  0.00  0.00    +0.000 A 
ATOM     23  C   UNL     1       2.597   7.618  17.536  0.00  0.00    +0.000 A 
ATOM     24  C   UNL     1       2.035   8.811  17.984  0.00  0.00    +0.000 A 
ATOM     25  C   UNL     1       1.607   8.940  19.317  0.00  0.00    +0.000 A 
ATOM     26  C   UNL     1       1.023  10.127  19.791  0.00  0.00    +0.000 A 
ENDBRANCH  13  17
BRANCH   1  30
ATOM     27  N   UNL     1       4.797  15.300  19.309  0.00  0.00    +0.000 NA
ATOM     28  C   UNL     1       4.264  14.677  20.527  0.00  0.00    +0.000 C 
ATOM     29  C   UNL     1       2.974  13.920  20.338  0.00  0.00    +0.000 C 
ATOM     30  C   UNL     1       1.916  14.653  19.511  0.00  0.00    +0.000 C 
ATOM     31  C   UNL     1       2.532  15.150  18.201  0.00  0.00    +0.000 C 
ATOM     32  C   UNL     1       3.829  15.915  18.395  0.00  0.00    +0.000 C 
BRANCH  27  33
ATOM     33  C   UNL     1       5.740  16.359  19.719  0.00  0.00    +0.000 C 
BRANCH  33  35
ATOM     34  N   UNL     1       4.481  18.625  20.727  0.00  0.00    +0.000 NA
ATOM     35  C   UNL     1       5.052  17.598  20.270  0.00  0.00    +0.000 C 
ENDBRANCH  33  35
ENDBRANCH  27  33
ENDBRANCH   1  30
TORSDOF 4
ENDMDL
MODEL 6
REMARK VINA RESULT:      -7.3      1.410      2.244
REMARK  Name = 
REMARK  4 active torsions:
REMARK  status: ('A' for Active; 'I' for Inactive)
REMARK    1  A    between atoms: C_2  and  C_3
REMARK    2  A    between atoms: C_3  and  N_4
REMARK    3  A    between atoms: C_7  and  N_8
REMARK    4  A    between atoms: C_20  and  C_21
REMARK                            x       y       z     vdW  Elec       q    Type
REMARK                         _______ _______ _______ _____ _____    ______ ____
ROOT
ATOM      1  N   UNL     1       1.569  16.018  20.634  0.00  0.00    +0.000 N 
ATOM      2  C   UNL     1       1.728  17.365  20.281  0.00  0.00    +0.000 A 
ATOM      3  O   UNL     1       2.280  17.834  19.297  0.00  0.00    +0.000 OA
ATOM      4  C   UNL     1       1.192  18.384  21.222  0.00  0.00    +0.000 A 
ATOM      5  N   UNL     1       0.346  18.120  22.152  0.00  0.00    +0.000 NA
ATOM      6  C   UNL     1      -0.075  16.787  22.272  0.00  0.00    +0.000 A 
ATOM      7  C   UNL     1      -1.085  16.542  23.182  0.00  0.00    +0.000 A 
ATOM      8  N   UNL     1      -1.572  15.327  23.478  0.00  0.00    +0.000 NA
ATOM      9  C   UNL     1      -1.055  14.278  22.842  0.00  0.00    +0.000 A 
ATOM     10  C   UNL     1      -1.569  13.055  23.226  0.00  0.00    +0.000 A 
ATOM     11  C   UNL     1      -1.087  11.862  22.702  0.00  0.00    +0.000 A 
ATOM     12  F   UNL     1      -1.579  10.718  23.200  0.00  0.00    +0.000 F 
ATOM     13  C   UNL     1      -0.124  11.853  21.704  0.00  0.00    +0.000 A 
ATOM     14  C   UNL     1       0.274  13.118  21.230  0.00  0.00    +0.000 A 
ATOM     15  C   UNL     1      -0.054  14.369  21.843  0.00  0.00    +0.000 A 
ATOM     16  C   UNL     1       0.485  15.692  21.570  0.00  0.00    +0.000 A 
ENDROOT
BRANCH  13  17
ATOM     17  C   UNL     1       0.523  10.626  21.187  0.00  0.00    +0.000 A 
ATOM     18  C   UNL     1       0.792   9.535  22.017  0.00  0.00    +0.000 A 
ATOM     19  N   UNL     1       1.353   8.359  21.636  0.00  0.00    +0.000 NA
ATOM     20  C   UNL     1       1.644   8.207  20.337  0.00  0.00    +0.000 A 
ATOM     21  C   UNL     1       2.182   7.005  19.897  0.00  0.00    +0.000 A 
ATOM     22  C   UNL     1       2.471   6.787  18.547  0.00  0.00    +0.000 A 
ATOM     23  C   UNL     1       2.227   7.791  17.615  0.00  0.00    +0.000 A 
ATOM     24  C   UNL     1       1.700   9.009  18.037  0.00  0.00    +0.000 A 
ATOM     25  C   UNL     1       1.403   9.224  19.394  0.00  0.00    +0.000 A 
ATOM     26  C   UNL     1       0.857  10.438  19.844  0.00  0.00    +0.000 A 
ENDBRANCH  13  17
BRANCH   1  30
ATOM     27  N   UNL     1       5.028  15.874  18.954  0.00  0.00    +0.000 NA
ATOM     28  C   UNL     1       4.877  15.517  20.370  0.00  0.00    +0.000 C 
ATOM     29  C   UNL     1       3.720  14.597  20.670  0.00  0.00    +0.000 C 
ATOM     30  C   UNL     1       2.404  14.982  19.991  0.00  0.00    +0.000 C 
ATOM     31  C   UNL     1       2.636  15.205  18.495  0.00  0.00    +0.000 C 
ATOM     32  C   UNL     1       3.800  16.134  18.196  0.00  0.00    +0.000 C 
BRANCH  27  33
ATOM     33  C   UNL     1       5.847  17.100  18.883  0.00  0.00    +0.000 C 
BRANCH  33  35
ATOM     34  N   UNL     1       8.544  16.598  18.423  0.00  0.00    +0.000 NA
ATOM     35  C   UNL     1       7.322  16.826  18.632  0.00  0.00    +0.000 C 
ENDBRANCH  33  35
ENDBRANCH  27  33
ENDBRANCH   1  30
TORSDOF 4
ENDMDL
MODEL 7
REMARK VINA RESULT:      -7.3      2.110      2.582
REMARK  Name = 
REMARK  4 active torsions:
REMARK  status: ('A' for Active; 'I' for Inactive)
REMARK    1  A    between atoms: C_2  and  C_3
REMARK    2  A    between atoms: C_3  and  N_4
REMARK    3  A    between atoms: C_7  and  N_8
REMARK    4  A    between atoms: C_20  and  C_21
REMARK                            x       y       z     vdW  Elec       q    Type
REMARK                         _______ _______ _______ _____ _____    ______ ____
ROOT
ATOM      1  N   UNL     1       2.645  15.735  19.938  0.00  0.00    +0.000 N 
ATOM      2  C   UNL     1       3.139  17.047  19.937  0.00  0.00    +0.000 A 
ATOM      3  O   UNL     1       4.213  17.455  19.521  0.00  0.00    +0.000 OA
ATOM      4  C   UNL     1       2.282  18.099  20.544  0.00  0.00    +0.000 A 
ATOM      5  N   UNL     1       1.027  17.947  20.780  0.00  0.00    +0.000 NA
ATOM      6  C   UNL     1       0.461  16.708  20.445  0.00  0.00    +0.000 A 
ATOM      7  C   UNL     1      -0.911  16.607  20.574  0.00  0.00    +0.000 A 
ATOM      8  N   UNL     1      -1.620  15.488  20.361  0.00  0.00    +0.000 NA
ATOM      9  C   UNL     1      -0.959  14.395  19.987  0.00  0.00    +0.000 A 
ATOM     10  C   UNL     1      -1.742  13.268  19.828  0.00  0.00    +0.000 A 
ATOM     11  C   UNL     1      -1.192  12.034  19.503  0.00  0.00    +0.000 A 
ATOM     12  F   UNL     1      -2.014  10.976  19.461  0.00  0.00    +0.000 F 
ATOM     13  C   UNL     1       0.164  11.900  19.240  0.00  0.00    +0.000 A 
ATOM     14  C   UNL     1       0.911  13.093  19.265  0.00  0.00    +0.000 A 
ATOM     15  C   UNL     1       0.439  14.351  19.758  0.00  0.00    +0.000 A 
ATOM     16  C   UNL     1       1.189  15.566  20.034  0.00  0.00    +0.000 A 
ENDROOT
BRANCH  13  17
ATOM     17  C   UNL     1       0.838  10.602  19.009  0.00  0.00    +0.000 A 
ATOM     18  C   UNL     1       1.608  10.369  17.867  0.00  0.00    +0.000 A 
ATOM     19  N   UNL     1       2.287   9.229  17.579  0.00  0.00    +0.000 NA
ATOM     20  C   UNL     1       2.252   8.244  18.486  0.00  0.00    +0.000 A 
ATOM     21  C   UNL     1       2.964   7.076  18.250  0.00  0.00    +0.000 A 
ATOM     22  C   UNL     1       2.985   6.035  19.182  0.00  0.00    +0.000 A 
ATOM     23  C   UNL     1       2.275   6.154  20.372  0.00  0.00    +0.000 A 
ATOM     24  C   UNL     1       1.543   7.312  20.623  0.00  0.00    +0.000 A 
ATOM     25  C   UNL     1       1.528   8.362  19.689  0.00  0.00    +0.000 A 
ATOM     26  C   UNL     1       0.810   9.547  19.924  0.00  0.00    +0.000 A 
ENDBRANCH  13  17
BRANCH   1  30
ATOM     27  N   UNL     1       6.311  15.276  18.863  0.00  0.00    +0.000 NA
ATOM     28  C   UNL     1       5.958  15.326  20.287  0.00  0.00    +0.000 C 
ATOM     29  C   UNL     1       4.773  14.479  20.675  0.00  0.00    +0.000 C 
ATOM     30  C   UNL     1       3.567  14.597  19.739  0.00  0.00    +0.000 C 
ATOM     31  C   UNL     1       4.013  14.398  18.289  0.00  0.00    +0.000 C 
ATOM     32  C   UNL     1       5.205  15.256  17.900  0.00  0.00    +0.000 C 
BRANCH  27  33
ATOM     33  C   UNL     1       7.129  16.466  18.558  0.00  0.00    +0.000 C 
BRANCH  33  35
ATOM     34  N   UNL     1       9.666  15.847  17.601  0.00  0.00    +0.000 NA
ATOM     35  C   UNL     1       8.515  16.127  18.034  0.00  0.00    +0.000 C 
ENDBRANCH  33  35
ENDBRANCH  27  33
ENDBRANCH   1  30
TORSDOF 4
ENDMDL
MODEL 8
REMARK VINA RESULT:      -7.2      3.213      6.552
REMARK  Name = 
REMARK  4 active torsions:
REMARK  status: ('A' for Active; 'I' for Inactive)
REMARK    1  A    between atoms: C_2  and  C_3
REMARK    2  A    between atoms: C_3  and  N_4
REMARK    3  A    between atoms: C_7  and  N_8
REMARK    4  A    between atoms: C_20  and  C_21
REMARK                            x       y       z     vdW  Elec       q    Type
REMARK                         _______ _______ _______ _____ _____    ______ ____
ROOT
ATOM      1  N   UNL     1      -2.646  14.883  20.789  0.00  0.00    +0.000 N 
ATOM      2  C   UNL     1      -3.595  15.672  21.453  0.00  0.00    +0.000 A 
ATOM      3  O   UNL     1      -4.385  15.341  22.325  0.00  0.00    +0.000 OA
ATOM      4  C   UNL     1      -3.703  17.097  21.043  0.00  0.00    +0.000 A 
ATOM      5  N   UNL     1      -2.803  17.714  20.365  0.00  0.00    +0.000 NA
ATOM      6  C   UNL     1      -1.667  16.977  19.994  0.00  0.00    +0.000 A 
ATOM      7  C   UNL     1      -0.648  17.686  19.388  0.00  0.00    +0.000 A 
ATOM      8  N   UNL     1       0.483  17.144  18.910  0.00  0.00    +0.000 NA
ATOM      9  C   UNL     1       0.644  15.829  19.038  0.00  0.00    +0.000 A 
ATOM     10  C   UNL     1       1.808  15.330  18.486  0.00  0.00    +0.000 A 
ATOM     11  C   UNL     1       2.092  13.971  18.481  0.00  0.00    +0.000 A 
ATOM     12  F   UNL     1       3.199  13.566  17.841  0.00  0.00    +0.000 F 
ATOM     13  C   UNL     1       1.254  13.060  19.109  0.00  0.00    +0.000 A 
ATOM     14  C   UNL     1       0.152  13.614  19.789  0.00  0.00    +0.000 A 
ATOM     15  C   UNL     1      -0.282  14.974  19.684  0.00  0.00    +0.000 A 
ATOM     16  C   UNL     1      -1.518  15.579  20.157  0.00  0.00    +0.000 A 
ENDROOT
BRANCH  13  17
ATOM     17  C   UNL     1       1.425  11.591  19.039  0.00  0.00    +0.000 A 
ATOM     18  C   UNL     1       1.965  10.970  17.910  0.00  0.00    +0.000 A 
ATOM     19  N   UNL     1       2.189   9.639  17.760  0.00  0.00    +0.000 NA
ATOM     20  C   UNL     1       1.904   8.845  18.800  0.00  0.00    +0.000 A 
ATOM     21  C   UNL     1       2.154   7.482  18.704  0.00  0.00    +0.000 A 
ATOM     22  C   UNL     1       1.906   6.619  19.774  0.00  0.00    +0.000 A 
ATOM     23  C   UNL     1       1.388   7.120  20.964  0.00  0.00    +0.000 A 
ATOM     24  C   UNL     1       1.117   8.481  21.077  0.00  0.00    +0.000 A 
ATOM     25  C   UNL     1       1.374   9.350  20.003  0.00  0.00    +0.000 A 
ATOM     26  C   UNL     1       1.124  10.730  20.096  0.00  0.00    +0.000 A 
ENDBRANCH  13  17
BRANCH   1  30
ATOM     27  N   UNL     1      -4.360  12.278  23.044  0.00  0.00    +0.000 NA
ATOM     28  C   UNL     1      -5.014  12.736  21.812  0.00  0.00    +0.000 C 
ATOM     29  C   UNL     1      -4.120  12.777  20.598  0.00  0.00    +0.000 C 
ATOM     30  C   UNL     1      -2.747  13.409  20.835  0.00  0.00    +0.000 C 
ATOM     31  C   UNL     1      -2.086  12.774  22.061  0.00  0.00    +0.000 C 
ATOM     32  C   UNL     1      -2.988  12.738  23.282  0.00  0.00    +0.000 C 
BRANCH  27  33
ATOM     33  C   UNL     1      -5.175  12.736  24.185  0.00  0.00    +0.000 C 
BRANCH  33  35
ATOM     34  N   UNL     1      -7.903  12.329  23.827  0.00  0.00    +0.000 NA
ATOM     35  C   UNL     1      -6.666  12.514  23.989  0.00  0.00    +0.000 C 
ENDBRANCH  33  35
ENDBRANCH  27  33
ENDBRANCH   1  30
TORSDOF 4
ENDMDL
MODEL 9
REMARK VINA RESULT:      -7.2      2.066      2.795
REMARK  Name = 
REMARK  4 active torsions:
REMARK  status: ('A' for Active; 'I' for Inactive)
REMARK    1  A    between atoms: C_2  and  C_3
REMARK    2  A    between atoms: C_3  and  N_4
REMARK    3  A    between atoms: C_7  and  N_8
REMARK    4  A    between atoms: C_20  and  C_21
REMARK                            x       y       z     vdW  Elec       q    Type
REMARK                         _______ _______ _______ _____ _____    ______ ____
ROOT
ATOM      1  N   UNL     1       2.512  15.790  19.825  0.00  0.00    +0.000 N 
ATOM      2  C   UNL     1       3.017  17.075  19.589  0.00  0.00    +0.000 A 
ATOM      3  O   UNL     1       4.094  17.393  19.105  0.00  0.00    +0.000 OA
ATOM      4  C   UNL     1       2.170  18.227  19.997  0.00  0.00    +0.000 A 
ATOM      5  N   UNL     1       0.915  18.131  20.256  0.00  0.00    +0.000 NA
ATOM      6  C   UNL     1       0.337  16.857  20.150  0.00  0.00    +0.000 A 
ATOM      7  C   UNL     1      -1.036  16.793  20.296  0.00  0.00    +0.000 A 
ATOM      8  N   UNL     1      -1.755  15.660  20.288  0.00  0.00    +0.000 NA
ATOM      9  C   UNL     1      -1.103  14.512  20.116  0.00  0.00    +0.000 A 
ATOM     10  C   UNL     1      -1.896  13.382  20.163  0.00  0.00    +0.000 A 
ATOM     11  C   UNL     1      -1.358  12.105  20.065  0.00  0.00    +0.000 A 
ATOM     12  F   UNL     1      -2.189  11.064  20.215  0.00  0.00    +0.000 F 
ATOM     13  C   UNL     1      -0.004  11.913  19.830  0.00  0.00    +0.000 A 
ATOM     14  C   UNL     1       0.754  13.085  19.639  0.00  0.00    +0.000 A 
ATOM     15  C   UNL     1       0.293  14.415  19.898  0.00  0.00    +0.000 A 
ATOM     16  C   UNL     1       1.055  15.654  19.951  0.00  0.00    +0.000 A 
ENDROOT
BRANCH  13  17
ATOM     17  C   UNL     1       0.659  10.589  19.836  0.00  0.00    +0.000 A 
ATOM     18  C   UNL     1       0.587   9.740  20.944  0.00  0.00    +0.000 A 
ATOM     19  N   UNL     1       1.133   8.501  21.038  0.00  0.00    +0.000 NA
ATOM     20  C   UNL     1       1.770   8.024  19.960  0.00  0.00    +0.000 A 
ATOM     21  C   UNL     1       2.310   6.746  19.998  0.00  0.00    +0.000 A 
ATOM     22  C   UNL     1       2.953   6.192  18.888  0.00  0.00    +0.000 A 
ATOM     23  C   UNL     1       3.070   6.931  17.715  0.00  0.00    +0.000 A 
ATOM     24  C   UNL     1       2.548   8.221  17.659  0.00  0.00    +0.000 A 
ATOM     25  C   UNL     1       1.894   8.774  18.773  0.00  0.00    +0.000 A 
ATOM     26  C   UNL     1       1.346  10.067  18.738  0.00  0.00    +0.000 A 
ENDBRANCH  13  17
BRANCH   1  30
ATOM     27  N   UNL     1       6.210  15.143  18.980  0.00  0.00    +0.000 NA
ATOM     28  C   UNL     1       5.802  15.407  20.366  0.00  0.00    +0.000 C 
ATOM     29  C   UNL     1       4.590  14.637  20.826  0.00  0.00    +0.000 C 
ATOM     30  C   UNL     1       3.424  14.627  19.835  0.00  0.00    +0.000 C 
ATOM     31  C   UNL     1       3.922  14.211  18.449  0.00  0.00    +0.000 C 
ATOM     32  C   UNL     1       5.141  14.991  17.987  0.00  0.00    +0.000 C 
BRANCH  27  33
ATOM     33  C   UNL     1       7.056  16.267  18.537  0.00  0.00    +0.000 C 
BRANCH  33  35
ATOM     34  N   UNL     1       9.619  15.490  17.785  0.00  0.00    +0.000 NA
ATOM     35  C   UNL     1       8.457  15.842  18.125  0.00  0.00    +0.000 C 
ENDBRANCH  33  35
ENDBRANCH  27  33
ENDBRANCH   1  30
TORSDOF 4
ENDMDL
