MODEL 1
REMARK VINA RESULT:      -7.4      0.000      0.000
REMARK  Name = 
REMARK  6 active torsions:
REMARK  status: ('A' for Active; 'I' for Inactive)
REMARK    1  A    between atoms: C_2  and  C_16
REMARK    2  A    between atoms: N_3  and  C_4
REMARK    3  A    between atoms: C_4  and  C_5
REMARK    4  A    between atoms: C_7  and  C_8
REMARK    5  A    between atoms: C_14  and  O_15
REMARK    6  A    between atoms: C_20  and  C_21
REMARK                            x       y       z     vdW  Elec       q    Type
REMARK                         _______ _______ _______ _____ _____    ______ ____
ROOT
ATOM      1  C   UNL     1       5.575   5.844  18.839  0.00  0.00    +0.000 C 
ENDROOT
BRANCH   1   2
ATOM      2  C   UNL     1       5.707   6.269  17.362  0.00  0.00    +0.000 C 
ATOM      3  C   UNL     1       5.221   5.133  16.435  0.00  0.00    +0.000 C 
ATOM      4  C   UNL     1       6.485   4.354  15.995  0.00  0.00    +0.000 C 
ATOM      5  C   UNL     1       7.664   5.096  16.634  0.00  0.00    +0.000 C 
ATOM      6  C   UNL     1       7.127   6.507  16.831  0.00  0.00    +0.000 C 
BRANCH   4   7
ATOM      7  C   UNL     1       6.634   4.330  14.510  0.00  0.00    +0.000 A 
ATOM      8  N   UNL     1       7.345   5.150  13.765  0.00  0.00    +0.000 NA
ATOM      9  N   UNL     1       7.272   4.718  12.463  0.00  0.00    +0.000 NA
ATOM     10  C   UNL     1       6.516   3.646  12.442  0.00  0.00    +0.000 A 
ATOM     11  N   UNL     1       6.082   3.372  13.701  0.00  0.00    +0.000 N 
ATOM     12  H   UNL     1       5.495   2.601  13.985  0.00  0.00    +0.000 HD
ENDBRANCH   4   7
BRANCH   6  13
ATOM     13  O   UNL     1       7.956   7.304  17.646  0.00  0.00    +0.000 OA
ATOM     14  H   UNL     1       8.708   6.762  17.951  0.00  0.00    +0.000 HD
ENDBRANCH   6  13
ENDBRANCH   1   2
BRANCH   1  17
ATOM     15  O   UNL     1       5.258   3.112  19.551  0.00  0.00    +0.000 OA
ATOM     16  C   UNL     1       4.276   3.849  19.548  0.00  0.00    +0.000 C 
ATOM     17  N   UNL     1       4.334   5.163  19.135  0.00  0.00    +0.000 N 
ATOM     18  H   UNL     1       3.487   5.711  19.123  0.00  0.00    +0.000 HD
BRANCH  16  19
ATOM     19  C   UNL     1       2.957   3.412  20.025  0.00  0.00    +0.000 A 
ATOM     20  C   UNL     1       2.659   2.938  21.356  0.00  0.00    +0.000 A 
ATOM     21  C   UNL     1       1.339   2.603  21.530  0.00  0.00    +0.000 A 
ATOM     22  S   UNL     1       0.439   2.816  20.104  0.00  0.00    +0.000 S 
ATOM     23  C   UNL     1       1.823   3.333  19.219  0.00  0.00    +0.000 A 
BRANCH  23  24
ATOM     24  C   UNL     1       1.646   3.639  17.762  0.00  0.00    +0.000 C 
ATOM     25  F   UNL     1       1.713   4.982  17.534  0.00  0.00    +0.000 F 
ATOM     26  F   UNL     1       2.652   3.084  17.027  0.00  0.00    +0.000 F 
ENDBRANCH  23  24
ENDBRANCH  16  19
ENDBRANCH   1  17
TORSDOF 6
ENDMDL
MODEL 2
REMARK VINA RESULT:      -7.3      1.936      2.396
REMARK  Name = 
REMARK  6 active torsions:
REMARK  status: ('A' for Active; 'I' for Inactive)
REMARK    1  A    between atoms: C_2  and  C_16
REMARK    2  A    between atoms: N_3  and  C_4
REMARK    3  A    between atoms: C_4  and  C_5
REMARK    4  A    between atoms: C_7  and  C_8
REMARK    5  A    between atoms: C_14  and  O_15
REMARK    6  A    between atoms: C_20  and  C_21
REMARK                            x       y       z     vdW  Elec       q    Type
REMARK                         _______ _______ _______ _____ _____    ______ ____
ROOT
ATOM      1  C   UNL     1       5.860   6.502  18.173  0.00  0.00    +0.000 C 
ENDROOT
BRANCH   1   2
ATOM      2  C   UNL     1       6.828   6.200  17.011  0.00  0.00    +0.000 C 
ATOM      3  C   UNL     1       6.097   6.339  15.657  0.00  0.00    +0.000 C 
ATOM      4  C   UNL     1       5.660   4.912  15.246  0.00  0.00    +0.000 C 
ATOM      5  C   UNL     1       6.201   3.987  16.343  0.00  0.00    +0.000 C 
ATOM      6  C   UNL     1       7.375   4.769  16.915  0.00  0.00    +0.000 C 
BRANCH   4   7
ATOM      7  C   UNL     1       6.220   4.520  13.919  0.00  0.00    +0.000 A 
ATOM      8  N   UNL     1       7.198   5.105  13.260  0.00  0.00    +0.000 NA
ATOM      9  N   UNL     1       7.450   4.371  12.127  0.00  0.00    +0.000 NA
ATOM     10  C   UNL     1       6.618   3.357  12.118  0.00  0.00    +0.000 A 
ATOM     11  N   UNL     1       5.818   3.415  13.215  0.00  0.00    +0.000 N 
ATOM     12  H   UNL     1       5.094   2.760  13.473  0.00  0.00    +0.000 HD
ENDBRANCH   4   7
BRANCH   6  13
ATOM     13  O   UNL     1       7.868   4.224  18.118  0.00  0.00    +0.000 OA
ATOM     14  H   UNL     1       8.293   3.367  17.921  0.00  0.00    +0.000 HD
ENDBRANCH   6  13
ENDBRANCH   1   2
BRANCH   1  17
ATOM     15  O   UNL     1       3.022   6.471  18.029  0.00  0.00    +0.000 OA
ATOM     16  C   UNL     1       3.619   5.440  18.327  0.00  0.00    +0.000 C 
ATOM     17  N   UNL     1       4.987   5.396  18.499  0.00  0.00    +0.000 N 
ATOM     18  H   UNL     1       5.418   4.528  18.777  0.00  0.00    +0.000 HD
BRANCH  16  19
ATOM     19  C   UNL     1       2.937   4.149  18.488  0.00  0.00    +0.000 A 
ATOM     20  C   UNL     1       2.761   3.157  17.454  0.00  0.00    +0.000 A 
ATOM     21  C   UNL     1       2.092   2.038  17.884  0.00  0.00    +0.000 A 
ATOM     22  S   UNL     1       1.634   2.163  19.516  0.00  0.00    +0.000 S 
ATOM     23  C   UNL     1       2.302   3.743  19.660  0.00  0.00    +0.000 A 
BRANCH  23  24
ATOM     24  C   UNL     1       2.144   4.452  20.972  0.00  0.00    +0.000 C 
ATOM     25  F   UNL     1       1.148   5.381  20.908  0.00  0.00    +0.000 F 
ATOM     26  F   UNL     1       1.776   3.577  21.951  0.00  0.00    +0.000 F 
ENDBRANCH  23  24
ENDBRANCH  16  19
ENDBRANCH   1  17
TORSDOF 6
ENDMDL
MODEL 3
REMARK VINA RESULT:      -7.3      3.742      4.343
REMARK  Name = 
REMARK  6 active torsions:
REMARK  status: ('A' for Active; 'I' for Inactive)
REMARK    1  A    between atoms: C_2  and  C_16
REMARK    2  A    between atoms: N_3  and  C_4
REMARK    3  A    between atoms: C_4  and  C_5
REMARK    4  A    between atoms: C_7  and  C_8
REMARK    5  A    between atoms: C_14  and  O_15
REMARK    6  A    between atoms: C_20  and  C_21
REMARK                            x       y       z     vdW  Elec       q    Type
REMARK                         _______ _______ _______ _____ _____    ______ ____
ROOT
ATOM      1  C   UNL     1       3.557   5.287  19.885  0.00  0.00    +0.000 C 
ENDROOT
BRANCH   1   2
ATOM      2  C   UNL     1       4.920   5.241  19.164  0.00  0.00    +0.000 C 
ATOM      3  C   UNL     1       4.864   6.075  17.865  0.00  0.00    +0.000 C 
ATOM      4  C   UNL     1       4.578   5.079  16.715  0.00  0.00    +0.000 C 
ATOM      5  C   UNL     1       4.534   3.696  17.375  0.00  0.00    +0.000 C 
ATOM      6  C   UNL     1       5.378   3.877  18.629  0.00  0.00    +0.000 C 
BRANCH   4   7
ATOM      7  C   UNL     1       5.641   5.117  15.669  0.00  0.00    +0.000 A 
ATOM      8  N   UNL     1       6.761   5.810  15.692  0.00  0.00    +0.000 NA
ATOM      9  N   UNL     1       7.487   5.487  14.572  0.00  0.00    +0.000 NA
ATOM     10  C   UNL     1       6.794   4.607  13.889  0.00  0.00    +0.000 A 
ATOM     11  N   UNL     1       5.623   4.354  14.531  0.00  0.00    +0.000 N 
ATOM     12  H   UNL     1       4.900   3.712  14.241  0.00  0.00    +0.000 HD
ENDBRANCH   4   7
BRANCH   6  13
ATOM     13  O   UNL     1       5.264   2.801  19.532  0.00  0.00    +0.000 OA
ATOM     14  H   UNL     1       6.116   2.693  19.997  0.00  0.00    +0.000 HD
ENDBRANCH   6  13
ENDBRANCH   1   2
BRANCH   1  17
ATOM     15  O   UNL     1       0.922   5.944  20.720  0.00  0.00    +0.000 OA
ATOM     16  C   UNL     1       1.688   6.845  20.385  0.00  0.00    +0.000 C 
ATOM     17  N   UNL     1       2.951   6.601  19.891  0.00  0.00    +0.000 N 
ATOM     18  H   UNL     1       3.523   7.379  19.600  0.00  0.00    +0.000 HD
BRANCH  16  19
ATOM     19  C   UNL     1       1.344   8.266  20.522  0.00  0.00    +0.000 A 
ATOM     20  C   UNL     1       0.885   8.908  21.731  0.00  0.00    +0.000 A 
ATOM     21  C   UNL     1       0.646  10.251  21.575  0.00  0.00    +0.000 A 
ATOM     22  S   UNL     1       0.933  10.764  19.980  0.00  0.00    +0.000 S 
ATOM     23  C   UNL     1       1.354   9.176  19.466  0.00  0.00    +0.000 A 
BRANCH  23  24
ATOM     24  C   UNL     1       1.681   8.975  18.017  0.00  0.00    +0.000 C 
ATOM     25  F   UNL     1       3.027   8.856  17.832  0.00  0.00    +0.000 F 
ATOM     26  F   UNL     1       1.137   7.812  17.556  0.00  0.00    +0.000 F 
ENDBRANCH  23  24
ENDBRANCH  16  19
ENDBRANCH   1  17
TORSDOF 6
ENDMDL
MODEL 4
REMARK VINA RESULT:      -7.3      0.831      1.126
REMARK  Name = 
REMARK  6 active torsions:
REMARK  status: ('A' for Active; 'I' for Inactive)
REMARK    1  A    between atoms: C_2  and  C_16
REMARK    2  A    between atoms: N_3  and  C_4
REMARK    3  A    between atoms: C_4  and  C_5
REMARK    4  A    between atoms: C_7  and  C_8
REMARK    5  A    between atoms: C_14  and  O_15
REMARK    6  A    between atoms: C_20  and  C_21
REMARK                            x       y       z     vdW  Elec       q    Type
REMARK                         _______ _______ _______ _____ _____    ______ ____
ROOT
ATOM      1  C   UNL     1       5.327   6.339  18.858  0.00  0.00    +0.000 C 
ENDROOT
BRANCH   1   2
ATOM      2  C   UNL     1       5.685   6.660  17.393  0.00  0.00    +0.000 C 
ATOM      3  C   UNL     1       5.143   5.558  16.457  0.00  0.00    +0.000 C 
ATOM      4  C   UNL     1       6.317   4.583  16.199  0.00  0.00    +0.000 C 
ATOM      5  C   UNL     1       7.515   5.181  16.946  0.00  0.00    +0.000 C 
ATOM      6  C   UNL     1       7.175   6.663  17.026  0.00  0.00    +0.000 C 
BRANCH   4   7
ATOM      7  C   UNL     1       6.627   4.458  14.744  0.00  0.00    +0.000 A 
ATOM      8  N   UNL     1       6.009   3.707  13.857  0.00  0.00    +0.000 NA
ATOM      9  N   UNL     1       6.560   3.958  12.625  0.00  0.00    +0.000 NA
ATOM     10  C   UNL     1       7.503   4.854  12.787  0.00  0.00    +0.000 A 
ATOM     11  N   UNL     1       7.591   5.189  14.102  0.00  0.00    +0.000 N 
ATOM     12  H   UNL     1       8.221   5.861  14.516  0.00  0.00    +0.000 HD
ENDBRANCH   4   7
BRANCH   6  13
ATOM     13  O   UNL     1       8.017   7.376  17.904  0.00  0.00    +0.000 OA
ATOM     14  H   UNL     1       7.498   8.090  18.322  0.00  0.00    +0.000 HD
ENDBRANCH   6  13
ENDBRANCH   1   2
BRANCH   1  17
ATOM     15  O   UNL     1       5.323   3.602  19.621  0.00  0.00    +0.000 OA
ATOM     16  C   UNL     1       4.253   4.177  19.445  0.00  0.00    +0.000 C 
ATOM     17  N   UNL     1       4.173   5.478  18.995  0.00  0.00    +0.000 N 
ATOM     18  H   UNL     1       3.264   5.887  18.836  0.00  0.00    +0.000 HD
BRANCH  16  19
ATOM     19  C   UNL     1       2.959   3.547  19.739  0.00  0.00    +0.000 A 
ATOM     20  C   UNL     1       2.249   3.630  20.993  0.00  0.00    +0.000 A 
ATOM     21  C   UNL     1       1.055   2.952  20.987  0.00  0.00    +0.000 A 
ATOM     22  S   UNL     1       0.775   2.177  19.500  0.00  0.00    +0.000 S 
ATOM     23  C   UNL     1       2.275   2.718  18.851  0.00  0.00    +0.000 A 
BRANCH  23  24
ATOM     24  C   UNL     1       2.640   2.269  17.468  0.00  0.00    +0.000 C 
ATOM     25  F   UNL     1       2.760   3.334  16.625  0.00  0.00    +0.000 F 
ATOM     26  F   UNL     1       3.856   1.652  17.467  0.00  0.00    +0.000 F 
ENDBRANCH  23  24
ENDBRANCH  16  19
ENDBRANCH   1  17
TORSDOF 6
ENDMDL
MODEL 5
REMARK VINA RESULT:      -7.2      4.041      4.848
REMARK  Name = 
REMARK  6 active torsions:
REMARK  status: ('A' for Active; 'I' for Inactive)
REMARK    1  A    between atoms: C_2  and  C_16
REMARK    2  A    between atoms: N_3  and  C_4
REMARK    3  A    between atoms: C_4  and  C_5
REMARK    4  A    between atoms: C_7  and  C_8
REMARK    5  A    between atoms: C_14  and  O_15
REMARK    6  A    between atoms: C_20  and  C_21
REMARK                            x       y       z     vdW  Elec       q    Type
REMARK                         _______ _______ _______ _____ _____    ______ ____
ROOT
ATOM      1  C   UNL     1       3.682   5.476  19.672  0.00  0.00    +0.000 C 
ENDROOT
BRANCH   1   2
ATOM      2  C   UNL     1       5.056   5.311  18.990  0.00  0.00    +0.000 C 
ATOM      3  C   UNL     1       5.127   6.179  17.715  0.00  0.00    +0.000 C 
ATOM      4  C   UNL     1       4.780   5.247  16.528  0.00  0.00    +0.000 C 
ATOM      5  C   UNL     1       4.576   3.859  17.147  0.00  0.00    +0.000 C 
ATOM      6  C   UNL     1       5.393   3.922  18.430  0.00  0.00    +0.000 C 
BRANCH   4   7
ATOM      7  C   UNL     1       5.875   5.204  15.516  0.00  0.00    +0.000 A 
ATOM      8  N   UNL     1       7.066   5.760  15.603  0.00  0.00    +0.000 NA
ATOM      9  N   UNL     1       7.788   5.402  14.491  0.00  0.00    +0.000 NA
ATOM     10  C   UNL     1       7.022   4.638  13.749  0.00  0.00    +0.000 A 
ATOM     11  N   UNL     1       5.808   4.497  14.345  0.00  0.00    +0.000 N 
ATOM     12  H   UNL     1       5.026   3.956  14.006  0.00  0.00    +0.000 HD
ENDBRANCH   4   7
BRANCH   6  13
ATOM     13  O   UNL     1       5.143   2.839  19.298  0.00  0.00    +0.000 OA
ATOM     14  H   UNL     1       4.212   2.563  19.190  0.00  0.00    +0.000 HD
ENDBRANCH   6  13
ENDBRANCH   1   2
BRANCH   1  17
ATOM     15  O   UNL     1       1.404   6.615  20.931  0.00  0.00    +0.000 OA
ATOM     16  C   UNL     1       1.926   7.204  19.988  0.00  0.00    +0.000 C 
ATOM     17  N   UNL     1       2.981   6.676  19.274  0.00  0.00    +0.000 N 
ATOM     18  H   UNL     1       3.347   7.191  18.487  0.00  0.00    +0.000 HD
BRANCH  16  19
ATOM     19  C   UNL     1       1.503   8.544  19.561  0.00  0.00    +0.000 A 
ATOM     20  C   UNL     1       1.860   9.182  18.316  0.00  0.00    +0.000 A 
ATOM     21  C   UNL     1       1.316  10.434  18.172  0.00  0.00    +0.000 A 
ATOM     22  S   UNL     1       0.398  10.885  19.530  0.00  0.00    +0.000 S 
ATOM     23  C   UNL     1       0.746   9.410  20.347  0.00  0.00    +0.000 A 
BRANCH  23  24
ATOM     24  C   UNL     1       0.205   9.236  21.734  0.00  0.00    +0.000 C 
ATOM     25  F   UNL     1      -0.694   8.212  21.783  0.00  0.00    +0.000 F 
ATOM     26  F   UNL     1       1.201   8.901  22.603  0.00  0.00    +0.000 F 
ENDBRANCH  23  24
ENDBRANCH  16  19
ENDBRANCH   1  17
TORSDOF 6
ENDMDL
MODEL 6
REMARK VINA RESULT:      -7.2      3.826      7.087
REMARK  Name = 
REMARK  6 active torsions:
REMARK  status: ('A' for Active; 'I' for Inactive)
REMARK    1  A    between atoms: C_2  and  C_16
REMARK    2  A    between atoms: N_3  and  C_4
REMARK    3  A    between atoms: C_4  and  C_5
REMARK    4  A    between atoms: C_7  and  C_8
REMARK    5  A    between atoms: C_14  and  O_15
REMARK    6  A    between atoms: C_20  and  C_21
REMARK                            x       y       z     vdW  Elec       q    Type
REMARK                         _______ _______ _______ _____ _____    ______ ____
ROOT
ATOM      1  C   UNL     1       2.439   3.184  18.209  0.00  0.00    +0.000 C 
ENDROOT
BRANCH   1   2
ATOM      2  C   UNL     1       1.418   4.245  18.667  0.00  0.00    +0.000 C 
ATOM      3  C   UNL     1       1.950   5.664  18.365  0.00  0.00    +0.000 C 
ATOM      4  C   UNL     1       2.599   6.179  19.673  0.00  0.00    +0.000 C 
ATOM      5  C   UNL     1       2.371   5.068  20.705  0.00  0.00    +0.000 C 
ATOM      6  C   UNL     1       1.143   4.341  20.175  0.00  0.00    +0.000 C 
BRANCH   4   7
ATOM      7  C   UNL     1       1.974   7.451  20.139  0.00  0.00    +0.000 A 
ATOM      8  N   UNL     1       1.593   8.472  19.400  0.00  0.00    +0.000 NA
ATOM      9  N   UNL     1       0.993   9.395  20.221  0.00  0.00    +0.000 NA
ATOM     10  C   UNL     1       1.023   8.919  21.443  0.00  0.00    +0.000 A 
ATOM     11  N   UNL     1       1.641   7.708  21.443  0.00  0.00    +0.000 N 
ATOM     12  H   UNL     1       1.797   7.107  22.239  0.00  0.00    +0.000 HD
ENDBRANCH   4   7
BRANCH   6  13
ATOM     13  O   UNL     1       0.903   3.115  20.827  0.00  0.00    +0.000 OA
ATOM     14  H   UNL     1       0.449   2.514  20.205  0.00  0.00    +0.000 HD
ENDBRANCH   6  13
ENDBRANCH   1   2
BRANCH   1  17
ATOM     15  O   UNL     1       5.168   3.817  18.682  0.00  0.00    +0.000 OA
ATOM     16  C   UNL     1       4.724   3.891  17.539  0.00  0.00    +0.000 C 
ATOM     17  N   UNL     1       3.394   3.681  17.243  0.00  0.00    +0.000 N 
ATOM     18  H   UNL     1       3.081   3.790  16.291  0.00  0.00    +0.000 HD
BRANCH  16  19
ATOM     19  C   UNL     1       5.577   4.169  16.376  0.00  0.00    +0.000 A 
ATOM     20  C   UNL     1       5.526   3.475  15.111  0.00  0.00    +0.000 A 
ATOM     21  C   UNL     1       6.434   3.948  14.196  0.00  0.00    +0.000 A 
ATOM     22  S   UNL     1       7.383   5.204  14.837  0.00  0.00    +0.000 S 
ATOM     23  C   UNL     1       6.607   5.108  16.371  0.00  0.00    +0.000 A 
BRANCH  23  24
ATOM     24  C   UNL     1       7.097   6.015  17.459  0.00  0.00    +0.000 C 
ATOM     25  F   UNL     1       7.963   5.362  18.285  0.00  0.00    +0.000 F 
ATOM     26  F   UNL     1       7.797   7.062  16.936  0.00  0.00    +0.000 F 
ENDBRANCH  23  24
ENDBRANCH  16  19
ENDBRANCH   1  17
TORSDOF 6
ENDMDL
MODEL 7
REMARK VINA RESULT:      -7.1      1.092      1.092
REMARK  Name = 
REMARK  6 active torsions:
REMARK  status: ('A' for Active; 'I' for Inactive)
REMARK    1  A    between atoms: C_2  and  C_16
REMARK    2  A    between atoms: N_3  and  C_4
REMARK    3  A    between atoms: C_4  and  C_5
REMARK    4  A    between atoms: C_7  and  C_8
REMARK    5  A    between atoms: C_14  and  O_15
REMARK    6  A    between atoms: C_20  and  C_21
REMARK                            x       y       z     vdW  Elec       q    Type
REMARK                         _______ _______ _______ _____ _____    ______ ____
ROOT
ATOM      1  C   UNL     1       5.520   6.071  18.927  0.00  0.00    +0.000 C 
ENDROOT
BRANCH   1   2
ATOM      2  C   UNL     1       5.391   6.324  17.411  0.00  0.00    +0.000 C 
ATOM      3  C   UNL     1       5.213   4.985  16.661  0.00  0.00    +0.000 C 
ATOM      4  C   UNL     1       6.618   4.576  16.154  0.00  0.00    +0.000 C 
ATOM      5  C   UNL     1       7.551   5.716  16.575  0.00  0.00    +0.000 C 
ATOM      6  C   UNL     1       6.616   6.911  16.697  0.00  0.00    +0.000 C 
BRANCH   4   7
ATOM      7  C   UNL     1       6.646   4.408  14.671  0.00  0.00    +0.000 A 
ATOM      8  N   UNL     1       7.296   5.145  13.795  0.00  0.00    +0.000 NA
ATOM      9  N   UNL     1       7.116   4.592  12.551  0.00  0.00    +0.000 NA
ATOM     10  C   UNL     1       6.357   3.532  12.695  0.00  0.00    +0.000 A 
ATOM     11  N   UNL     1       6.026   3.384  14.005  0.00  0.00    +0.000 N 
ATOM     12  H   UNL     1       5.461   2.650  14.408  0.00  0.00    +0.000 HD
ENDBRANCH   4   7
BRANCH   6  13
ATOM     13  O   UNL     1       7.215   8.019  17.329  0.00  0.00    +0.000 OA
ATOM     14  H   UNL     1       6.676   8.263  18.106  0.00  0.00    +0.000 HD
ENDBRANCH   6  13
ENDBRANCH   1   2
BRANCH   1  17
ATOM     15  O   UNL     1       2.892   6.630  19.851  0.00  0.00    +0.000 OA
ATOM     16  C   UNL     1       3.273   5.464  19.795  0.00  0.00    +0.000 C 
ATOM     17  N   UNL     1       4.559   5.119  19.438  0.00  0.00    +0.000 N 
ATOM     18  H   UNL     1       4.825   4.146  19.443  0.00  0.00    +0.000 HD
BRANCH  16  19
ATOM     19  C   UNL     1       2.382   4.327  20.063  0.00  0.00    +0.000 A 
ATOM     20  C   UNL     1       2.242   3.650  21.331  0.00  0.00    +0.000 A 
ATOM     21  C   UNL     1       1.329   2.625  21.299  0.00  0.00    +0.000 A 
ATOM     22  S   UNL     1       0.649   2.430  19.754  0.00  0.00    +0.000 S 
ATOM     23  C   UNL     1       1.598   3.706  19.094  0.00  0.00    +0.000 A 
BRANCH  23  24
ATOM     24  C   UNL     1       1.462   3.992  17.629  0.00  0.00    +0.000 C 
ATOM     25  F   UNL     1       1.558   5.329  17.381  0.00  0.00    +0.000 F 
ATOM     26  F   UNL     1       2.474   3.408  16.926  0.00  0.00    +0.000 F 
ENDBRANCH  23  24
ENDBRANCH  16  19
ENDBRANCH   1  17
TORSDOF 6
ENDMDL
MODEL 8
REMARK VINA RESULT:      -7.1      1.582      2.032
REMARK  Name = 
REMARK  6 active torsions:
REMARK  status: ('A' for Active; 'I' for Inactive)
REMARK    1  A    between atoms: C_2  and  C_16
REMARK    2  A    between atoms: N_3  and  C_4
REMARK    3  A    between atoms: C_4  and  C_5
REMARK    4  A    between atoms: C_7  and  C_8
REMARK    5  A    between atoms: C_14  and  O_15
REMARK    6  A    between atoms: C_20  and  C_21
REMARK                            x       y       z     vdW  Elec       q    Type
REMARK                         _______ _______ _______ _____ _____    ______ ____
ROOT
ATOM      1  C   UNL     1       6.071   6.488  17.782  0.00  0.00    +0.000 C 
ENDROOT
BRANCH   1   2
ATOM      2  C   UNL     1       6.801   5.953  16.534  0.00  0.00    +0.000 C 
ATOM      3  C   UNL     1       5.863   5.996  15.307  0.00  0.00    +0.000 C 
ATOM      4  C   UNL     1       5.253   4.580  15.170  0.00  0.00    +0.000 C 
ATOM      5  C   UNL     1       5.901   3.748  16.283  0.00  0.00    +0.000 C 
ATOM      6  C   UNL     1       7.212   4.474  16.549  0.00  0.00    +0.000 C 
BRANCH   4   7
ATOM      7  C   UNL     1       5.548   3.975  13.837  0.00  0.00    +0.000 A 
ATOM      8  N   UNL     1       4.680   3.579  12.930  0.00  0.00    +0.000 NA
ATOM      9  N   UNL     1       5.378   3.165  11.822  0.00  0.00    +0.000 NA
ATOM     10  C   UNL     1       6.655   3.315  12.078  0.00  0.00    +0.000 A 
ATOM     11  N   UNL     1       6.812   3.807  13.336  0.00  0.00    +0.000 N 
ATOM     12  H   UNL     1       7.682   4.031  13.795  0.00  0.00    +0.000 HD
ENDBRANCH   4   7
BRANCH   6  13
ATOM     13  O   UNL     1       7.859   4.035  17.721  0.00  0.00    +0.000 OA
ATOM     14  H   UNL     1       8.786   4.340  17.698  0.00  0.00    +0.000 HD
ENDBRANCH   6  13
ENDBRANCH   1   2
BRANCH   1  17
ATOM     15  O   UNL     1       5.718   4.622  19.895  0.00  0.00    +0.000 OA
ATOM     16  C   UNL     1       4.755   4.926  19.196  0.00  0.00    +0.000 C 
ATOM     17  N   UNL     1       4.864   5.758  18.102  0.00  0.00    +0.000 N 
ATOM     18  H   UNL     1       4.044   5.945  17.545  0.00  0.00    +0.000 HD
BRANCH  16  19
ATOM     19  C   UNL     1       3.391   4.464  19.485  0.00  0.00    +0.000 A 
ATOM     20  C   UNL     1       2.466   5.093  20.397  0.00  0.00    +0.000 A 
ATOM     21  C   UNL     1       1.253   4.453  20.467  0.00  0.00    +0.000 A 
ATOM     22  S   UNL     1       1.207   3.075  19.474  0.00  0.00    +0.000 S 
ATOM     23  C   UNL     1       2.833   3.301  18.957  0.00  0.00    +0.000 A 
BRANCH  23  24
ATOM     24  C   UNL     1       3.421   2.278  18.032  0.00  0.00    +0.000 C 
ATOM     25  F   UNL     1       3.904   1.210  18.728  0.00  0.00    +0.000 F 
ATOM     26  F   UNL     1       2.465   1.777  17.197  0.00  0.00    +0.000 F 
ENDBRANCH  23  24
ENDBRANCH  16  19
ENDBRANCH   1  17
TORSDOF 6
ENDMDL
MODEL 9
REMARK VINA RESULT:      -7.0      1.886      2.491
REMARK  Name = 
REMARK  6 active torsions:
REMARK  status: ('A' for Active; 'I' for Inactive)
REMARK    1  A    between atoms: C_2  and  C_16
REMARK    2  A    between atoms: N_3  and  C_4
REMARK    3  A    between atoms: C_4  and  C_5
REMARK    4  A    between atoms: C_7  and  C_8
REMARK    5  A    between atoms: C_14  and  O_15
REMARK    6  A    between atoms: C_20  and  C_21
REMARK                            x       y       z     vdW  Elec       q    Type
REMARK                         _______ _______ _______ _____ _____    ______ ____
ROOT
ATOM      1  C   UNL     1       5.825   6.412  18.407  0.00  0.00    +0.000 C 
ENDROOT
BRANCH   1   2
ATOM      2  C   UNL     1       6.811   6.182  17.243  0.00  0.00    +0.000 C 
ATOM      3  C   UNL     1       6.080   6.319  15.889  0.00  0.00    +0.000 C 
ATOM      4  C   UNL     1       5.709   4.884  15.442  0.00  0.00    +0.000 C 
ATOM      5  C   UNL     1       6.287   3.959  16.520  0.00  0.00    +0.000 C 
ATOM      6  C   UNL     1       7.422   4.779  17.116  0.00  0.00    +0.000 C 
BRANCH   4   7
ATOM      7  C   UNL     1       6.292   4.549  14.110  0.00  0.00    +0.000 A 
ATOM      8  N   UNL     1       5.887   3.617  13.272  0.00  0.00    +0.000 NA
ATOM      9  N   UNL     1       6.648   3.707  12.132  0.00  0.00    +0.000 NA
ATOM     10  C   UNL     1       7.502   4.689  12.300  0.00  0.00    +0.000 A 
ATOM     11  N   UNL     1       7.325   5.238  13.532  0.00  0.00    +0.000 N 
ATOM     12  H   UNL     1       7.834   6.015  13.927  0.00  0.00    +0.000 HD
ENDBRANCH   4   7
BRANCH   6  13
ATOM     13  O   UNL     1       7.934   4.229  18.309  0.00  0.00    +0.000 OA
ATOM     14  H   UNL     1       7.278   4.362  19.020  0.00  0.00    +0.000 HD
ENDBRANCH   6  13
ENDBRANCH   1   2
BRANCH   1  17
ATOM     15  O   UNL     1       2.986   6.503  18.329  0.00  0.00    +0.000 OA
ATOM     16  C   UNL     1       3.548   5.423  18.488  0.00  0.00    +0.000 C 
ATOM     17  N   UNL     1       4.916   5.308  18.620  0.00  0.00    +0.000 N 
ATOM     18  H   UNL     1       5.317   4.397  18.783  0.00  0.00    +0.000 HD
BRANCH  16  19
ATOM     19  C   UNL     1       2.818   4.148  18.511  0.00  0.00    +0.000 A 
ATOM     20  C   UNL     1       2.818   3.161  17.458  0.00  0.00    +0.000 A 
ATOM     21  C   UNL     1       2.054   2.057  17.749  0.00  0.00    +0.000 A 
ATOM     22  S   UNL     1       1.300   2.192  19.266  0.00  0.00    +0.000 S 
ATOM     23  C   UNL     1       1.965   3.756  19.541  0.00  0.00    +0.000 A 
BRANCH  23  24
ATOM     24  C   UNL     1       1.580   4.467  20.803  0.00  0.00    +0.000 C 
ATOM     25  F   UNL     1       2.665   4.661  21.605  0.00  0.00    +0.000 F 
ATOM     26  F   UNL     1       1.092   5.710  20.527  0.00  0.00    +0.000 F 
ENDBRANCH  23  24
ENDBRANCH  16  19
ENDBRANCH   1  17
TORSDOF 6
ENDMDL
