MODEL 1
REMARK VINA RESULT:      -8.0      0.000      0.000
REMARK  Name = 
REMARK  12 active torsions:
REMARK  status: ('A' for Active; 'I' for Inactive)
REMARK    1  A    between atoms: C_1  and  N_2
REMARK    2  A    between atoms: C_5  and  N_6
REMARK    3  A    between atoms: N_6  and  C_7
REMARK    4  A    between atoms: C_10  and  C_11
REMARK    5  A    between atoms: C_11  and  C_12
REMARK    6  A    between atoms: C_15  and  N_16
REMARK    7  A    between atoms: N_16  and  C_17
REMARK    8  A    between atoms: N_16  and  C_20
REMARK    9  A    between atoms: C_17  and  C_18
REMARK   10  A    between atoms: C_18  and  O_19
REMARK   11  A    between atoms: C_20  and  C_21
REMARK   12  A    between atoms: C_21  and  O_22
REMARK                            x       y       z     vdW  Elec       q    Type
REMARK                         _______ _______ _______ _____ _____    ______ ____
ROOT
ATOM      1  C   UNL     1       1.653   8.344  19.838  0.00  0.00    +0.000 A 
ATOM      2  C   UNL     1       1.783   8.832  18.533  0.00  0.00    +0.000 A 
ATOM      3  C   UNL     1       1.078   9.968  18.113  0.00  0.00    +0.000 A 
ATOM      4  C   UNL     1       0.234  10.654  18.996  0.00  0.00    +0.000 A 
ATOM      5  C   UNL     1       0.101  10.171  20.301  0.00  0.00    +0.000 A 
ATOM      6  C   UNL     1       0.805   9.036  20.714  0.00  0.00    +0.000 A 
ENDROOT
BRANCH   1   7
ATOM      7  N   UNL     1       2.426   7.238  20.249  0.00  0.00    +0.000 N 
ATOM      8  H   UNL     1       3.200   7.477  20.861  0.00  0.00    +0.000 HD
BRANCH   7  13
ATOM      9  C   UNL     1       1.457   1.878  18.703  0.00  0.00    +0.000 C 
ATOM     10  N   UNL     1       1.816   3.253  19.105  0.00  0.00    +0.000 N 
ATOM     11  C   UNL     1       1.146   3.794  20.144  0.00  0.00    +0.000 A 
ATOM     12  C   UNL     1       1.366   5.093  20.546  0.00  0.00    +0.000 A 
ATOM     13  C   UNL     1       2.305   5.884  19.888  0.00  0.00    +0.000 A 
ATOM     14  C   UNL     1       3.036   5.313  18.822  0.00  0.00    +0.000 A 
ATOM     15  C   UNL     1       4.009   6.038  18.087  0.00  0.00    +0.000 A 
ATOM     16  C   UNL     1       4.707   5.460  17.028  0.00  0.00    +0.000 A 
ATOM     17  C   UNL     1       4.452   4.150  16.662  0.00  0.00    +0.000 A 
ATOM     18  C   UNL     1       3.491   3.410  17.350  0.00  0.00    +0.000 A 
ATOM     19  C   UNL     1       2.772   3.968  18.433  0.00  0.00    +0.000 A 
ENDBRANCH   7  13
ENDBRANCH   1   7
BRANCH   4  20
ATOM     20  C   UNL     1      -0.506  11.898  18.560  0.00  0.00    +0.000 C 
BRANCH  20  21
ATOM     21  C   UNL     1      -2.012  11.791  18.583  0.00  0.00    +0.000 A 
ATOM     22  C   UNL     1      -2.701  10.941  17.714  0.00  0.00    +0.000 A 
ATOM     23  C   UNL     1      -4.096  10.789  17.807  0.00  0.00    +0.000 A 
ATOM     24  C   UNL     1      -4.862  11.486  18.753  0.00  0.00    +0.000 A 
ATOM     25  C   UNL     1      -4.149  12.359  19.593  0.00  0.00    +0.000 A 
ATOM     26  C   UNL     1      -2.758  12.518  19.511  0.00  0.00    +0.000 A 
BRANCH  24  27
ATOM     27  N   UNL     1      -6.239  11.338  18.859  0.00  0.00    +0.000 N 
BRANCH  27  28
ATOM     28  C   UNL     1      -6.874  10.158  19.493  0.00  0.00    +0.000 C 
BRANCH  28  29
ATOM     29  C   UNL     1      -7.839  10.517  20.636  0.00  0.00    +0.000 C 
BRANCH  29  30
ATOM     30  O   UNL     1      -7.157  11.024  21.780  0.00  0.00    +0.000 OA
ATOM     31  H   UNL     1      -6.230  11.139  21.502  0.00  0.00    +0.000 HD
ENDBRANCH  29  30
ENDBRANCH  28  29
ENDBRANCH  27  28
BRANCH  27  32
ATOM     32  C   UNL     1      -7.158  12.333  18.257  0.00  0.00    +0.000 C 
BRANCH  32  33
ATOM     33  C   UNL     1      -6.606  12.924  16.947  0.00  0.00    +0.000 C 
BRANCH  33  34
ATOM     34  O   UNL     1      -6.451  14.339  17.044  0.00  0.00    +0.000 OA
ATOM     35  H   UNL     1      -7.120  14.705  16.436  0.00  0.00    +0.000 HD
ENDBRANCH  33  34
ENDBRANCH  32  33
ENDBRANCH  27  32
ENDBRANCH  24  27
ENDBRANCH  20  21
ENDBRANCH   4  20
TORSDOF 11
ENDMDL
MODEL 2
REMARK VINA RESULT:      -7.9      0.554      1.013
REMARK  Name = 
REMARK  12 active torsions:
REMARK  status: ('A' for Active; 'I' for Inactive)
REMARK    1  A    between atoms: C_1  and  N_2
REMARK    2  A    between atoms: C_5  and  N_6
REMARK    3  A    between atoms: N_6  and  C_7
REMARK    4  A    between atoms: C_10  and  C_11
REMARK    5  A    between atoms: C_11  and  C_12
REMARK    6  A    between atoms: C_15  and  N_16
REMARK    7  A    between atoms: N_16  and  C_17
REMARK    8  A    between atoms: N_16  and  C_20
REMARK    9  A    between atoms: C_17  and  C_18
REMARK   10  A    between atoms: C_18  and  O_19
REMARK   11  A    between atoms: C_20  and  C_21
REMARK   12  A    between atoms: C_21  and  O_22
REMARK                            x       y       z     vdW  Elec       q    Type
REMARK                         _______ _______ _______ _____ _____    ______ ____
ROOT
ATOM      1  C   UNL     1       1.696   8.244  19.979  0.00  0.00    +0.000 A 
ATOM      2  C   UNL     1       1.740   8.670  18.647  0.00  0.00    +0.000 A 
ATOM      3  C   UNL     1       1.084   9.839  18.241  0.00  0.00    +0.000 A 
ATOM      4  C   UNL     1       0.376  10.620  19.163  0.00  0.00    +0.000 A 
ATOM      5  C   UNL     1       0.329  10.200  20.495  0.00  0.00    +0.000 A 
ATOM      6  C   UNL     1       0.984   9.031  20.895  0.00  0.00    +0.000 A 
ENDROOT
BRANCH   1   7
ATOM      7  N   UNL     1       2.422   7.099  20.370  0.00  0.00    +0.000 N 
ATOM      8  H   UNL     1       3.191   7.291  21.004  0.00  0.00    +0.000 HD
BRANCH   7  13
ATOM      9  C   UNL     1       1.298   1.827  18.636  0.00  0.00    +0.000 C 
ATOM     10  N   UNL     1       1.696   3.175  19.089  0.00  0.00    +0.000 N 
ATOM     11  C   UNL     1       1.024   3.708  20.131  0.00  0.00    +0.000 A 
ATOM     12  C   UNL     1       1.281   4.985  20.578  0.00  0.00    +0.000 A 
ATOM     13  C   UNL     1       2.260   5.761  19.964  0.00  0.00    +0.000 A 
ATOM     14  C   UNL     1       2.994   5.198  18.895  0.00  0.00    +0.000 A 
ATOM     15  C   UNL     1       4.007   5.910  18.203  0.00  0.00    +0.000 A 
ATOM     16  C   UNL     1       4.706   5.341  17.140  0.00  0.00    +0.000 A 
ATOM     17  C   UNL     1       4.413   4.052  16.728  0.00  0.00    +0.000 A 
ATOM     18  C   UNL     1       3.412   3.326  17.373  0.00  0.00    +0.000 A 
ATOM     19  C   UNL     1       2.691   3.876  18.459  0.00  0.00    +0.000 A 
ENDBRANCH   7  13
ENDBRANCH   1   7
BRANCH   4  20
ATOM     20  C   UNL     1      -0.309  11.899  18.739  0.00  0.00    +0.000 C 
BRANCH  20  21
ATOM     21  C   UNL     1      -1.813  11.901  18.881  0.00  0.00    +0.000 A 
ATOM     22  C   UNL     1      -2.445  12.486  19.981  0.00  0.00    +0.000 A 
ATOM     23  C   UNL     1      -3.848  12.555  20.056  0.00  0.00    +0.000 A 
ATOM     24  C   UNL     1      -4.676  12.034  19.050  0.00  0.00    +0.000 A 
ATOM     25  C   UNL     1      -4.015  11.422  17.971  0.00  0.00    +0.000 A 
ATOM     26  C   UNL     1      -2.617  11.348  17.885  0.00  0.00    +0.000 A 
BRANCH  24  27
ATOM     27  N   UNL     1      -6.062  12.104  19.110  0.00  0.00    +0.000 N 
BRANCH  27  28
ATOM     28  C   UNL     1      -6.814  12.065  20.385  0.00  0.00    +0.000 C 
BRANCH  28  29
ATOM     29  C   UNL     1      -7.765  10.862  20.503  0.00  0.00    +0.000 C 
BRANCH  29  30
ATOM     30  O   UNL     1      -7.661  10.211  21.767  0.00  0.00    +0.000 OA
ATOM     31  H   UNL     1      -6.989  10.713  22.264  0.00  0.00    +0.000 HD
ENDBRANCH  29  30
ENDBRANCH  28  29
ENDBRANCH  27  28
BRANCH  27  32
ATOM     32  C   UNL     1      -6.874  12.137  17.869  0.00  0.00    +0.000 C 
BRANCH  32  33
ATOM     33  C   UNL     1      -7.510  13.517  17.623  0.00  0.00    +0.000 C 
BRANCH  33  34
ATOM     34  O   UNL     1      -6.513  14.509  17.383  0.00  0.00    +0.000 OA
ATOM     35  H   UNL     1      -6.723  15.229  18.006  0.00  0.00    +0.000 HD
ENDBRANCH  33  34
ENDBRANCH  32  33
ENDBRANCH  27  32
ENDBRANCH  24  27
ENDBRANCH  20  21
ENDBRANCH   4  20
TORSDOF 11
ENDMDL
MODEL 3
REMARK VINA RESULT:      -7.8      1.466      2.521
REMARK  Name = 
REMARK  12 active torsions:
REMARK  status: ('A' for Active; 'I' for Inactive)
REMARK    1  A    between atoms: C_1  and  N_2
REMARK    2  A    between atoms: C_5  and  N_6
REMARK    3  A    between atoms: N_6  and  C_7
REMARK    4  A    between atoms: C_10  and  C_11
REMARK    5  A    between atoms: C_11  and  C_12
REMARK    6  A    between atoms: C_15  and  N_16
REMARK    7  A    between atoms: N_16  and  C_17
REMARK    8  A    between atoms: N_16  and  C_20
REMARK    9  A    between atoms: C_17  and  C_18
REMARK   10  A    between atoms: C_18  and  O_19
REMARK   11  A    between atoms: C_20  and  C_21
REMARK   12  A    between atoms: C_21  and  O_22
REMARK                            x       y       z     vdW  Elec       q    Type
REMARK                         _______ _______ _______ _____ _____    ______ ____
ROOT
ATOM      1  C   UNL     1       1.539   8.446  19.835  0.00  0.00    +0.000 A 
ATOM      2  C   UNL     1       1.769   9.176  18.663  0.00  0.00    +0.000 A 
ATOM      3  C   UNL     1       1.124  10.398  18.435  0.00  0.00    +0.000 A 
ATOM      4  C   UNL     1       0.239  10.928  19.382  0.00  0.00    +0.000 A 
ATOM      5  C   UNL     1       0.006  10.205  20.555  0.00  0.00    +0.000 A 
ATOM      6  C   UNL     1       0.652   8.984  20.777  0.00  0.00    +0.000 A 
ENDROOT
BRANCH   1   7
ATOM      7  N   UNL     1       2.255   7.252  20.065  0.00  0.00    +0.000 N 
ATOM      8  H   UNL     1       2.497   7.095  21.039  0.00  0.00    +0.000 HD
BRANCH   7  13
ATOM      9  C   UNL     1       4.569   3.489  16.524  0.00  0.00    +0.000 C 
ATOM     10  N   UNL     1       3.868   4.435  17.416  0.00  0.00    +0.000 N 
ATOM     11  C   UNL     1       4.267   5.724  17.396  0.00  0.00    +0.000 A 
ATOM     12  C   UNL     1       3.717   6.662  18.242  0.00  0.00    +0.000 A 
ATOM     13  C   UNL     1       2.717   6.299  19.139  0.00  0.00    +0.000 A 
ATOM     14  C   UNL     1       2.267   4.958  19.141  0.00  0.00    +0.000 A 
ATOM     15  C   UNL     1       1.257   4.491  20.020  0.00  0.00    +0.000 A 
ATOM     16  C   UNL     1       0.841   3.161  20.016  0.00  0.00    +0.000 A 
ATOM     17  C   UNL     1       1.423   2.255  19.146  0.00  0.00    +0.000 A 
ATOM     18  C   UNL     1       2.431   2.673  18.278  0.00  0.00    +0.000 A 
ATOM     19  C   UNL     1       2.868   4.019  18.255  0.00  0.00    +0.000 A 
ENDBRANCH   7  13
ENDBRANCH   1   7
BRANCH   4  20
ATOM     20  C   UNL     1      -0.438  12.261  19.158  0.00  0.00    +0.000 C 
BRANCH  20  21
ATOM     21  C   UNL     1      -1.948  12.221  19.146  0.00  0.00    +0.000 A 
ATOM     22  C   UNL     1      -2.658  11.618  18.104  0.00  0.00    +0.000 A 
ATOM     23  C   UNL     1      -4.059  11.514  18.150  0.00  0.00    +0.000 A 
ATOM     24  C   UNL     1      -4.810  12.017  19.223  0.00  0.00    +0.000 A 
ATOM     25  C   UNL     1      -4.075  12.648  20.241  0.00  0.00    +0.000 A 
ATOM     26  C   UNL     1      -2.677  12.756  20.207  0.00  0.00    +0.000 A 
BRANCH  24  27
ATOM     27  N   UNL     1      -6.194  11.912  19.284  0.00  0.00    +0.000 N 
BRANCH  27  28
ATOM     28  C   UNL     1      -7.038  12.856  20.054  0.00  0.00    +0.000 C 
BRANCH  28  29
ATOM     29  C   UNL     1      -7.732  12.213  21.267  0.00  0.00    +0.000 C 
BRANCH  29  30
ATOM     30  O   UNL     1      -6.809  11.851  22.290  0.00  0.00    +0.000 OA
ATOM     31  H   UNL     1      -7.327  11.843  23.117  0.00  0.00    +0.000 HD
ENDBRANCH  29  30
ENDBRANCH  28  29
ENDBRANCH  27  28
BRANCH  27  32
ATOM     32  C   UNL     1      -6.900  10.780  18.636  0.00  0.00    +0.000 C 
BRANCH  32  33
ATOM     33  C   UNL     1      -6.696   9.454  19.391  0.00  0.00    +0.000 C 
BRANCH  33  34
ATOM     34  O   UNL     1      -7.914   8.717  19.475  0.00  0.00    +0.000 OA
ATOM     35  H   UNL     1      -8.398   8.941  18.659  0.00  0.00    +0.000 HD
ENDBRANCH  33  34
ENDBRANCH  32  33
ENDBRANCH  27  32
ENDBRANCH  24  27
ENDBRANCH  20  21
ENDBRANCH   4  20
TORSDOF 11
ENDMDL
MODEL 4
REMARK VINA RESULT:      -7.7      0.766      1.143
REMARK  Name = 
REMARK  12 active torsions:
REMARK  status: ('A' for Active; 'I' for Inactive)
REMARK    1  A    between atoms: C_1  and  N_2
REMARK    2  A    between atoms: C_5  and  N_6
REMARK    3  A    between atoms: N_6  and  C_7
REMARK    4  A    between atoms: C_10  and  C_11
REMARK    5  A    between atoms: C_11  and  C_12
REMARK    6  A    between atoms: C_15  and  N_16
REMARK    7  A    between atoms: N_16  and  C_17
REMARK    8  A    between atoms: N_16  and  C_20
REMARK    9  A    between atoms: C_17  and  C_18
REMARK   10  A    between atoms: C_18  and  O_19
REMARK   11  A    between atoms: C_20  and  C_21
REMARK   12  A    between atoms: C_21  and  O_22
REMARK                            x       y       z     vdW  Elec       q    Type
REMARK                         _______ _______ _______ _____ _____    ______ ____
ROOT
ATOM      1  C   UNL     1       1.591   7.958  20.313  0.00  0.00    +0.000 A 
ATOM      2  C   UNL     1       0.771   8.799  21.073  0.00  0.00    +0.000 A 
ATOM      3  C   UNL     1       0.213   9.958  20.519  0.00  0.00    +0.000 A 
ATOM      4  C   UNL     1       0.452  10.299  19.181  0.00  0.00    +0.000 A 
ATOM      5  C   UNL     1       1.270   9.462  18.416  0.00  0.00    +0.000 A 
ATOM      6  C   UNL     1       1.826   8.307  18.976  0.00  0.00    +0.000 A 
ENDROOT
BRANCH   1   7
ATOM      7  N   UNL     1       2.083   6.764  20.881  0.00  0.00    +0.000 N 
ATOM      8  H   UNL     1       2.448   6.871  21.822  0.00  0.00    +0.000 HD
BRANCH   7  13
ATOM      9  C   UNL     1       2.075   1.710  18.328  0.00  0.00    +0.000 C 
ATOM     10  N   UNL     1       2.177   3.006  19.029  0.00  0.00    +0.000 N 
ATOM     11  C   UNL     1       1.146   3.373  19.818  0.00  0.00    +0.000 A 
ATOM     12  C   UNL     1       1.125   4.593  20.456  0.00  0.00    +0.000 A 
ATOM     13  C   UNL     1       2.185   5.483  20.308  0.00  0.00    +0.000 A 
ATOM     14  C   UNL     1       3.286   5.092  19.512  0.00  0.00    +0.000 A 
ATOM     15  C   UNL     1       4.410   5.929  19.297  0.00  0.00    +0.000 A 
ATOM     16  C   UNL     1       5.478   5.530  18.495  0.00  0.00    +0.000 A 
ATOM     17  C   UNL     1       5.455   4.292  17.875  0.00  0.00    +0.000 A 
ATOM     18  C   UNL     1       4.359   3.447  18.050  0.00  0.00    +0.000 A 
ATOM     19  C   UNL     1       3.265   3.824  18.864  0.00  0.00    +0.000 A 
ENDBRANCH   7  13
ENDBRANCH   1   7
BRANCH   4  20
ATOM     20  C   UNL     1      -0.171  11.531  18.566  0.00  0.00    +0.000 C 
BRANCH  20  21
ATOM     21  C   UNL     1      -1.678  11.509  18.467  0.00  0.00    +0.000 A 
ATOM     22  C   UNL     1      -2.338  10.723  17.518  0.00  0.00    +0.000 A 
ATOM     23  C   UNL     1      -3.742  10.647  17.494  0.00  0.00    +0.000 A 
ATOM     24  C   UNL     1      -4.544  11.358  18.400  0.00  0.00    +0.000 A 
ATOM     25  C   UNL     1      -3.856  12.165  19.322  0.00  0.00    +0.000 A 
ATOM     26  C   UNL     1      -2.456  12.248  19.356  0.00  0.00    +0.000 A 
BRANCH  24  27
ATOM     27  N   UNL     1      -5.931  11.284  18.392  0.00  0.00    +0.000 N 
BRANCH  27  28
ATOM     28  C   UNL     1      -6.685  10.244  19.130  0.00  0.00    +0.000 C 
BRANCH  28  29
ATOM     29  C   UNL     1      -7.481  10.791  20.326  0.00  0.00    +0.000 C 
BRANCH  29  30
ATOM     30  O   UNL     1      -6.640  11.395  21.306  0.00  0.00    +0.000 OA
ATOM     31  H   UNL     1      -5.784  10.935  21.232  0.00  0.00    +0.000 HD
ENDBRANCH  29  30
ENDBRANCH  28  29
ENDBRANCH  27  28
BRANCH  27  32
ATOM     32  C   UNL     1      -6.736  12.211  17.560  0.00  0.00    +0.000 C 
BRANCH  32  33
ATOM     33  C   UNL     1      -6.722  13.651  18.107  0.00  0.00    +0.000 C 
BRANCH  33  34
ATOM     34  O   UNL     1      -6.446  14.592  17.071  0.00  0.00    +0.000 OA
ATOM     35  H   UNL     1      -7.190  15.221  17.102  0.00  0.00    +0.000 HD
ENDBRANCH  33  34
ENDBRANCH  32  33
ENDBRANCH  27  32
ENDBRANCH  24  27
ENDBRANCH  20  21
ENDBRANCH   4  20
TORSDOF 11
ENDMDL
MODEL 5
REMARK VINA RESULT:      -7.7      0.847      2.034
REMARK  Name = 
REMARK  12 active torsions:
REMARK  status: ('A' for Active; 'I' for Inactive)
REMARK    1  A    between atoms: C_1  and  N_2
REMARK    2  A    between atoms: C_5  and  N_6
REMARK    3  A    between atoms: N_6  and  C_7
REMARK    4  A    between atoms: C_10  and  C_11
REMARK    5  A    between atoms: C_11  and  C_12
REMARK    6  A    between atoms: C_15  and  N_16
REMARK    7  A    between atoms: N_16  and  C_17
REMARK    8  A    between atoms: N_16  and  C_20
REMARK    9  A    between atoms: C_17  and  C_18
REMARK   10  A    between atoms: C_18  and  O_19
REMARK   11  A    between atoms: C_20  and  C_21
REMARK   12  A    between atoms: C_21  and  O_22
REMARK                            x       y       z     vdW  Elec       q    Type
REMARK                         _______ _______ _______ _____ _____    ______ ____
ROOT
ATOM      1  C   UNL     1       1.669   8.297  19.676  0.00  0.00    +0.000 A 
ATOM      2  C   UNL     1       1.655   8.912  18.419  0.00  0.00    +0.000 A 
ATOM      3  C   UNL     1       1.002  10.136  18.221  0.00  0.00    +0.000 A 
ATOM      4  C   UNL     1       0.356  10.783  19.282  0.00  0.00    +0.000 A 
ATOM      5  C   UNL     1       0.367  10.174  20.541  0.00  0.00    +0.000 A 
ATOM      6  C   UNL     1       1.019   8.951  20.732  0.00  0.00    +0.000 A 
ENDROOT
BRANCH   1   7
ATOM      7  N   UNL     1       2.391   7.099  19.858  0.00  0.00    +0.000 N 
ATOM      8  H   UNL     1       2.568   6.865  20.830  0.00  0.00    +0.000 HD
BRANCH   7  13
ATOM      9  C   UNL     1       5.024   3.675  16.197  0.00  0.00    +0.000 C 
ATOM     10  N   UNL     1       4.243   4.534  17.110  0.00  0.00    +0.000 N 
ATOM     11  C   UNL     1       4.622   5.824  17.230  0.00  0.00    +0.000 A 
ATOM     12  C   UNL     1       3.996   6.681  18.108  0.00  0.00    +0.000 A 
ATOM     13  C   UNL     1       2.936   6.233  18.892  0.00  0.00    +0.000 A 
ATOM     14  C   UNL     1       2.509   4.893  18.746  0.00  0.00    +0.000 A 
ATOM     15  C   UNL     1       1.443   4.343  19.502  0.00  0.00    +0.000 A 
ATOM     16  C   UNL     1       1.049   3.015  19.354  0.00  0.00    +0.000 A 
ATOM     17  C   UNL     1       1.709   2.192  18.457  0.00  0.00    +0.000 A 
ATOM     18  C   UNL     1       2.772   2.692  17.707  0.00  0.00    +0.000 A 
ATOM     19  C   UNL     1       3.189   4.038  17.832  0.00  0.00    +0.000 A 
ENDBRANCH   7  13
ENDBRANCH   1   7
BRANCH   4  20
ATOM     20  C   UNL     1      -0.324  12.118  19.084  0.00  0.00    +0.000 C 
BRANCH  20  21
ATOM     21  C   UNL     1      -1.829  12.061  18.962  0.00  0.00    +0.000 A 
ATOM     22  C   UNL     1      -2.454  11.408  17.897  0.00  0.00    +0.000 A 
ATOM     23  C   UNL     1      -3.855  11.290  17.844  0.00  0.00    +0.000 A 
ATOM     24  C   UNL     1      -4.687  11.829  18.836  0.00  0.00    +0.000 A 
ATOM     25  C   UNL     1      -4.035  12.509  19.879  0.00  0.00    +0.000 A 
ATOM     26  C   UNL     1      -2.639  12.632  19.943  0.00  0.00    +0.000 A 
BRANCH  24  27
ATOM     27  N   UNL     1      -6.071  11.712  18.799  0.00  0.00    +0.000 N 
BRANCH  27  28
ATOM     28  C   UNL     1      -6.773  10.418  18.967  0.00  0.00    +0.000 C 
BRANCH  28  29
ATOM     29  C   UNL     1      -7.470  10.267  20.330  0.00  0.00    +0.000 C 
BRANCH  29  30
ATOM     30  O   UNL     1      -6.873  11.082  21.336  0.00  0.00    +0.000 OA
ATOM     31  H   UNL     1      -7.325  10.844  22.166  0.00  0.00    +0.000 HD
ENDBRANCH  29  30
ENDBRANCH  28  29
ENDBRANCH  27  28
BRANCH  27  32
ATOM     32  C   UNL     1      -6.925  12.886  18.498  0.00  0.00    +0.000 C 
BRANCH  32  33
ATOM     33  C   UNL     1      -6.913  13.252  17.003  0.00  0.00    +0.000 C 
BRANCH  33  34
ATOM     34  O   UNL     1      -6.465  14.591  16.803  0.00  0.00    +0.000 OA
ATOM     35  H   UNL     1      -6.238  14.640  15.856  0.00  0.00    +0.000 HD
ENDBRANCH  33  34
ENDBRANCH  32  33
ENDBRANCH  27  32
ENDBRANCH  24  27
ENDBRANCH  20  21
ENDBRANCH   4  20
TORSDOF 11
ENDMDL
MODEL 6
REMARK VINA RESULT:      -7.7      1.105      2.334
REMARK  Name = 
REMARK  12 active torsions:
REMARK  status: ('A' for Active; 'I' for Inactive)
REMARK    1  A    between atoms: C_1  and  N_2
REMARK    2  A    between atoms: C_5  and  N_6
REMARK    3  A    between atoms: N_6  and  C_7
REMARK    4  A    between atoms: C_10  and  C_11
REMARK    5  A    between atoms: C_11  and  C_12
REMARK    6  A    between atoms: C_15  and  N_16
REMARK    7  A    between atoms: N_16  and  C_17
REMARK    8  A    between atoms: N_16  and  C_20
REMARK    9  A    between atoms: C_17  and  C_18
REMARK   10  A    between atoms: C_18  and  O_19
REMARK   11  A    between atoms: C_20  and  C_21
REMARK   12  A    between atoms: C_21  and  O_22
REMARK                            x       y       z     vdW  Elec       q    Type
REMARK                         _______ _______ _______ _____ _____    ______ ____
ROOT
ATOM      1  C   UNL     1       1.387   8.523  20.113  0.00  0.00    +0.000 A 
ATOM      2  C   UNL     1       0.578   9.095  21.100  0.00  0.00    +0.000 A 
ATOM      3  C   UNL     1      -0.050  10.330  20.893  0.00  0.00    +0.000 A 
ATOM      4  C   UNL     1       0.107  11.019  19.683  0.00  0.00    +0.000 A 
ATOM      5  C   UNL     1       0.914  10.451  18.693  0.00  0.00    +0.000 A 
ATOM      6  C   UNL     1       1.539   9.219  18.906  0.00  0.00    +0.000 A 
ENDROOT
BRANCH   1   7
ATOM      7  N   UNL     1       1.951   7.247  20.327  0.00  0.00    +0.000 N 
ATOM      8  H   UNL     1       2.018   6.981  21.304  0.00  0.00    +0.000 HD
BRANCH   7  13
ATOM      9  C   UNL     1       4.506   3.709  16.718  0.00  0.00    +0.000 C 
ATOM     10  N   UNL     1       3.745   4.586  17.632  0.00  0.00    +0.000 N 
ATOM     11  C   UNL     1       4.000   5.910  17.584  0.00  0.00    +0.000 A 
ATOM     12  C   UNL     1       3.389   6.794  18.445  0.00  0.00    +0.000 A 
ATOM     13  C   UNL     1       2.473   6.337  19.389  0.00  0.00    +0.000 A 
ATOM     14  C   UNL     1       2.173   4.956  19.422  0.00  0.00    +0.000 A 
ATOM     15  C   UNL     1       1.258   4.394  20.349  0.00  0.00    +0.000 A 
ATOM     16  C   UNL     1       0.989   3.027  20.375  0.00  0.00    +0.000 A 
ATOM     17  C   UNL     1       1.628   2.177  19.488  0.00  0.00    +0.000 A 
ATOM     18  C   UNL     1       2.546   2.691  18.572  0.00  0.00    +0.000 A 
ATOM     19  C   UNL     1       2.833   4.075  18.519  0.00  0.00    +0.000 A 
ENDBRANCH   7  13
ENDBRANCH   1   7
BRANCH   4  20
ATOM     20  C   UNL     1      -0.591  12.337  19.440  0.00  0.00    +0.000 C 
BRANCH  20  21
ATOM     21  C   UNL     1      -2.090  12.250  19.273  0.00  0.00    +0.000 A 
ATOM     22  C   UNL     1      -2.670  11.575  18.195  0.00  0.00    +0.000 A 
ATOM     23  C   UNL     1      -4.066  11.430  18.101  0.00  0.00    +0.000 A 
ATOM     24  C   UNL     1      -4.938  11.960  19.062  0.00  0.00    +0.000 A 
ATOM     25  C   UNL     1      -4.331  12.662  20.118  0.00  0.00    +0.000 A 
ATOM     26  C   UNL     1      -2.940  12.813  20.223  0.00  0.00    +0.000 A 
BRANCH  24  27
ATOM     27  N   UNL     1      -6.318  11.816  18.984  0.00  0.00    +0.000 N 
BRANCH  27  28
ATOM     28  C   UNL     1      -7.131  11.252  20.087  0.00  0.00    +0.000 C 
BRANCH  28  29
ATOM     29  C   UNL     1      -7.103   9.716  20.150  0.00  0.00    +0.000 C 
BRANCH  29  30
ATOM     30  O   UNL     1      -7.630   9.116  18.970  0.00  0.00    +0.000 OA
ATOM     31  H   UNL     1      -8.586   9.306  18.986  0.00  0.00    +0.000 HD
ENDBRANCH  29  30
ENDBRANCH  28  29
ENDBRANCH  27  28
BRANCH  27  32
ATOM     32  C   UNL     1      -7.047  12.148  17.736  0.00  0.00    +0.000 C 
BRANCH  32  33
ATOM     33  C   UNL     1      -6.953  13.644  17.384  0.00  0.00    +0.000 C 
BRANCH  33  34
ATOM     34  O   UNL     1      -7.394  14.457  18.470  0.00  0.00    +0.000 OA
ATOM     35  H   UNL     1      -8.353  14.562  18.329  0.00  0.00    +0.000 HD
ENDBRANCH  33  34
ENDBRANCH  32  33
ENDBRANCH  27  32
ENDBRANCH  24  27
ENDBRANCH  20  21
ENDBRANCH   4  20
TORSDOF 11
ENDMDL
MODEL 7
REMARK VINA RESULT:      -7.6      0.872      2.376
REMARK  Name = 
REMARK  12 active torsions:
REMARK  status: ('A' for Active; 'I' for Inactive)
REMARK    1  A    between atoms: C_1  and  N_2
REMARK    2  A    between atoms: C_5  and  N_6
REMARK    3  A    between atoms: N_6  and  C_7
REMARK    4  A    between atoms: C_10  and  C_11
REMARK    5  A    between atoms: C_11  and  C_12
REMARK    6  A    between atoms: C_15  and  N_16
REMARK    7  A    between atoms: N_16  and  C_17
REMARK    8  A    between atoms: N_16  and  C_20
REMARK    9  A    between atoms: C_17  and  C_18
REMARK   10  A    between atoms: C_18  and  O_19
REMARK   11  A    between atoms: C_20  and  C_21
REMARK   12  A    between atoms: C_21  and  O_22
REMARK                            x       y       z     vdW  Elec       q    Type
REMARK                         _______ _______ _______ _____ _____    ______ ____
ROOT
ATOM      1  C   UNL     1       1.529   8.476  19.839  0.00  0.00    +0.000 A 
ATOM      2  C   UNL     1       0.719   9.037  20.832  0.00  0.00    +0.000 A 
ATOM      3  C   UNL     1       0.019  10.229  20.604  0.00  0.00    +0.000 A 
ATOM      4  C   UNL     1       0.101  10.883  19.369  0.00  0.00    +0.000 A 
ATOM      5  C   UNL     1       0.908  10.326  18.372  0.00  0.00    +0.000 A 
ATOM      6  C   UNL     1       1.606   9.137  18.605  0.00  0.00    +0.000 A 
ENDROOT
BRANCH   1   7
ATOM      7  N   UNL     1       2.168   7.240  20.075  0.00  0.00    +0.000 N 
ATOM      8  H   UNL     1       2.316   7.030  21.058  0.00  0.00    +0.000 HD
BRANCH   7  13
ATOM      9  C   UNL     1       4.634   3.564  16.544  0.00  0.00    +0.000 C 
ATOM     10  N   UNL     1       3.895   4.485  17.432  0.00  0.00    +0.000 N 
ATOM     11  C   UNL     1       4.260   5.784  17.427  0.00  0.00    +0.000 A 
ATOM     12  C   UNL     1       3.673   6.701  18.270  0.00  0.00    +0.000 A 
ATOM     13  C   UNL     1       2.669   6.306  19.150  0.00  0.00    +0.000 A 
ATOM     14  C   UNL     1       2.256   4.954  19.136  0.00  0.00    +0.000 A 
ATOM     15  C   UNL     1       1.246   4.454  19.997  0.00  0.00    +0.000 A 
ATOM     16  C   UNL     1       0.865   3.113  19.979  0.00  0.00    +0.000 A 
ATOM     17  C   UNL     1       1.484   2.229  19.112  0.00  0.00    +0.000 A 
ATOM     18  C   UNL     1       2.493   2.680  18.261  0.00  0.00    +0.000 A 
ATOM     19  C   UNL     1       2.894   4.037  18.254  0.00  0.00    +0.000 A 
ENDBRANCH   7  13
ENDBRANCH   1   7
BRANCH   4  20
ATOM     20  C   UNL     1      -0.676  12.153  19.105  0.00  0.00    +0.000 C 
BRANCH  20  21
ATOM     21  C   UNL     1      -2.178  12.000  19.107  0.00  0.00    +0.000 A 
ATOM     22  C   UNL     1      -2.973  12.574  20.102  0.00  0.00    +0.000 A 
ATOM     23  C   UNL     1      -4.376  12.495  20.042  0.00  0.00    +0.000 A 
ATOM     24  C   UNL     1      -5.042  11.831  19.001  0.00  0.00    +0.000 A 
ATOM     25  C   UNL     1      -4.219  11.235  18.031  0.00  0.00    +0.000 A 
ATOM     26  C   UNL     1      -2.819  11.308  18.080  0.00  0.00    +0.000 A 
BRANCH  24  27
ATOM     27  N   UNL     1      -6.427  11.754  18.927  0.00  0.00    +0.000 N 
BRANCH  27  28
ATOM     28  C   UNL     1      -7.234  10.910  19.839  0.00  0.00    +0.000 C 
BRANCH  28  29
ATOM     29  C   UNL     1      -7.642  11.622  21.139  0.00  0.00    +0.000 C 
BRANCH  29  30
ATOM     30  O   UNL     1      -7.915  10.706  22.196  0.00  0.00    +0.000 OA
ATOM     31  H   UNL     1      -7.203  10.840  22.848  0.00  0.00    +0.000 HD
ENDBRANCH  29  30
ENDBRANCH  28  29
ENDBRANCH  27  28
BRANCH  27  32
ATOM     32  C   UNL     1      -7.171  12.460  17.857  0.00  0.00    +0.000 C 
BRANCH  32  33
ATOM     33  C   UNL     1      -7.246  13.979  18.101  0.00  0.00    +0.000 C 
BRANCH  33  34
ATOM     34  O   UNL     1      -6.427  14.690  17.175  0.00  0.00    +0.000 OA
ATOM     35  H   UNL     1      -5.672  15.008  17.703  0.00  0.00    +0.000 HD
ENDBRANCH  33  34
ENDBRANCH  32  33
ENDBRANCH  27  32
ENDBRANCH  24  27
ENDBRANCH  20  21
ENDBRANCH   4  20
TORSDOF 11
ENDMDL
MODEL 8
REMARK VINA RESULT:      -7.4      1.489      2.793
REMARK  Name = 
REMARK  12 active torsions:
REMARK  status: ('A' for Active; 'I' for Inactive)
REMARK    1  A    between atoms: C_1  and  N_2
REMARK    2  A    between atoms: C_5  and  N_6
REMARK    3  A    between atoms: N_6  and  C_7
REMARK    4  A    between atoms: C_10  and  C_11
REMARK    5  A    between atoms: C_11  and  C_12
REMARK    6  A    between atoms: C_15  and  N_16
REMARK    7  A    between atoms: N_16  and  C_17
REMARK    8  A    between atoms: N_16  and  C_20
REMARK    9  A    between atoms: C_17  and  C_18
REMARK   10  A    between atoms: C_18  and  O_19
REMARK   11  A    between atoms: C_20  and  C_21
REMARK   12  A    between atoms: C_21  and  O_22
REMARK                            x       y       z     vdW  Elec       q    Type
REMARK                         _______ _______ _______ _____ _____    ______ ____
ROOT
ATOM      1  C   UNL     1       1.253   8.430  20.767  0.00  0.00    +0.000 A 
ATOM      2  C   UNL     1       0.792   8.994  21.962  0.00  0.00    +0.000 A 
ATOM      3  C   UNL     1       0.219  10.272  21.983  0.00  0.00    +0.000 A 
ATOM      4  C   UNL     1       0.080  11.014  20.804  0.00  0.00    +0.000 A 
ATOM      5  C   UNL     1       0.537  10.456  19.607  0.00  0.00    +0.000 A 
ATOM      6  C   UNL     1       1.111   9.180  19.591  0.00  0.00    +0.000 A 
ENDROOT
BRANCH   1   7
ATOM      7  N   UNL     1       1.764   7.115  20.768  0.00  0.00    +0.000 N 
ATOM      8  H   UNL     1       1.779   6.676  21.683  0.00  0.00    +0.000 HD
BRANCH   7  13
ATOM      9  C   UNL     1       4.359   4.207  16.661  0.00  0.00    +0.000 C 
ATOM     10  N   UNL     1       3.588   4.923  17.698  0.00  0.00    +0.000 N 
ATOM     11  C   UNL     1       3.830   6.241  17.857  0.00  0.00    +0.000 A 
ATOM     12  C   UNL     1       3.209   6.974  18.843  0.00  0.00    +0.000 A 
ATOM     13  C   UNL     1       2.297   6.367  19.702  0.00  0.00    +0.000 A 
ATOM     14  C   UNL     1       2.010   4.994  19.519  0.00  0.00    +0.000 A 
ATOM     15  C   UNL     1       1.101   4.286  20.345  0.00  0.00    +0.000 A 
ATOM     16  C   UNL     1       0.846   2.929  20.157  0.00  0.00    +0.000 A 
ATOM     17  C   UNL     1       1.494   2.234  19.151  0.00  0.00    +0.000 A 
ATOM     18  C   UNL     1       2.408   2.893  18.328  0.00  0.00    +0.000 A 
ATOM     19  C   UNL     1       2.681   4.271  18.492  0.00  0.00    +0.000 A 
ENDBRANCH   7  13
ENDBRANCH   1   7
BRANCH   4  20
ATOM     20  C   UNL     1      -0.565  12.381  20.814  0.00  0.00    +0.000 C 
BRANCH  20  21
ATOM     21  C   UNL     1      -2.074  12.381  20.733  0.00  0.00    +0.000 A 
ATOM     22  C   UNL     1      -2.868  12.607  21.860  0.00  0.00    +0.000 A 
ATOM     23  C   UNL     1      -4.268  12.689  21.752  0.00  0.00    +0.000 A 
ATOM     24  C   UNL     1      -4.933  12.535  20.527  0.00  0.00    +0.000 A 
ATOM     25  C   UNL     1      -4.113  12.276  19.415  0.00  0.00    +0.000 A 
ATOM     26  C   UNL     1      -2.716  12.193  19.510  0.00  0.00    +0.000 A 
BRANCH  24  27
ATOM     27  N   UNL     1      -6.314  12.622  20.407  0.00  0.00    +0.000 N 
BRANCH  27  28
ATOM     28  C   UNL     1      -7.239  11.670  21.066  0.00  0.00    +0.000 C 
BRANCH  28  29
ATOM     29  C   UNL     1      -7.387  10.335  20.317  0.00  0.00    +0.000 C 
BRANCH  29  30
ATOM     30  O   UNL     1      -7.533   9.230  21.205  0.00  0.00    +0.000 OA
ATOM     31  H   UNL     1      -8.463   9.249  21.495  0.00  0.00    +0.000 HD
ENDBRANCH  29  30
ENDBRANCH  28  29
ENDBRANCH  27  28
BRANCH  27  32
ATOM     32  C   UNL     1      -6.938  13.640  19.528  0.00  0.00    +0.000 C 
BRANCH  32  33
ATOM     33  C   UNL     1      -6.494  15.071  19.884  0.00  0.00    +0.000 C 
BRANCH  33  34
ATOM     34  O   UNL     1      -5.813  15.686  18.791  0.00  0.00    +0.000 OA
ATOM     35  H   UNL     1      -5.687  14.970  18.142  0.00  0.00    +0.000 HD
ENDBRANCH  33  34
ENDBRANCH  32  33
ENDBRANCH  27  32
ENDBRANCH  24  27
ENDBRANCH  20  21
ENDBRANCH   4  20
TORSDOF 11
ENDMDL
MODEL 9
REMARK VINA RESULT:      -7.3      4.018     10.261
REMARK  Name = 
REMARK  12 active torsions:
REMARK  status: ('A' for Active; 'I' for Inactive)
REMARK    1  A    between atoms: C_1  and  N_2
REMARK    2  A    between atoms: C_5  and  N_6
REMARK    3  A    between atoms: N_6  and  C_7
REMARK    4  A    between atoms: C_10  and  C_11
REMARK    5  A    between atoms: C_11  and  C_12
REMARK    6  A    between atoms: C_15  and  N_16
REMARK    7  A    between atoms: N_16  and  C_17
REMARK    8  A    between atoms: N_16  and  C_20
REMARK    9  A    between atoms: C_17  and  C_18
REMARK   10  A    between atoms: C_18  and  O_19
REMARK   11  A    between atoms: C_20  and  C_21
REMARK   12  A    between atoms: C_21  and  O_22
REMARK                            x       y       z     vdW  Elec       q    Type
REMARK                         _______ _______ _______ _____ _____    ______ ____
ROOT
ATOM      1  C   UNL     1      -1.118  11.912  19.019  0.00  0.00    +0.000 A 
ATOM      2  C   UNL     1      -1.260  10.676  18.380  0.00  0.00    +0.000 A 
ATOM      3  C   UNL     1      -0.141   9.898  18.055  0.00  0.00    +0.000 A 
ATOM      4  C   UNL     1       1.151  10.333  18.374  0.00  0.00    +0.000 A 
ATOM      5  C   UNL     1       1.300  11.568  19.013  0.00  0.00    +0.000 A 
ATOM      6  C   UNL     1       0.180  12.341  19.334  0.00  0.00    +0.000 A 
ENDROOT
BRANCH   1   7
ATOM      7  N   UNL     1      -2.266  12.641  19.392  0.00  0.00    +0.000 N 
ATOM      8  H   UNL     1      -2.553  13.341  18.714  0.00  0.00    +0.000 HD
BRANCH   7  13
ATOM      9  C   UNL     1      -5.044  12.747  24.326  0.00  0.00    +0.000 C 
ATOM     10  N   UNL     1      -4.391  12.646  23.004  0.00  0.00    +0.000 N 
ATOM     11  C   UNL     1      -3.051  12.491  22.980  0.00  0.00    +0.000 A 
ATOM     12  C   UNL     1      -2.351  12.455  21.795  0.00  0.00    +0.000 A 
ATOM     13  C   UNL     1      -3.020  12.569  20.579  0.00  0.00    +0.000 A 
ATOM     14  C   UNL     1      -4.427  12.695  20.594  0.00  0.00    +0.000 A 
ATOM     15  C   UNL     1      -5.197  12.821  19.410  0.00  0.00    +0.000 A 
ATOM     16  C   UNL     1      -6.583  12.961  19.448  0.00  0.00    +0.000 A 
ATOM     17  C   UNL     1      -7.244  12.990  20.665  0.00  0.00    +0.000 A 
ATOM     18  C   UNL     1      -6.519  12.885  21.852  0.00  0.00    +0.000 A 
ATOM     19  C   UNL     1      -5.112  12.735  21.842  0.00  0.00    +0.000 A 
ENDBRANCH   7  13
ENDBRANCH   1   7
BRANCH   4  20
ATOM     20  C   UNL     1       2.361   9.486  18.055  0.00  0.00    +0.000 C 
BRANCH  20  21
ATOM     21  C   UNL     1       2.248   8.030  18.442  0.00  0.00    +0.000 A 
ATOM     22  C   UNL     1       2.385   7.008  17.499  0.00  0.00    +0.000 A 
ATOM     23  C   UNL     1       2.362   5.657  17.890  0.00  0.00    +0.000 A 
ATOM     24  C   UNL     1       2.188   5.270  19.227  0.00  0.00    +0.000 A 
ATOM     25  C   UNL     1       2.019   6.316  20.149  0.00  0.00    +0.000 A 
ATOM     26  C   UNL     1       2.041   7.667  19.772  0.00  0.00    +0.000 A 
BRANCH  24  27
ATOM     27  N   UNL     1       2.171   3.939  19.626  0.00  0.00    +0.000 N 
BRANCH  27  28
ATOM     28  C   UNL     1       3.236   2.977  19.257  0.00  0.00    +0.000 C 
BRANCH  28  29
ATOM     29  C   UNL     1       4.649   3.440  19.650  0.00  0.00    +0.000 C 
BRANCH  29  30
ATOM     30  O   UNL     1       5.563   3.373  18.559  0.00  0.00    +0.000 OA
ATOM     31  H   UNL     1       5.016   3.205  17.770  0.00  0.00    +0.000 HD
ENDBRANCH  29  30
ENDBRANCH  28  29
ENDBRANCH  27  28
BRANCH  27  32
ATOM     32  C   UNL     1       1.023   3.388  20.384  0.00  0.00    +0.000 C 
BRANCH  32  33
ATOM     33  C   UNL     1       1.469   2.568  21.609  0.00  0.00    +0.000 C 
BRANCH  33  34
ATOM     34  O   UNL     1       2.322   3.334  22.458  0.00  0.00    +0.000 OA
ATOM     35  H   UNL     1       2.748   3.980  21.866  0.00  0.00    +0.000 HD
ENDBRANCH  33  34
ENDBRANCH  32  33
ENDBRANCH  27  32
ENDBRANCH  24  27
ENDBRANCH  20  21
ENDBRANCH   4  20
TORSDOF 11
ENDMDL
