MODEL 1
REMARK VINA RESULT:      -6.5      0.000      0.000
REMARK  Name = 
REMARK  6 active torsions:
REMARK  status: ('A' for Active; 'I' for Inactive)
REMARK    1  A    between atoms: C_1  and  C_2
REMARK    2  A    between atoms: C_5  and  C_6
REMARK    3  A    between atoms: N_8  and  C_9
REMARK    4  A    between atoms: C_9  and  C_10
REMARK    5  A    between atoms: C_10  and  N_11
REMARK    6  A    between atoms: N_11  and  C_12
REMARK                            x       y       z     vdW  Elec       q    Type
REMARK                         _______ _______ _______ _____ _____    ______ ____
ROOT
ATOM      1  C   UNL     1       6.789   5.591  15.964  0.00  0.00    +0.000 C 
ATOM      2  O   UNL     1       6.299   6.696  16.181  0.00  0.00    +0.000 OA
ATOM      3  N   UNL     1       7.432   4.880  16.961  0.00  0.00    +0.000 N 
ATOM      4  H   UNL     1       7.828   3.981  16.718  0.00  0.00    +0.000 HD
ENDROOT
BRANCH   1   9
ATOM      5  C   UNL     1       5.656   2.689  11.680  0.00  0.00    +0.000 C 
ATOM      6  C   UNL     1       6.248   3.625  12.676  0.00  0.00    +0.000 A 
ATOM      7  N   UNL     1       7.304   4.377  12.458  0.00  0.00    +0.000 NA
ATOM      8  C   UNL     1       7.583   5.129  13.587  0.00  0.00    +0.000 A 
ATOM      9  C   UNL     1       6.737   4.942  14.664  0.00  0.00    +0.000 A 
ATOM     10  S   UNL     1       5.547   3.778  14.237  0.00  0.00    +0.000 S 
ENDBRANCH   1   9
BRANCH   3  11
ATOM     11  C   UNL     1       7.582   5.400  18.313  0.00  0.00    +0.000 C 
BRANCH  11  12
ATOM     12  C   UNL     1       6.364   5.108  19.203  0.00  0.00    +0.000 C 
BRANCH  12  13
ATOM     13  N   UNL     1       5.715   3.843  18.856  0.00  0.00    +0.000 N 
ATOM     14  H   UNL     1       6.008   3.032  19.396  0.00  0.00    +0.000 HD
BRANCH  13  15
ATOM     15  C   UNL     1       4.363   3.820  18.497  0.00  0.00    +0.000 A 
ATOM     16  C   UNL     1       3.603   4.972  18.286  0.00  0.00    +0.000 A 
ATOM     17  C   UNL     1       2.296   4.860  17.835  0.00  0.00    +0.000 A 
ATOM     18  N   UNL     1       1.691   3.689  17.562  0.00  0.00    +0.000 NA
ATOM     19  C   UNL     1       2.439   2.582  17.744  0.00  0.00    +0.000 A 
ATOM     20  C   UNL     1       3.754   2.597  18.195  0.00  0.00    +0.000 A 
ENDBRANCH  13  15
ENDBRANCH  12  13
ENDBRANCH  11  12
ENDBRANCH   3  11
TORSDOF 5
ENDMDL
MODEL 2
REMARK VINA RESULT:      -6.5      2.980      4.166
REMARK  Name = 
REMARK  6 active torsions:
REMARK  status: ('A' for Active; 'I' for Inactive)
REMARK    1  A    between atoms: C_1  and  C_2
REMARK    2  A    between atoms: C_5  and  C_6
REMARK    3  A    between atoms: N_8  and  C_9
REMARK    4  A    between atoms: C_9  and  C_10
REMARK    5  A    between atoms: C_10  and  N_11
REMARK    6  A    between atoms: N_11  and  C_12
REMARK                            x       y       z     vdW  Elec       q    Type
REMARK                         _______ _______ _______ _____ _____    ______ ____
ROOT
ATOM      1  C   UNL     1       5.149   4.610  18.728  0.00  0.00    +0.000 C 
ATOM      2  O   UNL     1       5.452   5.365  19.648  0.00  0.00    +0.000 OA
ATOM      3  N   UNL     1       4.064   3.756  18.826  0.00  0.00    +0.000 N 
ATOM      4  H   UNL     1       3.872   3.147  18.040  0.00  0.00    +0.000 HD
ENDROOT
BRANCH   1   9
ATOM      5  C   UNL     1       6.768   4.229  13.699  0.00  0.00    +0.000 C 
ATOM      6  C   UNL     1       6.669   4.377  15.178  0.00  0.00    +0.000 A 
ATOM      7  N   UNL     1       7.693   4.575  15.979  0.00  0.00    +0.000 NA
ATOM      8  C   UNL     1       7.249   4.674  17.287  0.00  0.00    +0.000 A 
ATOM      9  C   UNL     1       5.886   4.547  17.477  0.00  0.00    +0.000 A 
ATOM     10  S   UNL     1       5.137   4.295  15.951  0.00  0.00    +0.000 S 
ENDBRANCH   1   9
BRANCH   3  11
ATOM     11  C   UNL     1       3.234   3.687  20.020  0.00  0.00    +0.000 C 
BRANCH  11  12
ATOM     12  C   UNL     1       2.063   4.682  19.990  0.00  0.00    +0.000 C 
BRANCH  12  13
ATOM     13  N   UNL     1       2.439   5.997  20.510  0.00  0.00    +0.000 N 
ATOM     14  H   UNL     1       3.333   6.043  20.994  0.00  0.00    +0.000 HD
BRANCH  13  15
ATOM     15  C   UNL     1       2.132   7.155  19.788  0.00  0.00    +0.000 A 
ATOM     16  C   UNL     1       1.507   8.270  20.351  0.00  0.00    +0.000 A 
ATOM     17  C   UNL     1       1.328   9.416  19.589  0.00  0.00    +0.000 A 
ATOM     18  N   UNL     1       1.737   9.542  18.313  0.00  0.00    +0.000 NA
ATOM     19  C   UNL     1       2.361   8.470  17.783  0.00  0.00    +0.000 A 
ATOM     20  C   UNL     1       2.582   7.282  18.469  0.00  0.00    +0.000 A 
ENDBRANCH  13  15
ENDBRANCH  12  13
ENDBRANCH  11  12
ENDBRANCH   3  11
TORSDOF 5
ENDMDL
MODEL 3
REMARK VINA RESULT:      -6.4      3.080      4.300
REMARK  Name = 
REMARK  6 active torsions:
REMARK  status: ('A' for Active; 'I' for Inactive)
REMARK    1  A    between atoms: C_1  and  C_2
REMARK    2  A    between atoms: C_5  and  C_6
REMARK    3  A    between atoms: N_8  and  C_9
REMARK    4  A    between atoms: C_9  and  C_10
REMARK    5  A    between atoms: C_10  and  N_11
REMARK    6  A    between atoms: N_11  and  C_12
REMARK                            x       y       z     vdW  Elec       q    Type
REMARK                         _______ _______ _______ _____ _____    ______ ____
ROOT
ATOM      1  C   UNL     1       5.287   4.671  18.805  0.00  0.00    +0.000 C 
ATOM      2  O   UNL     1       5.761   5.278  19.760  0.00  0.00    +0.000 OA
ATOM      3  N   UNL     1       4.068   4.022  18.898  0.00  0.00    +0.000 N 
ATOM      4  H   UNL     1       3.735   3.526  18.080  0.00  0.00    +0.000 HD
ENDROOT
BRANCH   1   9
ATOM      5  C   UNL     1       6.607   4.193  13.697  0.00  0.00    +0.000 C 
ATOM      6  C   UNL     1       6.596   4.365  15.177  0.00  0.00    +0.000 A 
ATOM      7  N   UNL     1       7.667   4.563  15.914  0.00  0.00    +0.000 NA
ATOM      8  C   UNL     1       7.301   4.687  17.244  0.00  0.00    +0.000 A 
ATOM      9  C   UNL     1       5.950   4.580  17.514  0.00  0.00    +0.000 A 
ATOM     10  S   UNL     1       5.110   4.314  16.039  0.00  0.00    +0.000 S 
ENDBRANCH   1   9
BRANCH   3  11
ATOM     11  C   UNL     1       3.288   4.006  20.127  0.00  0.00    +0.000 C 
BRANCH  11  12
ATOM     12  C   UNL     1       2.064   4.935  20.069  0.00  0.00    +0.000 C 
BRANCH  12  13
ATOM     13  N   UNL     1       2.355   6.268  20.598  0.00  0.00    +0.000 N 
ATOM     14  H   UNL     1       3.176   6.338  21.195  0.00  0.00    +0.000 HD
BRANCH  13  15
ATOM     15  C   UNL     1       2.135   7.402  19.809  0.00  0.00    +0.000 A 
ATOM     16  C   UNL     1       2.534   7.500  18.474  0.00  0.00    +0.000 A 
ATOM     17  C   UNL     1       2.190   8.622  17.734  0.00  0.00    +0.000 A 
ATOM     18  N   UNL     1       1.464   9.648  18.217  0.00  0.00    +0.000 NA
ATOM     19  C   UNL     1       1.061   9.535  19.499  0.00  0.00    +0.000 A 
ATOM     20  C   UNL     1       1.361   8.451  20.315  0.00  0.00    +0.000 A 
ENDBRANCH  13  15
ENDBRANCH  12  13
ENDBRANCH  11  12
ENDBRANCH   3  11
TORSDOF 5
ENDMDL
MODEL 4
REMARK VINA RESULT:      -6.1      0.614      1.215
REMARK  Name = 
REMARK  6 active torsions:
REMARK  status: ('A' for Active; 'I' for Inactive)
REMARK    1  A    between atoms: C_1  and  C_2
REMARK    2  A    between atoms: C_5  and  C_6
REMARK    3  A    between atoms: N_8  and  C_9
REMARK    4  A    between atoms: C_9  and  C_10
REMARK    5  A    between atoms: C_10  and  N_11
REMARK    6  A    between atoms: N_11  and  C_12
REMARK                            x       y       z     vdW  Elec       q    Type
REMARK                         _______ _______ _______ _____ _____    ______ ____
ROOT
ATOM      1  C   UNL     1       6.555   5.652  15.806  0.00  0.00    +0.000 C 
ATOM      2  O   UNL     1       5.895   6.672  15.978  0.00  0.00    +0.000 OA
ATOM      3  N   UNL     1       7.324   5.111  16.822  0.00  0.00    +0.000 N 
ATOM      4  H   UNL     1       7.858   4.276  16.615  0.00  0.00    +0.000 HD
ENDROOT
BRANCH   1   9
ATOM      5  C   UNL     1       5.713   2.507  11.628  0.00  0.00    +0.000 C 
ATOM      6  C   UNL     1       6.235   3.503  12.605  0.00  0.00    +0.000 A 
ATOM      7  N   UNL     1       7.295   4.256  12.409  0.00  0.00    +0.000 NA
ATOM      8  C   UNL     1       7.497   5.072  13.510  0.00  0.00    +0.000 A 
ATOM      9  C   UNL     1       6.589   4.932  14.543  0.00  0.00    +0.000 A 
ATOM     10  S   UNL     1       5.439   3.731  14.110  0.00  0.00    +0.000 S 
ENDBRANCH   1   9
BRANCH   3  11
ATOM     11  C   UNL     1       7.409   5.722  18.141  0.00  0.00    +0.000 C 
BRANCH  11  12
ATOM     12  C   UNL     1       6.406   5.126  19.140  0.00  0.00    +0.000 C 
BRANCH  12  13
ATOM     13  N   UNL     1       5.051   5.641  18.940  0.00  0.00    +0.000 N 
ATOM     14  H   UNL     1       4.986   6.613  18.645  0.00  0.00    +0.000 HD
BRANCH  13  15
ATOM     15  C   UNL     1       4.058   4.820  18.395  0.00  0.00    +0.000 A 
ATOM     16  C   UNL     1       4.238   3.459  18.144  0.00  0.00    +0.000 A 
ATOM     17  C   UNL     1       3.169   2.696  17.695  0.00  0.00    +0.000 A 
ATOM     18  N   UNL     1       1.931   3.182  17.491  0.00  0.00    +0.000 NA
ATOM     19  C   UNL     1       1.758   4.492  17.760  0.00  0.00    +0.000 A 
ATOM     20  C   UNL     1       2.769   5.332  18.210  0.00  0.00    +0.000 A 
ENDBRANCH  13  15
ENDBRANCH  12  13
ENDBRANCH  11  12
ENDBRANCH   3  11
TORSDOF 5
ENDMDL
MODEL 5
REMARK VINA RESULT:      -6.1      1.999      3.524
REMARK  Name = 
REMARK  6 active torsions:
REMARK  status: ('A' for Active; 'I' for Inactive)
REMARK    1  A    between atoms: C_1  and  C_2
REMARK    2  A    between atoms: C_5  and  C_6
REMARK    3  A    between atoms: N_8  and  C_9
REMARK    4  A    between atoms: C_9  and  C_10
REMARK    5  A    between atoms: C_10  and  N_11
REMARK    6  A    between atoms: N_11  and  C_12
REMARK                            x       y       z     vdW  Elec       q    Type
REMARK                         _______ _______ _______ _____ _____    ______ ____
ROOT
ATOM      1  C   UNL     1       5.459   4.067  18.348  0.00  0.00    +0.000 C 
ATOM      2  O   UNL     1       5.637   4.589  19.445  0.00  0.00    +0.000 OA
ATOM      3  N   UNL     1       4.586   3.006  18.189  0.00  0.00    +0.000 N 
ATOM      4  H   UNL     1       4.492   2.608  17.263  0.00  0.00    +0.000 HD
ENDROOT
BRANCH   1   9
ATOM      5  C   UNL     1       7.249   4.868  13.427  0.00  0.00    +0.000 C 
ATOM      6  C   UNL     1       6.983   4.908  14.893  0.00  0.00    +0.000 A 
ATOM      7  N   UNL     1       7.573   5.724  15.737  0.00  0.00    +0.000 NA
ATOM      8  C   UNL     1       7.091   5.501  17.016  0.00  0.00    +0.000 A 
ATOM      9  C   UNL     1       6.135   4.510  17.140  0.00  0.00    +0.000 A 
ATOM     10  S   UNL     1       5.833   3.837  15.588  0.00  0.00    +0.000 S 
ENDBRANCH   1   9
BRANCH   3  11
ATOM     11  C   UNL     1       3.845   2.436  19.305  0.00  0.00    +0.000 C 
BRANCH  11  12
ATOM     12  C   UNL     1       2.423   2.000  18.916  0.00  0.00    +0.000 C 
BRANCH  12  13
ATOM     13  N   UNL     1       1.428   3.033  19.208  0.00  0.00    +0.000 N 
ATOM     14  H   UNL     1       0.721   2.785  19.897  0.00  0.00    +0.000 HD
BRANCH  13  15
ATOM     15  C   UNL     1       1.801   4.381  19.245  0.00  0.00    +0.000 A 
ATOM     16  C   UNL     1       2.067   5.137  18.102  0.00  0.00    +0.000 A 
ATOM     17  C   UNL     1       2.334   6.494  18.222  0.00  0.00    +0.000 A 
ATOM     18  N   UNL     1       2.341   7.158  19.393  0.00  0.00    +0.000 NA
ATOM     19  C   UNL     1       2.058   6.427  20.490  0.00  0.00    +0.000 A 
ATOM     20  C   UNL     1       1.782   5.065  20.465  0.00  0.00    +0.000 A 
ENDBRANCH  13  15
ENDBRANCH  12  13
ENDBRANCH  11  12
ENDBRANCH   3  11
TORSDOF 5
ENDMDL
MODEL 6
REMARK VINA RESULT:      -6.0      3.707      6.703
REMARK  Name = 
REMARK  6 active torsions:
REMARK  status: ('A' for Active; 'I' for Inactive)
REMARK    1  A    between atoms: C_1  and  C_2
REMARK    2  A    between atoms: C_5  and  C_6
REMARK    3  A    between atoms: N_8  and  C_9
REMARK    4  A    between atoms: C_9  and  C_10
REMARK    5  A    between atoms: C_10  and  N_11
REMARK    6  A    between atoms: N_11  and  C_12
REMARK                            x       y       z     vdW  Elec       q    Type
REMARK                         _______ _______ _______ _____ _____    ______ ____
ROOT
ATOM      1  C   UNL     1       2.881   6.822  18.243  0.00  0.00    +0.000 C 
ATOM      2  O   UNL     1       3.750   6.905  17.380  0.00  0.00    +0.000 OA
ATOM      3  N   UNL     1       2.543   5.607  18.811  0.00  0.00    +0.000 N 
ATOM      4  H   UNL     1       1.809   5.600  19.508  0.00  0.00    +0.000 HD
ENDROOT
BRANCH   1   9
ATOM      5  C   UNL     1       0.203  10.419  21.063  0.00  0.00    +0.000 C 
ATOM      6  C   UNL     1       0.911   9.650  20.001  0.00  0.00    +0.000 A 
ATOM      7  N   UNL     1       1.078  10.064  18.765  0.00  0.00    +0.000 NA
ATOM      8  C   UNL     1       1.781   9.112  18.045  0.00  0.00    +0.000 A 
ATOM      9  C   UNL     1       2.144   7.973  18.739  0.00  0.00    +0.000 A 
ATOM     10  S   UNL     1       1.579   8.108  20.356  0.00  0.00    +0.000 S 
ENDBRANCH   1   9
BRANCH   3  11
ATOM     11  C   UNL     1       3.178   4.359  18.411  0.00  0.00    +0.000 C 
BRANCH  11  12
ATOM     12  C   UNL     1       4.187   3.844  19.450  0.00  0.00    +0.000 C 
BRANCH  12  13
ATOM     13  N   UNL     1       5.508   3.603  18.867  0.00  0.00    +0.000 N 
ATOM     14  H   UNL     1       5.685   2.652  18.550  0.00  0.00    +0.000 HD
BRANCH  13  15
ATOM     15  C   UNL     1       6.120   4.582  18.078  0.00  0.00    +0.000 A 
ATOM     16  C   UNL     1       6.760   5.706  18.605  0.00  0.00    +0.000 A 
ATOM     17  C   UNL     1       7.427   6.578  17.756  0.00  0.00    +0.000 A 
ATOM     18  N   UNL     1       7.520   6.408  16.424  0.00  0.00    +0.000 NA
ATOM     19  C   UNL     1       6.921   5.307  15.926  0.00  0.00    +0.000 A 
ATOM     20  C   UNL     1       6.229   4.382  16.698  0.00  0.00    +0.000 A 
ENDBRANCH  13  15
ENDBRANCH  12  13
ENDBRANCH  11  12
ENDBRANCH   3  11
TORSDOF 5
ENDMDL
MODEL 7
REMARK VINA RESULT:      -5.9      1.378      1.655
REMARK  Name = 
REMARK  6 active torsions:
REMARK  status: ('A' for Active; 'I' for Inactive)
REMARK    1  A    between atoms: C_1  and  C_2
REMARK    2  A    between atoms: C_5  and  C_6
REMARK    3  A    between atoms: N_8  and  C_9
REMARK    4  A    between atoms: C_9  and  C_10
REMARK    5  A    between atoms: C_10  and  N_11
REMARK    6  A    between atoms: N_11  and  C_12
REMARK                            x       y       z     vdW  Elec       q    Type
REMARK                         _______ _______ _______ _____ _____    ______ ____
ROOT
ATOM      1  C   UNL     1       7.014   5.398  16.011  0.00  0.00    +0.000 C 
ATOM      2  O   UNL     1       7.607   6.455  16.202  0.00  0.00    +0.000 OA
ATOM      3  N   UNL     1       6.476   4.675  17.061  0.00  0.00    +0.000 N 
ATOM      4  H   UNL     1       6.010   3.802  16.842  0.00  0.00    +0.000 HD
ENDROOT
BRANCH   1   9
ATOM      5  C   UNL     1       5.384   2.803  11.690  0.00  0.00    +0.000 C 
ATOM      6  C   UNL     1       6.110   3.643  12.683  0.00  0.00    +0.000 A 
ATOM      7  N   UNL     1       7.202   4.329  12.426  0.00  0.00    +0.000 NA
ATOM      8  C   UNL     1       7.611   5.001  13.566  0.00  0.00    +0.000 A 
ATOM      9  C   UNL     1       6.827   4.820  14.690  0.00  0.00    +0.000 A 
ATOM     10  S   UNL     1       5.529   3.766  14.296  0.00  0.00    +0.000 S 
ENDBRANCH   1   9
BRANCH   3  11
ATOM     11  C   UNL     1       6.592   5.111  18.445  0.00  0.00    +0.000 C 
BRANCH  11  12
ATOM     12  C   UNL     1       5.365   4.738  19.293  0.00  0.00    +0.000 C 
BRANCH  12  13
ATOM     13  N   UNL     1       4.113   5.189  18.684  0.00  0.00    +0.000 N 
ATOM     14  H   UNL     1       4.184   5.531  17.728  0.00  0.00    +0.000 HD
BRANCH  13  15
ATOM     15  C   UNL     1       2.916   4.518  18.954  0.00  0.00    +0.000 A 
ATOM     16  C   UNL     1       2.366   3.555  18.105  0.00  0.00    +0.000 A 
ATOM     17  C   UNL     1       1.227   2.865  18.496  0.00  0.00    +0.000 A 
ATOM     18  N   UNL     1       0.602   3.049  19.674  0.00  0.00    +0.000 NA
ATOM     19  C   UNL     1       1.154   3.962  20.499  0.00  0.00    +0.000 A 
ATOM     20  C   UNL     1       2.290   4.702  20.191  0.00  0.00    +0.000 A 
ENDBRANCH  13  15
ENDBRANCH  12  13
ENDBRANCH  11  12
ENDBRANCH   3  11
TORSDOF 5
ENDMDL
MODEL 8
REMARK VINA RESULT:      -5.9      2.966      4.551
REMARK  Name = 
REMARK  6 active torsions:
REMARK  status: ('A' for Active; 'I' for Inactive)
REMARK    1  A    between atoms: C_1  and  C_2
REMARK    2  A    between atoms: C_5  and  C_6
REMARK    3  A    between atoms: N_8  and  C_9
REMARK    4  A    between atoms: C_9  and  C_10
REMARK    5  A    between atoms: C_10  and  N_11
REMARK    6  A    between atoms: N_11  and  C_12
REMARK                            x       y       z     vdW  Elec       q    Type
REMARK                         _______ _______ _______ _____ _____    ______ ____
ROOT
ATOM      1  C   UNL     1       5.204   4.048  17.036  0.00  0.00    +0.000 C 
ATOM      2  O   UNL     1       4.813   3.885  15.885  0.00  0.00    +0.000 OA
ATOM      3  N   UNL     1       4.782   3.223  18.064  0.00  0.00    +0.000 N 
ATOM      4  H   UNL     1       5.128   3.415  18.995  0.00  0.00    +0.000 HD
ENDROOT
BRANCH   1   9
ATOM      5  C   UNL     1       7.898   8.554  17.742  0.00  0.00    +0.000 C 
ATOM      6  C   UNL     1       7.394   7.153  17.769  0.00  0.00    +0.000 A 
ATOM      7  N   UNL     1       7.938   6.177  18.461  0.00  0.00    +0.000 NA
ATOM      8  C   UNL     1       7.219   5.009  18.265  0.00  0.00    +0.000 A 
ATOM      9  C   UNL     1       6.130   5.102  17.419  0.00  0.00    +0.000 A 
ATOM     10  S   UNL     1       6.008   6.719  16.851  0.00  0.00    +0.000 S 
ENDBRANCH   1   9
BRANCH   3  11
ATOM     11  C   UNL     1       3.843   2.131  17.847  0.00  0.00    +0.000 C 
BRANCH  11  12
ATOM     12  C   UNL     1       2.387   2.533  18.129  0.00  0.00    +0.000 C 
BRANCH  12  13
ATOM     13  N   UNL     1       2.074   3.872  17.628  0.00  0.00    +0.000 N 
ATOM     14  H   UNL     1       1.397   3.914  16.869  0.00  0.00    +0.000 HD
BRANCH  13  15
ATOM     15  C   UNL     1       1.997   4.955  18.510  0.00  0.00    +0.000 A 
ATOM     16  C   UNL     1       1.697   4.821  19.867  0.00  0.00    +0.000 A 
ATOM     17  C   UNL     1       1.738   5.935  20.693  0.00  0.00    +0.000 A 
ATOM     18  N   UNL     1       2.072   7.170  20.274  0.00  0.00    +0.000 NA
ATOM     19  C   UNL     1       2.386   7.287  18.968  0.00  0.00    +0.000 A 
ATOM     20  C   UNL     1       2.368   6.229  18.067  0.00  0.00    +0.000 A 
ENDBRANCH  13  15
ENDBRANCH  12  13
ENDBRANCH  11  12
ENDBRANCH   3  11
TORSDOF 5
ENDMDL
MODEL 9
REMARK VINA RESULT:      -5.9      3.239      4.561
REMARK  Name = 
REMARK  6 active torsions:
REMARK  status: ('A' for Active; 'I' for Inactive)
REMARK    1  A    between atoms: C_1  and  C_2
REMARK    2  A    between atoms: C_5  and  C_6
REMARK    3  A    between atoms: N_8  and  C_9
REMARK    4  A    between atoms: C_9  and  C_10
REMARK    5  A    between atoms: C_10  and  N_11
REMARK    6  A    between atoms: N_11  and  C_12
REMARK                            x       y       z     vdW  Elec       q    Type
REMARK                         _______ _______ _______ _____ _____    ______ ____
ROOT
ATOM      1  C   UNL     1       5.258   3.930  18.363  0.00  0.00    +0.000 C 
ATOM      2  O   UNL     1       5.318   3.528  19.521  0.00  0.00    +0.000 OA
ATOM      3  N   UNL     1       4.600   3.208  17.383  0.00  0.00    +0.000 N 
ATOM      4  H   UNL     1       4.596   3.584  16.443  0.00  0.00    +0.000 HD
ENDROOT
BRANCH   1   9
ATOM      5  C   UNL     1       8.148   8.319  17.693  0.00  0.00    +0.000 C 
ATOM      6  C   UNL     1       7.164   7.206  17.583  0.00  0.00    +0.000 A 
ATOM      7  N   UNL     1       6.256   7.102  16.637  0.00  0.00    +0.000 NA
ATOM      8  C   UNL     1       5.513   5.949  16.829  0.00  0.00    +0.000 A 
ATOM      9  C   UNL     1       5.858   5.180  17.924  0.00  0.00    +0.000 A 
ATOM     10  S   UNL     1       7.166   5.937  18.742  0.00  0.00    +0.000 S 
ENDBRANCH   1   9
BRANCH   3  11
ATOM     11  C   UNL     1       3.961   1.929  17.659  0.00  0.00    +0.000 C 
BRANCH  11  12
ATOM     12  C   UNL     1       2.465   1.922  17.305  0.00  0.00    +0.000 C 
BRANCH  12  13
ATOM     13  N   UNL     1       1.615   1.992  18.494  0.00  0.00    +0.000 N 
ATOM     14  H   UNL     1       1.318   1.098  18.880  0.00  0.00    +0.000 HD
BRANCH  13  15
ATOM     15  C   UNL     1       1.837   2.976  19.464  0.00  0.00    +0.000 A 
ATOM     16  C   UNL     1       1.693   4.343  19.219  0.00  0.00    +0.000 A 
ATOM     17  C   UNL     1       1.836   5.247  20.262  0.00  0.00    +0.000 A 
ATOM     18  N   UNL     1       2.097   4.892  21.534  0.00  0.00    +0.000 NA
ATOM     19  C   UNL     1       2.209   3.569  21.768  0.00  0.00    +0.000 A 
ATOM     20  C   UNL     1       2.085   2.593  20.786  0.00  0.00    +0.000 A 
ENDBRANCH  13  15
ENDBRANCH  12  13
ENDBRANCH  11  12
ENDBRANCH   3  11
TORSDOF 5
ENDMDL
