MODEL 1
REMARK VINA RESULT:      -7.4      0.000      0.000
REMARK  Name = 
REMARK  8 active torsions:
REMARK  status: ('A' for Active; 'I' for Inactive)
REMARK    1  A    between atoms: C_1  and  O_2
REMARK    2  A    between atoms: O_2  and  C_3
REMARK    3  A    between atoms: C_14  and  C_15
REMARK    4  A    between atoms: N_17  and  C_18
REMARK    5  A    between atoms: C_18  and  C_19
REMARK    6  A    between atoms: C_19  and  N_20
REMARK    7  A    between atoms: N_20  and  C_21
REMARK    8  A    between atoms: N_20  and  C_22
REMARK                            x       y       z     vdW  Elec       q    Type
REMARK                         _______ _______ _______ _____ _____    ______ ____
ROOT
ATOM      1  C   UNL     1       7.518   5.023  13.137  0.00  0.00    +0.000 A 
ATOM      2  C   UNL     1       6.947   4.245  12.124  0.00  0.00    +0.000 A 
ATOM      3  C   UNL     1       5.925   3.338  12.421  0.00  0.00    +0.000 A 
ATOM      4  C   UNL     1       5.471   3.196  13.731  0.00  0.00    +0.000 A 
ATOM      5  C   UNL     1       6.043   3.962  14.743  0.00  0.00    +0.000 A 
ATOM      6  C   UNL     1       7.061   4.869  14.452  0.00  0.00    +0.000 A 
ATOM      7  O   UNL     1       7.631   5.640  15.436  0.00  0.00    +0.000 OA
ATOM      8  C   UNL     1       7.133   5.470  16.703  0.00  0.00    +0.000 A 
ATOM      9  C   UNL     1       7.699   6.269  17.698  0.00  0.00    +0.000 A 
ATOM     10  C   UNL     1       7.256   6.154  19.010  0.00  0.00    +0.000 A 
ATOM     11  C   UNL     1       6.249   5.239  19.319  0.00  0.00    +0.000 A 
ATOM     12  C   UNL     1       5.665   4.427  18.325  0.00  0.00    +0.000 A 
ATOM     13  C   UNL     1       6.117   4.554  17.003  0.00  0.00    +0.000 A 
ATOM     14  O   UNL     1       5.564   3.777  16.014  0.00  0.00    +0.000 OA
ENDROOT
BRANCH  12  15
ATOM     15  C   UNL     1       4.590   3.491  18.782  0.00  0.00    +0.000 C 
ATOM     16  O   UNL     1       4.769   2.802  19.782  0.00  0.00    +0.000 OA
ATOM     17  N   UNL     1       3.416   3.440  18.066  0.00  0.00    +0.000 N 
ATOM     18  H   UNL     1       3.338   3.918  17.175  0.00  0.00    +0.000 HD
BRANCH  17  19
ATOM     19  C   UNL     1       2.353   2.520  18.415  0.00  0.00    +0.000 C 
BRANCH  19  20
ATOM     20  C   UNL     1       1.065   3.257  18.817  0.00  0.00    +0.000 C 
BRANCH  20  21
ATOM     21  N   UNL     1       0.926   3.537  20.267  0.00  0.00    +0.000 NA
ATOM     22  C   UNL     1       1.619   2.528  21.075  0.00  0.00    +0.000 C 
ATOM     23  C   UNL     1       1.489   4.860  20.557  0.00  0.00    +0.000 C 
ENDBRANCH  20  21
ENDBRANCH  19  20
ENDBRANCH  17  19
ENDBRANCH  12  15
BRANCH   1  25
ATOM     24  C   UNL     1       8.551   6.622  11.715  0.00  0.00    +0.000 C 
ATOM     25  O   UNL     1       8.548   5.909  12.945  0.00  0.00    +0.000 OA
ENDBRANCH   1  25
TORSDOF 5
ENDMDL
MODEL 2
REMARK VINA RESULT:      -7.1      2.285      6.758
REMARK  Name = 
REMARK  8 active torsions:
REMARK  status: ('A' for Active; 'I' for Inactive)
REMARK    1  A    between atoms: C_1  and  O_2
REMARK    2  A    between atoms: O_2  and  C_3
REMARK    3  A    between atoms: C_14  and  C_15
REMARK    4  A    between atoms: N_17  and  C_18
REMARK    5  A    between atoms: C_18  and  C_19
REMARK    6  A    between atoms: C_19  and  N_20
REMARK    7  A    between atoms: N_20  and  C_21
REMARK    8  A    between atoms: N_20  and  C_22
REMARK                            x       y       z     vdW  Elec       q    Type
REMARK                         _______ _______ _______ _____ _____    ______ ____
ROOT
ATOM      1  C   UNL     1       2.671   2.999  19.915  0.00  0.00    +0.000 A 
ATOM      2  C   UNL     1       1.692   2.218  19.293  0.00  0.00    +0.000 A 
ATOM      3  C   UNL     1       1.755   1.969  17.918  0.00  0.00    +0.000 A 
ATOM      4  C   UNL     1       2.791   2.504  17.154  0.00  0.00    +0.000 A 
ATOM      5  C   UNL     1       3.762   3.290  17.768  0.00  0.00    +0.000 A 
ATOM      6  C   UNL     1       3.705   3.540  19.139  0.00  0.00    +0.000 A 
ATOM      7  O   UNL     1       4.659   4.306  19.764  0.00  0.00    +0.000 OA
ATOM      8  C   UNL     1       5.663   4.792  18.966  0.00  0.00    +0.000 A 
ATOM      9  C   UNL     1       6.643   5.553  19.607  0.00  0.00    +0.000 A 
ATOM     10  C   UNL     1       7.692   6.088  18.869  0.00  0.00    +0.000 A 
ATOM     11  C   UNL     1       7.754   5.861  17.494  0.00  0.00    +0.000 A 
ATOM     12  C   UNL     1       6.774   5.092  16.833  0.00  0.00    +0.000 A 
ATOM     13  C   UNL     1       5.720   4.552  17.588  0.00  0.00    +0.000 A 
ATOM     14  O   UNL     1       4.754   3.797  16.970  0.00  0.00    +0.000 OA
ENDROOT
BRANCH  12  15
ATOM     15  C   UNL     1       6.956   4.914  15.358  0.00  0.00    +0.000 C 
ATOM     16  O   UNL     1       7.714   5.660  14.745  0.00  0.00    +0.000 OA
ATOM     17  N   UNL     1       6.268   3.901  14.729  0.00  0.00    +0.000 N 
ATOM     18  H   UNL     1       5.553   3.382  15.226  0.00  0.00    +0.000 HD
BRANCH  17  19
ATOM     19  C   UNL     1       6.352   3.702  13.297  0.00  0.00    +0.000 C 
BRANCH  19  20
ATOM     20  C   UNL     1       4.966   3.728  12.632  0.00  0.00    +0.000 C 
BRANCH  20  21
ATOM     21  N   UNL     1       4.899   3.098  11.292  0.00  0.00    +0.000 NA
ATOM     22  C   UNL     1       5.494   1.757  11.301  0.00  0.00    +0.000 C 
ATOM     23  C   UNL     1       3.495   3.001  10.875  0.00  0.00    +0.000 C 
ENDBRANCH  20  21
ENDBRANCH  19  20
ENDBRANCH  17  19
ENDBRANCH  12  15
BRANCH   1  25
ATOM     24  C   UNL     1       1.565   2.862  22.013  0.00  0.00    +0.000 C 
ATOM     25  O   UNL     1       2.669   3.326  21.247  0.00  0.00    +0.000 OA
ENDBRANCH   1  25
TORSDOF 5
ENDMDL
MODEL 3
REMARK VINA RESULT:      -7.0      3.425      7.347
REMARK  Name = 
REMARK  8 active torsions:
REMARK  status: ('A' for Active; 'I' for Inactive)
REMARK    1  A    between atoms: C_1  and  O_2
REMARK    2  A    between atoms: O_2  and  C_3
REMARK    3  A    between atoms: C_14  and  C_15
REMARK    4  A    between atoms: N_17  and  C_18
REMARK    5  A    between atoms: C_18  and  C_19
REMARK    6  A    between atoms: C_19  and  N_20
REMARK    7  A    between atoms: N_20  and  C_21
REMARK    8  A    between atoms: N_20  and  C_22
REMARK                            x       y       z     vdW  Elec       q    Type
REMARK                         _______ _______ _______ _____ _____    ______ ____
ROOT
ATOM      1  C   UNL     1       1.177   8.657  20.319  0.00  0.00    +0.000 A 
ATOM      2  C   UNL     1       1.290   9.701  19.393  0.00  0.00    +0.000 A 
ATOM      3  C   UNL     1       1.924   9.489  18.165  0.00  0.00    +0.000 A 
ATOM      4  C   UNL     1       2.456   8.239  17.855  0.00  0.00    +0.000 A 
ATOM      5  C   UNL     1       2.353   7.201  18.776  0.00  0.00    +0.000 A 
ATOM      6  C   UNL     1       1.720   7.405  20.002  0.00  0.00    +0.000 A 
ATOM      7  O   UNL     1       1.602   6.391  20.920  0.00  0.00    +0.000 OA
ATOM      8  C   UNL     1       2.128   5.178  20.555  0.00  0.00    +0.000 A 
ATOM      9  C   UNL     1       1.988   4.143  21.481  0.00  0.00    +0.000 A 
ATOM     10  C   UNL     1       2.500   2.884  21.190  0.00  0.00    +0.000 A 
ATOM     11  C   UNL     1       3.150   2.668  19.975  0.00  0.00    +0.000 A 
ATOM     12  C   UNL     1       3.296   3.703  19.028  0.00  0.00    +0.000 A 
ATOM     13  C   UNL     1       2.773   4.969  19.330  0.00  0.00    +0.000 A 
ATOM     14  O   UNL     1       2.899   5.994  18.423  0.00  0.00    +0.000 OA
ENDROOT
BRANCH  12  15
ATOM     15  C   UNL     1       4.007   3.344  17.760  0.00  0.00    +0.000 C 
ATOM     16  O   UNL     1       3.959   2.190  17.343  0.00  0.00    +0.000 OA
ATOM     17  N   UNL     1       4.689   4.331  17.087  0.00  0.00    +0.000 N 
ATOM     18  H   UNL     1       4.823   5.242  17.512  0.00  0.00    +0.000 HD
BRANCH  17  19
ATOM     19  C   UNL     1       5.444   4.048  15.884  0.00  0.00    +0.000 C 
BRANCH  19  20
ATOM     20  C   UNL     1       6.265   5.264  15.422  0.00  0.00    +0.000 C 
BRANCH  20  21
ATOM     21  N   UNL     1       7.329   5.697  16.357  0.00  0.00    +0.000 NA
ATOM     22  C   UNL     1       6.910   6.862  17.144  0.00  0.00    +0.000 C 
ATOM     23  C   UNL     1       7.651   4.590  17.266  0.00  0.00    +0.000 C 
ENDBRANCH  20  21
ENDBRANCH  19  20
ENDBRANCH  17  19
ENDBRANCH  12  15
BRANCH   1  25
ATOM     24  C   UNL     1       0.110  10.069  21.903  0.00  0.00    +0.000 C 
ATOM     25  O   UNL     1       0.606   8.782  21.559  0.00  0.00    +0.000 OA
ENDBRANCH   1  25
TORSDOF 5
ENDMDL
MODEL 4
REMARK VINA RESULT:      -6.9      3.572      7.538
REMARK  Name = 
REMARK  8 active torsions:
REMARK  status: ('A' for Active; 'I' for Inactive)
REMARK    1  A    between atoms: C_1  and  O_2
REMARK    2  A    between atoms: O_2  and  C_3
REMARK    3  A    between atoms: C_14  and  C_15
REMARK    4  A    between atoms: N_17  and  C_18
REMARK    5  A    between atoms: C_18  and  C_19
REMARK    6  A    between atoms: C_19  and  N_20
REMARK    7  A    between atoms: N_20  and  C_21
REMARK    8  A    between atoms: N_20  and  C_22
REMARK                            x       y       z     vdW  Elec       q    Type
REMARK                         _______ _______ _______ _____ _____    ______ ____
ROOT
ATOM      1  C   UNL     1       1.632   4.011  18.761  0.00  0.00    +0.000 A 
ATOM      2  C   UNL     1       1.083   4.493  19.955  0.00  0.00    +0.000 A 
ATOM      3  C   UNL     1       1.794   5.403  20.743  0.00  0.00    +0.000 A 
ATOM      4  C   UNL     1       3.060   5.832  20.351  0.00  0.00    +0.000 A 
ATOM      5  C   UNL     1       3.615   5.349  19.169  0.00  0.00    +0.000 A 
ATOM      6  C   UNL     1       2.909   4.443  18.378  0.00  0.00    +0.000 A 
ATOM      7  O   UNL     1       3.436   3.962  17.204  0.00  0.00    +0.000 OA
ATOM      8  C   UNL     1       4.678   4.432  16.860  0.00  0.00    +0.000 A 
ATOM      9  C   UNL     1       5.202   3.958  15.656  0.00  0.00    +0.000 A 
ATOM     10  C   UNL     1       6.458   4.379  15.238  0.00  0.00    +0.000 A 
ATOM     11  C   UNL     1       7.183   5.273  16.027  0.00  0.00    +0.000 A 
ATOM     12  C   UNL     1       6.665   5.764  17.243  0.00  0.00    +0.000 A 
ATOM     13  C   UNL     1       5.394   5.334  17.655  0.00  0.00    +0.000 A 
ATOM     14  O   UNL     1       4.865   5.798  18.835  0.00  0.00    +0.000 OA
ENDROOT
BRANCH  12  15
ATOM     15  C   UNL     1       7.536   6.722  17.995  0.00  0.00    +0.000 C 
ATOM     16  O   UNL     1       8.141   6.340  18.992  0.00  0.00    +0.000 OA
ATOM     17  N   UNL     1       7.642   8.013  17.532  0.00  0.00    +0.000 N 
ATOM     18  H   UNL     1       7.039   8.342  16.786  0.00  0.00    +0.000 HD
BRANCH  17  19
ATOM     19  C   UNL     1       8.422   9.010  18.235  0.00  0.00    +0.000 C 
BRANCH  19  20
ATOM     20  C   UNL     1       8.309  10.397  17.580  0.00  0.00    +0.000 C 
BRANCH  20  21
ATOM     21  N   UNL     1       9.298  11.397  18.047  0.00  0.00    +0.000 NA
ATOM     22  C   UNL     1       8.771  12.762  17.939  0.00  0.00    +0.000 C 
ATOM     23  C   UNL     1       9.637  11.119  19.448  0.00  0.00    +0.000 C 
ENDBRANCH  20  21
ENDBRANCH  19  20
ENDBRANCH  17  19
ENDBRANCH  12  15
BRANCH   1  25
ATOM     24  C   UNL     1       0.568   1.897  18.565  0.00  0.00    +0.000 C 
ATOM     25  O   UNL     1       1.025   3.092  17.945  0.00  0.00    +0.000 OA
ENDBRANCH   1  25
TORSDOF 5
ENDMDL
MODEL 5
REMARK VINA RESULT:      -6.8      2.954      5.039
REMARK  Name = 
REMARK  8 active torsions:
REMARK  status: ('A' for Active; 'I' for Inactive)
REMARK    1  A    between atoms: C_1  and  O_2
REMARK    2  A    between atoms: O_2  and  C_3
REMARK    3  A    between atoms: C_14  and  C_15
REMARK    4  A    between atoms: N_17  and  C_18
REMARK    5  A    between atoms: C_18  and  C_19
REMARK    6  A    between atoms: C_19  and  N_20
REMARK    7  A    between atoms: N_20  and  C_21
REMARK    8  A    between atoms: N_20  and  C_22
REMARK                            x       y       z     vdW  Elec       q    Type
REMARK                         _______ _______ _______ _____ _____    ______ ____
ROOT
ATOM      1  C   UNL     1       6.291   4.413  15.789  0.00  0.00    +0.000 A 
ATOM      2  C   UNL     1       7.282   5.399  15.862  0.00  0.00    +0.000 A 
ATOM      3  C   UNL     1       7.240   6.370  16.868  0.00  0.00    +0.000 A 
ATOM      4  C   UNL     1       6.206   6.368  17.803  0.00  0.00    +0.000 A 
ATOM      5  C   UNL     1       5.213   5.395  17.728  0.00  0.00    +0.000 A 
ATOM      6  C   UNL     1       5.251   4.424  16.729  0.00  0.00    +0.000 A 
ATOM      7  O   UNL     1       4.286   3.451  16.645  0.00  0.00    +0.000 OA
ATOM      8  C   UNL     1       3.302   3.489  17.601  0.00  0.00    +0.000 A 
ATOM      9  C   UNL     1       2.334   2.486  17.527  0.00  0.00    +0.000 A 
ATOM     10  C   UNL     1       1.299   2.457  18.454  0.00  0.00    +0.000 A 
ATOM     11  C   UNL     1       1.239   3.432  19.450  0.00  0.00    +0.000 A 
ATOM     12  C   UNL     1       2.212   4.449  19.540  0.00  0.00    +0.000 A 
ATOM     13  C   UNL     1       3.255   4.467  18.601  0.00  0.00    +0.000 A 
ATOM     14  O   UNL     1       4.217   5.445  18.668  0.00  0.00    +0.000 OA
ENDROOT
BRANCH  12  15
ATOM     15  C   UNL     1       2.041   5.431  20.657  0.00  0.00    +0.000 C 
ATOM     16  O   UNL     1       2.080   5.041  21.821  0.00  0.00    +0.000 OA
ATOM     17  N   UNL     1       1.854   6.757  20.342  0.00  0.00    +0.000 N 
ATOM     18  H   UNL     1       1.697   7.038  19.380  0.00  0.00    +0.000 HD
BRANCH  17  19
ATOM     19  C   UNL     1       1.627   7.756  21.366  0.00  0.00    +0.000 C 
BRANCH  19  20
ATOM     20  C   UNL     1       0.932   9.007  20.804  0.00  0.00    +0.000 C 
BRANCH  20  21
ATOM     21  N   UNL     1       0.909  10.177  21.714  0.00  0.00    +0.000 NA
ATOM     22  C   UNL     1       0.737  11.430  20.971  0.00  0.00    +0.000 C 
ATOM     23  C   UNL     1      -0.197  10.024  22.666  0.00  0.00    +0.000 C 
ENDBRANCH  20  21
ENDBRANCH  19  20
ENDBRANCH  17  19
ENDBRANCH  12  15
BRANCH   1  25
ATOM     24  C   UNL     1       6.288   3.896  13.471  0.00  0.00    +0.000 C 
ATOM     25  O   UNL     1       6.231   3.447  14.819  0.00  0.00    +0.000 OA
ENDBRANCH   1  25
TORSDOF 5
ENDMDL
MODEL 6
REMARK VINA RESULT:      -6.8      5.346      8.726
REMARK  Name = 
REMARK  8 active torsions:
REMARK  status: ('A' for Active; 'I' for Inactive)
REMARK    1  A    between atoms: C_1  and  O_2
REMARK    2  A    between atoms: O_2  and  C_3
REMARK    3  A    between atoms: C_14  and  C_15
REMARK    4  A    between atoms: N_17  and  C_18
REMARK    5  A    between atoms: C_18  and  C_19
REMARK    6  A    between atoms: C_19  and  N_20
REMARK    7  A    between atoms: N_20  and  C_21
REMARK    8  A    between atoms: N_20  and  C_22
REMARK                            x       y       z     vdW  Elec       q    Type
REMARK                         _______ _______ _______ _____ _____    ______ ____
ROOT
ATOM      1  C   UNL     1      -0.517  11.445  21.336  0.00  0.00    +0.000 A 
ATOM      2  C   UNL     1      -1.043  11.331  22.628  0.00  0.00    +0.000 A 
ATOM      3  C   UNL     1      -0.830  10.170  23.378  0.00  0.00    +0.000 A 
ATOM      4  C   UNL     1      -0.097   9.112  22.842  0.00  0.00    +0.000 A 
ATOM      5  C   UNL     1       0.421   9.218  21.554  0.00  0.00    +0.000 A 
ATOM      6  C   UNL     1       0.213  10.374  20.802  0.00  0.00    +0.000 A 
ATOM      7  O   UNL     1       0.723  10.499  19.533  0.00  0.00    +0.000 OA
ATOM      8  C   UNL     1       1.449   9.435  19.064  0.00  0.00    +0.000 A 
ATOM      9  C   UNL     1       1.985   9.573  17.782  0.00  0.00    +0.000 A 
ATOM     10  C   UNL     1       2.728   8.537  17.231  0.00  0.00    +0.000 A 
ATOM     11  C   UNL     1       2.931   7.367  17.964  0.00  0.00    +0.000 A 
ATOM     12  C   UNL     1       2.400   7.214  19.261  0.00  0.00    +0.000 A 
ATOM     13  C   UNL     1       1.653   8.268  19.811  0.00  0.00    +0.000 A 
ATOM     14  O   UNL     1       1.127   8.146  21.074  0.00  0.00    +0.000 OA
ENDROOT
BRANCH  12  15
ATOM     15  C   UNL     1       2.693   5.917  19.947  0.00  0.00    +0.000 C 
ATOM     16  O   UNL     1       3.835   5.465  19.931  0.00  0.00    +0.000 OA
ATOM     17  N   UNL     1       1.665   5.268  20.592  0.00  0.00    +0.000 N 
ATOM     18  H   UNL     1       0.710   5.590  20.486  0.00  0.00    +0.000 HD
BRANCH  17  19
ATOM     19  C   UNL     1       1.860   3.983  21.231  0.00  0.00    +0.000 C 
BRANCH  19  20
ATOM     20  C   UNL     1       1.176   2.846  20.455  0.00  0.00    +0.000 C 
BRANCH  20  21
ATOM     21  N   UNL     1       2.055   2.108  19.516  0.00  0.00    +0.000 NA
ATOM     22  C   UNL     1       1.943   2.636  18.152  0.00  0.00    +0.000 C 
ATOM     23  C   UNL     1       3.446   2.223  19.967  0.00  0.00    +0.000 C 
ENDBRANCH  20  21
ENDBRANCH  19  20
ENDBRANCH  17  19
ENDBRANCH  12  15
BRANCH   1  25
ATOM     24  C   UNL     1      -1.957  13.195  20.624  0.00  0.00    +0.000 C 
ATOM     25  O   UNL     1      -0.706  12.527  20.516  0.00  0.00    +0.000 OA
ENDBRANCH   1  25
TORSDOF 5
ENDMDL
MODEL 7
REMARK VINA RESULT:      -6.8      0.839      1.220
REMARK  Name = 
REMARK  8 active torsions:
REMARK  status: ('A' for Active; 'I' for Inactive)
REMARK    1  A    between atoms: C_1  and  O_2
REMARK    2  A    between atoms: O_2  and  C_3
REMARK    3  A    between atoms: C_14  and  C_15
REMARK    4  A    between atoms: N_17  and  C_18
REMARK    5  A    between atoms: C_18  and  C_19
REMARK    6  A    between atoms: C_19  and  N_20
REMARK    7  A    between atoms: N_20  and  C_21
REMARK    8  A    between atoms: N_20  and  C_22
REMARK                            x       y       z     vdW  Elec       q    Type
REMARK                         _______ _______ _______ _____ _____    ______ ____
ROOT
ATOM      1  C   UNL     1       7.578   5.017  13.115  0.00  0.00    +0.000 A 
ATOM      2  C   UNL     1       7.029   4.266  12.070  0.00  0.00    +0.000 A 
ATOM      3  C   UNL     1       5.980   3.374  12.317  0.00  0.00    +0.000 A 
ATOM      4  C   UNL     1       5.477   3.221  13.607  0.00  0.00    +0.000 A 
ATOM      5  C   UNL     1       6.027   3.960  14.652  0.00  0.00    +0.000 A 
ATOM      6  C   UNL     1       7.071   4.852  14.411  0.00  0.00    +0.000 A 
ATOM      7  O   UNL     1       7.620   5.596  15.427  0.00  0.00    +0.000 OA
ATOM      8  C   UNL     1       7.075   5.416  16.673  0.00  0.00    +0.000 A 
ATOM      9  C   UNL     1       7.620   6.188  17.700  0.00  0.00    +0.000 A 
ATOM     10  C   UNL     1       7.129   6.061  18.993  0.00  0.00    +0.000 A 
ATOM     11  C   UNL     1       6.095   5.161  19.252  0.00  0.00    +0.000 A 
ATOM     12  C   UNL     1       5.531   4.376  18.225  0.00  0.00    +0.000 A 
ATOM     13  C   UNL     1       6.033   4.515  16.921  0.00  0.00    +0.000 A 
ATOM     14  O   UNL     1       5.500   3.765  15.901  0.00  0.00    +0.000 OA
ENDROOT
BRANCH  12  15
ATOM     15  C   UNL     1       4.424   3.454  18.629  0.00  0.00    +0.000 C 
ATOM     16  O   UNL     1       3.643   3.033  17.780  0.00  0.00    +0.000 OA
ATOM     17  N   UNL     1       4.320   3.093  19.952  0.00  0.00    +0.000 N 
ATOM     18  H   UNL     1       4.892   3.550  20.654  0.00  0.00    +0.000 HD
BRANCH  17  19
ATOM     19  C   UNL     1       3.244   2.249  20.427  0.00  0.00    +0.000 C 
BRANCH  19  20
ATOM     20  C   UNL     1       2.368   2.965  21.469  0.00  0.00    +0.000 C 
BRANCH  20  21
ATOM     21  N   UNL     1       1.239   3.746  20.912  0.00  0.00    +0.000 NA
ATOM     22  C   UNL     1       1.631   5.132  20.634  0.00  0.00    +0.000 C 
ATOM     23  C   UNL     1       0.783   3.114  19.669  0.00  0.00    +0.000 C 
ENDBRANCH  20  21
ENDBRANCH  19  20
ENDBRANCH  17  19
ENDBRANCH  12  15
BRANCH   1  25
ATOM     24  C   UNL     1       8.676   6.636  11.767  0.00  0.00    +0.000 C 
ATOM     25  O   UNL     1       8.630   5.886  12.974  0.00  0.00    +0.000 OA
ENDBRANCH   1  25
TORSDOF 5
ENDMDL
MODEL 8
REMARK VINA RESULT:      -6.8      3.373      7.424
REMARK  Name = 
REMARK  8 active torsions:
REMARK  status: ('A' for Active; 'I' for Inactive)
REMARK    1  A    between atoms: C_1  and  O_2
REMARK    2  A    between atoms: O_2  and  C_3
REMARK    3  A    between atoms: C_14  and  C_15
REMARK    4  A    between atoms: N_17  and  C_18
REMARK    5  A    between atoms: C_18  and  C_19
REMARK    6  A    between atoms: C_19  and  N_20
REMARK    7  A    between atoms: N_20  and  C_21
REMARK    8  A    between atoms: N_20  and  C_22
REMARK                            x       y       z     vdW  Elec       q    Type
REMARK                         _______ _______ _______ _____ _____    ______ ____
ROOT
ATOM      1  C   UNL     1       1.144   8.563  20.123  0.00  0.00    +0.000 A 
ATOM      2  C   UNL     1       1.282   9.598  19.191  0.00  0.00    +0.000 A 
ATOM      3  C   UNL     1       2.017   9.398  18.018  0.00  0.00    +0.000 A 
ATOM      4  C   UNL     1       2.626   8.169  17.771  0.00  0.00    +0.000 A 
ATOM      5  C   UNL     1       2.499   7.140  18.700  0.00  0.00    +0.000 A 
ATOM      6  C   UNL     1       1.765   7.332  19.871  0.00  0.00    +0.000 A 
ATOM      7  O   UNL     1       1.621   6.327  20.794  0.00  0.00    +0.000 OA
ATOM      8  C   UNL     1       2.227   5.134  20.491  0.00  0.00    +0.000 A 
ATOM      9  C   UNL     1       2.062   4.106  21.421  0.00  0.00    +0.000 A 
ATOM     10  C   UNL     1       2.650   2.868  21.192  0.00  0.00    +0.000 A 
ATOM     11  C   UNL     1       3.401   2.665  20.034  0.00  0.00    +0.000 A 
ATOM     12  C   UNL     1       3.573   3.692  19.083  0.00  0.00    +0.000 A 
ATOM     13  C   UNL     1       2.973   4.938  19.322  0.00  0.00    +0.000 A 
ATOM     14  O   UNL     1       3.123   5.955  18.411  0.00  0.00    +0.000 OA
ENDROOT
BRANCH  12  15
ATOM     15  C   UNL     1       4.394   3.348  17.879  0.00  0.00    +0.000 C 
ATOM     16  O   UNL     1       4.166   2.309  17.265  0.00  0.00    +0.000 OA
ATOM     17  N   UNL     1       5.381   4.222  17.486  0.00  0.00    +0.000 N 
ATOM     18  H   UNL     1       5.637   5.005  18.077  0.00  0.00    +0.000 HD
BRANCH  17  19
ATOM     19  C   UNL     1       6.250   3.931  16.365  0.00  0.00    +0.000 C 
BRANCH  19  20
ATOM     20  C   UNL     1       5.648   4.407  15.032  0.00  0.00    +0.000 C 
BRANCH  20  21
ATOM     21  N   UNL     1       6.348   3.926  13.818  0.00  0.00    +0.000 NA
ATOM     22  C   UNL     1       5.404   3.650  12.729  0.00  0.00    +0.000 C 
ATOM     23  C   UNL     1       7.308   4.946  13.379  0.00  0.00    +0.000 C 
ENDBRANCH  20  21
ENDBRANCH  19  20
ENDBRANCH  17  19
ENDBRANCH  12  15
BRANCH   1  25
ATOM     24  C   UNL     1       0.992   9.623  22.244  0.00  0.00    +0.000 C 
ATOM     25  O   UNL     1       0.475   8.679  21.315  0.00  0.00    +0.000 OA
ENDBRANCH   1  25
TORSDOF 5
ENDMDL
MODEL 9
REMARK VINA RESULT:      -6.7      3.245      5.634
REMARK  Name = 
REMARK  8 active torsions:
REMARK  status: ('A' for Active; 'I' for Inactive)
REMARK    1  A    between atoms: C_1  and  O_2
REMARK    2  A    between atoms: O_2  and  C_3
REMARK    3  A    between atoms: C_14  and  C_15
REMARK    4  A    between atoms: N_17  and  C_18
REMARK    5  A    between atoms: C_18  and  C_19
REMARK    6  A    between atoms: C_19  and  N_20
REMARK    7  A    between atoms: N_20  and  C_21
REMARK    8  A    between atoms: N_20  and  C_22
REMARK                            x       y       z     vdW  Elec       q    Type
REMARK                         _______ _______ _______ _____ _____    ______ ____
ROOT
ATOM      1  C   UNL     1       5.939   3.694  12.670  0.00  0.00    +0.000 A 
ATOM      2  C   UNL     1       6.851   4.190  11.731  0.00  0.00    +0.000 A 
ATOM      3  C   UNL     1       7.871   5.060  12.129  0.00  0.00    +0.000 A 
ATOM      4  C   UNL     1       7.984   5.447  13.463  0.00  0.00    +0.000 A 
ATOM      5  C   UNL     1       7.073   4.964  14.398  0.00  0.00    +0.000 A 
ATOM      6  C   UNL     1       6.055   4.094  14.008  0.00  0.00    +0.000 A 
ATOM      7  O   UNL     1       5.153   3.600  14.918  0.00  0.00    +0.000 OA
ATOM      8  C   UNL     1       5.323   4.002  16.219  0.00  0.00    +0.000 A 
ATOM      9  C   UNL     1       4.418   3.482  17.146  0.00  0.00    +0.000 A 
ATOM     10  C   UNL     1       4.516   3.844  18.483  0.00  0.00    +0.000 A 
ATOM     11  C   UNL     1       5.519   4.726  18.886  0.00  0.00    +0.000 A 
ATOM     12  C   UNL     1       6.443   5.257  17.962  0.00  0.00    +0.000 A 
ATOM     13  C   UNL     1       6.337   4.882  16.614  0.00  0.00    +0.000 A 
ATOM     14  O   UNL     1       7.226   5.382  15.694  0.00  0.00    +0.000 OA
ENDROOT
BRANCH  12  15
ATOM     15  C   UNL     1       7.476   6.186  18.520  0.00  0.00    +0.000 C 
ATOM     16  O   UNL     1       8.176   5.824  19.461  0.00  0.00    +0.000 OA
ATOM     17  N   UNL     1       7.619   7.429  17.946  0.00  0.00    +0.000 N 
ATOM     18  H   UNL     1       6.949   7.756  17.258  0.00  0.00    +0.000 HD
BRANCH  17  19
ATOM     19  C   UNL     1       8.559   8.401  18.464  0.00  0.00    +0.000 C 
BRANCH  19  20
ATOM     20  C   UNL     1       8.273   9.816  17.933  0.00  0.00    +0.000 C 
BRANCH  20  21
ATOM     21  N   UNL     1       9.306  10.829  18.255  0.00  0.00    +0.000 NA
ATOM     22  C   UNL     1       8.895  12.169  17.822  0.00  0.00    +0.000 C 
ATOM     23  C   UNL     1       9.536  10.838  19.704  0.00  0.00    +0.000 C 
ENDBRANCH  20  21
ENDBRANCH  19  20
ENDBRANCH  17  19
ENDBRANCH  12  15
BRANCH   1  25
ATOM     24  C   UNL     1       4.135   3.199  11.207  0.00  0.00    +0.000 C 
ATOM     25  O   UNL     1       4.888   2.868  12.366  0.00  0.00    +0.000 OA
ENDBRANCH   1  25
TORSDOF 5
ENDMDL
