MODEL 1
REMARK VINA RESULT:      -8.9      0.000      0.000
REMARK  Name = 
REMARK  4 active torsions:
REMARK  status: ('A' for Active; 'I' for Inactive)
REMARK    1  A    between atoms: C_2  and  C_3
REMARK    2  A    between atoms: C_3  and  C_4
REMARK    3  A    between atoms: C_4  and  C_5
REMARK    4  A    between atoms: N_10  and  C_11
REMARK                            x       y       z     vdW  Elec       q    Type
REMARK                         _______ _______ _______ _____ _____    ______ ____
ROOT
ATOM      1  C   UNL     1       6.343   6.891  17.165  0.00  0.00    +0.000 A 
ATOM      2  C   UNL     1       6.602   5.851  16.280  0.00  0.00    +0.000 A 
ATOM      3  C   UNL     1       5.767   4.732  16.244  0.00  0.00    +0.000 A 
ATOM      4  C   UNL     1       4.693   4.607  17.109  0.00  0.00    +0.000 A 
ATOM      5  N   UNL     1       3.924   3.507  17.036  0.00  0.00    +0.000 NA
ATOM      6  C   UNL     1       2.933   3.387  17.932  0.00  0.00    +0.000 A 
ATOM      7  C   UNL     1       2.145   2.242  17.921  0.00  0.00    +0.000 A 
ATOM      8  C   UNL     1       1.143   2.044  18.869  0.00  0.00    +0.000 A 
ATOM      9  C   UNL     1       0.913   3.017  19.832  0.00  0.00    +0.000 A 
ATOM     10  C   UNL     1       1.684   4.184  19.833  0.00  0.00    +0.000 A 
ATOM     11  C   UNL     1       2.698   4.387  18.905  0.00  0.00    +0.000 A 
ATOM     12  N   UNL     1       3.445   5.510  18.948  0.00  0.00    +0.000 NA
ATOM     13  C   UNL     1       4.452   5.622  18.059  0.00  0.00    +0.000 A 
ATOM     14  C   UNL     1       5.280   6.748  18.068  0.00  0.00    +0.000 A 
ENDROOT
BRANCH   1  17
ATOM     15  O   UNL     1       8.641   7.559  18.883  0.00  0.00    +0.000 OA
ATOM     16  C   UNL     1       8.177   8.339  18.057  0.00  0.00    +0.000 C 
ATOM     17  N   UNL     1       7.108   8.081  17.206  0.00  0.00    +0.000 N 
ATOM     18  H   UNL     1       6.954   8.739  16.452  0.00  0.00    +0.000 HD
BRANCH  16  19
ATOM     19  C   UNL     1       8.729   9.751  17.896  0.00  0.00    +0.000 C 
BRANCH  19  20
ATOM     20  C   UNL     1       9.152  10.413  19.214  0.00  0.00    +0.000 C 
BRANCH  20  21
ATOM     21  C   UNL     1      10.120  11.588  19.037  0.00  0.00    +0.000 C 
ATOM     22  C   UNL     1      11.413  11.500  19.848  0.00  0.00    +0.000 C 
ATOM     23  C   UNL     1      12.308  12.550  19.204  0.00  0.00    +0.000 C 
ATOM     24  C   UNL     1      11.888  12.607  17.734  0.00  0.00    +0.000 C 
ATOM     25  C   UNL     1      10.647  11.725  17.608  0.00  0.00    +0.000 C 
ENDBRANCH  20  21
ENDBRANCH  19  20
ENDBRANCH  16  19
ENDBRANCH   1  17
TORSDOF 4
ENDMDL
MODEL 2
REMARK VINA RESULT:      -8.4      5.625      8.902
REMARK  Name = 
REMARK  4 active torsions:
REMARK  status: ('A' for Active; 'I' for Inactive)
REMARK    1  A    between atoms: C_2  and  C_3
REMARK    2  A    between atoms: C_3  and  C_4
REMARK    3  A    between atoms: C_4  and  C_5
REMARK    4  A    between atoms: N_10  and  C_11
REMARK                            x       y       z     vdW  Elec       q    Type
REMARK                         _______ _______ _______ _____ _____    ______ ____
ROOT
ATOM      1  C   UNL     1       2.565   6.925  18.541  0.00  0.00    +0.000 A 
ATOM      2  C   UNL     1       2.537   7.994  17.653  0.00  0.00    +0.000 A 
ATOM      3  C   UNL     1       1.983   9.217  18.040  0.00  0.00    +0.000 A 
ATOM      4  C   UNL     1       1.414   9.386  19.291  0.00  0.00    +0.000 A 
ATOM      5  N   UNL     1       0.891  10.582  19.611  0.00  0.00    +0.000 NA
ATOM      6  C   UNL     1       0.289  10.691  20.804  0.00  0.00    +0.000 A 
ATOM      7  C   UNL     1      -0.307  11.898  21.154  0.00  0.00    +0.000 A 
ATOM      8  C   UNL     1      -0.996  12.043  22.356  0.00  0.00    +0.000 A 
ATOM      9  C   UNL     1      -1.073  10.969  23.233  0.00  0.00    +0.000 A 
ATOM     10  C   UNL     1      -0.453   9.761  22.900  0.00  0.00    +0.000 A 
ATOM     11  C   UNL     1       0.222   9.595  21.697  0.00  0.00    +0.000 A 
ATOM     12  N   UNL     1       0.786   8.409  21.390  0.00  0.00    +0.000 NA
ATOM     13  C   UNL     1       1.376   8.294  20.183  0.00  0.00    +0.000 A 
ATOM     14  C   UNL     1       1.954   7.083  19.793  0.00  0.00    +0.000 A 
ENDROOT
BRANCH   1  17
ATOM     15  O   UNL     1       1.393   4.565  17.224  0.00  0.00    +0.000 OA
ATOM     16  C   UNL     1       2.553   4.599  17.624  0.00  0.00    +0.000 C 
ATOM     17  N   UNL     1       3.171   5.683  18.237  0.00  0.00    +0.000 N 
ATOM     18  H   UNL     1       4.177   5.636  18.343  0.00  0.00    +0.000 HD
BRANCH  16  19
ATOM     19  C   UNL     1       3.468   3.384  17.516  0.00  0.00    +0.000 C 
BRANCH  19  20
ATOM     20  C   UNL     1       2.802   2.060  17.913  0.00  0.00    +0.000 C 
BRANCH  20  21
ATOM     21  C   UNL     1       2.464   1.956  19.404  0.00  0.00    +0.000 C 
ATOM     22  C   UNL     1       3.415   2.696  20.345  0.00  0.00    +0.000 C 
ATOM     23  C   UNL     1       2.646   2.745  21.659  0.00  0.00    +0.000 C 
ATOM     24  C   UNL     1       1.167   2.785  21.273  0.00  0.00    +0.000 C 
ATOM     25  C   UNL     1       1.113   2.577  19.761  0.00  0.00    +0.000 C 
ENDBRANCH  20  21
ENDBRANCH  19  20
ENDBRANCH  16  19
ENDBRANCH   1  17
TORSDOF 4
ENDMDL
MODEL 3
REMARK VINA RESULT:      -8.2      4.569      6.909
REMARK  Name = 
REMARK  4 active torsions:
REMARK  status: ('A' for Active; 'I' for Inactive)
REMARK    1  A    between atoms: C_2  and  C_3
REMARK    2  A    between atoms: C_3  and  C_4
REMARK    3  A    between atoms: C_4  and  C_5
REMARK    4  A    between atoms: N_10  and  C_11
REMARK                            x       y       z     vdW  Elec       q    Type
REMARK                         _______ _______ _______ _____ _____    ______ ____
ROOT
ATOM      1  C   UNL     1       5.287   5.785  15.676  0.00  0.00    +0.000 A 
ATOM      2  C   UNL     1       4.886   6.974  16.273  0.00  0.00    +0.000 A 
ATOM      3  C   UNL     1       4.109   6.953  17.434  0.00  0.00    +0.000 A 
ATOM      4  C   UNL     1       3.684   5.760  17.994  0.00  0.00    +0.000 A 
ATOM      5  N   UNL     1       2.934   5.796  19.109  0.00  0.00    +0.000 NA
ATOM      6  C   UNL     1       2.484   4.627  19.586  0.00  0.00    +0.000 A 
ATOM      7  C   UNL     1       1.665   4.625  20.710  0.00  0.00    +0.000 A 
ATOM      8  C   UNL     1       1.123   3.442  21.209  0.00  0.00    +0.000 A 
ATOM      9  C   UNL     1       1.423   2.238  20.584  0.00  0.00    +0.000 A 
ATOM     10  C   UNL     1       2.267   2.229  19.470  0.00  0.00    +0.000 A 
ATOM     11  C   UNL     1       2.800   3.403  18.950  0.00  0.00    +0.000 A 
ATOM     12  N   UNL     1       3.589   3.368  17.857  0.00  0.00    +0.000 NA
ATOM     13  C   UNL     1       4.027   4.544  17.366  0.00  0.00    +0.000 A 
ATOM     14  C   UNL     1       4.825   4.578  16.220  0.00  0.00    +0.000 A 
ENDROOT
BRANCH   1  17
ATOM     15  O   UNL     1       7.905   4.470  15.368  0.00  0.00    +0.000 OA
ATOM     16  C   UNL     1       7.368   5.106  14.465  0.00  0.00    +0.000 C 
ATOM     17  N   UNL     1       6.130   5.735  14.541  0.00  0.00    +0.000 N 
ATOM     18  H   UNL     1       5.729   6.059  13.669  0.00  0.00    +0.000 HD
BRANCH  16  19
ATOM     19  C   UNL     1       8.052   5.311  13.119  0.00  0.00    +0.000 C 
BRANCH  19  20
ATOM     20  C   UNL     1       7.230   4.827  11.917  0.00  0.00    +0.000 C 
BRANCH  20  21
ATOM     21  C   UNL     1       6.771   3.369  12.024  0.00  0.00    +0.000 C 
ATOM     22  C   UNL     1       5.328   3.103  11.595  0.00  0.00    +0.000 C 
ATOM     23  C   UNL     1       5.279   1.588  11.439  0.00  0.00    +0.000 C 
ATOM     24  C   UNL     1       6.687   1.168  11.017  0.00  0.00    +0.000 C 
ATOM     25  C   UNL     1       7.556   2.421  11.116  0.00  0.00    +0.000 C 
ENDBRANCH  20  21
ENDBRANCH  19  20
ENDBRANCH  16  19
ENDBRANCH   1  17
TORSDOF 4
ENDMDL
MODEL 4
REMARK VINA RESULT:      -8.2      4.978      7.817
REMARK  Name = 
REMARK  4 active torsions:
REMARK  status: ('A' for Active; 'I' for Inactive)
REMARK    1  A    between atoms: C_2  and  C_3
REMARK    2  A    between atoms: C_3  and  C_4
REMARK    3  A    between atoms: C_4  and  C_5
REMARK    4  A    between atoms: N_10  and  C_11
REMARK                            x       y       z     vdW  Elec       q    Type
REMARK                         _______ _______ _______ _____ _____    ______ ____
ROOT
ATOM      1  C   UNL     1       2.540   7.273  18.758  0.00  0.00    +0.000 A 
ATOM      2  C   UNL     1       2.277   8.195  17.751  0.00  0.00    +0.000 A 
ATOM      3  C   UNL     1       1.544   9.352  18.030  0.00  0.00    +0.000 A 
ATOM      4  C   UNL     1       1.027   9.590  19.292  0.00  0.00    +0.000 A 
ATOM      5  N   UNL     1       0.324  10.716  19.505  0.00  0.00    +0.000 NA
ATOM      6  C   UNL     1      -0.219  10.882  20.720  0.00  0.00    +0.000 A 
ATOM      7  C   UNL     1      -0.993  12.010  20.967  0.00  0.00    +0.000 A 
ATOM      8  C   UNL     1      -1.627  12.199  22.193  0.00  0.00    +0.000 A 
ATOM      9  C   UNL     1      -1.467  11.253  23.196  0.00  0.00    +0.000 A 
ATOM     10  C   UNL     1      -0.668  10.129  22.965  0.00  0.00    +0.000 A 
ATOM     11  C   UNL     1      -0.044   9.918  21.741  0.00  0.00    +0.000 A 
ATOM     12  N   UNL     1       0.697   8.810  21.536  0.00  0.00    +0.000 NA
ATOM     13  C   UNL     1       1.228   8.634  20.311  0.00  0.00    +0.000 A 
ATOM     14  C   UNL     1       1.984   7.494  20.026  0.00  0.00    +0.000 A 
ENDROOT
BRANCH   1  17
ATOM     15  O   UNL     1       1.756   4.654  17.663  0.00  0.00    +0.000 OA
ATOM     16  C   UNL     1       2.895   4.901  18.049  0.00  0.00    +0.000 C 
ATOM     17  N   UNL     1       3.333   6.118  18.559  0.00  0.00    +0.000 N 
ATOM     18  H   UNL     1       4.333   6.237  18.662  0.00  0.00    +0.000 HD
BRANCH  16  19
ATOM     19  C   UNL     1       3.987   3.838  18.042  0.00  0.00    +0.000 C 
BRANCH  19  20
ATOM     20  C   UNL     1       5.404   4.395  17.859  0.00  0.00    +0.000 C 
BRANCH  20  21
ATOM     21  C   UNL     1       6.014   4.105  16.483  0.00  0.00    +0.000 C 
ATOM     22  C   UNL     1       5.024   4.080  15.319  0.00  0.00    +0.000 C 
ATOM     23  C   UNL     1       5.919   4.159  14.090  0.00  0.00    +0.000 C 
ATOM     24  C   UNL     1       7.147   4.962  14.522  0.00  0.00    +0.000 C 
ATOM     25  C   UNL     1       7.014   5.169  16.030  0.00  0.00    +0.000 C 
ENDBRANCH  20  21
ENDBRANCH  19  20
ENDBRANCH  16  19
ENDBRANCH   1  17
TORSDOF 4
ENDMDL
MODEL 5
REMARK VINA RESULT:      -8.1      5.062      7.841
REMARK  Name = 
REMARK  4 active torsions:
REMARK  status: ('A' for Active; 'I' for Inactive)
REMARK    1  A    between atoms: C_2  and  C_3
REMARK    2  A    between atoms: C_3  and  C_4
REMARK    3  A    between atoms: C_4  and  C_5
REMARK    4  A    between atoms: N_10  and  C_11
REMARK                            x       y       z     vdW  Elec       q    Type
REMARK                         _______ _______ _______ _____ _____    ______ ____
ROOT
ATOM      1  C   UNL     1       2.445   7.260  18.989  0.00  0.00    +0.000 A 
ATOM      2  C   UNL     1       2.219   8.146  17.943  0.00  0.00    +0.000 A 
ATOM      3  C   UNL     1       1.498   9.323  18.162  0.00  0.00    +0.000 A 
ATOM      4  C   UNL     1       0.957   9.617  19.401  0.00  0.00    +0.000 A 
ATOM      5  N   UNL     1       0.268  10.760  19.556  0.00  0.00    +0.000 NA
ATOM      6  C   UNL     1      -0.300  10.981  20.751  0.00  0.00    +0.000 A 
ATOM      7  C   UNL     1      -1.062  12.129  20.937  0.00  0.00    +0.000 A 
ATOM      8  C   UNL     1      -1.719  12.374  22.141  0.00  0.00    +0.000 A 
ATOM      9  C   UNL     1      -1.597  11.464  23.182  0.00  0.00    +0.000 A 
ATOM     10  C   UNL     1      -0.810  10.321  23.012  0.00  0.00    +0.000 A 
ATOM     11  C   UNL     1      -0.163  10.054  21.811  0.00  0.00    +0.000 A 
ATOM     12  N   UNL     1       0.566   8.929  21.666  0.00  0.00    +0.000 NA
ATOM     13  C   UNL     1       1.121   8.698  20.460  0.00  0.00    +0.000 A 
ATOM     14  C   UNL     1       1.865   7.536  20.235  0.00  0.00    +0.000 A 
ENDROOT
BRANCH   1  17
ATOM     15  O   UNL     1       1.562   4.502  18.452  0.00  0.00    +0.000 OA
ATOM     16  C   UNL     1       2.740   4.805  18.613  0.00  0.00    +0.000 C 
ATOM     17  N   UNL     1       3.224   6.086  18.853  0.00  0.00    +0.000 N 
ATOM     18  H   UNL     1       4.225   6.218  18.779  0.00  0.00    +0.000 HD
BRANCH  16  19
ATOM     19  C   UNL     1       3.842   3.752  18.602  0.00  0.00    +0.000 C 
BRANCH  19  20
ATOM     20  C   UNL     1       4.284   3.319  17.198  0.00  0.00    +0.000 C 
BRANCH  20  21
ATOM     21  C   UNL     1       5.142   4.358  16.468  0.00  0.00    +0.000 C 
ATOM     22  C   UNL     1       6.293   4.947  17.284  0.00  0.00    +0.000 C 
ATOM     23  C   UNL     1       7.167   5.617  16.232  0.00  0.00    +0.000 C 
ATOM     24  C   UNL     1       6.981   4.796  14.955  0.00  0.00    +0.000 C 
ATOM     25  C   UNL     1       5.872   3.789  15.251  0.00  0.00    +0.000 C 
ENDBRANCH  20  21
ENDBRANCH  19  20
ENDBRANCH  16  19
ENDBRANCH   1  17
TORSDOF 4
ENDMDL
MODEL 6
REMARK VINA RESULT:      -8.1      4.955      8.663
REMARK  Name = 
REMARK  4 active torsions:
REMARK  status: ('A' for Active; 'I' for Inactive)
REMARK    1  A    between atoms: C_2  and  C_3
REMARK    2  A    between atoms: C_3  and  C_4
REMARK    3  A    between atoms: C_4  and  C_5
REMARK    4  A    between atoms: N_10  and  C_11
REMARK                            x       y       z     vdW  Elec       q    Type
REMARK                         _______ _______ _______ _____ _____    ______ ____
ROOT
ATOM      1  C   UNL     1       2.465   7.401  18.916  0.00  0.00    +0.000 A 
ATOM      2  C   UNL     1       2.170   8.265  17.868  0.00  0.00    +0.000 A 
ATOM      3  C   UNL     1       1.401   9.410  18.096  0.00  0.00    +0.000 A 
ATOM      4  C   UNL     1       0.880   9.690  19.347  0.00  0.00    +0.000 A 
ATOM      5  N   UNL     1       0.143  10.802  19.510  0.00  0.00    +0.000 NA
ATOM      6  C   UNL     1      -0.402  11.009  20.718  0.00  0.00    +0.000 A 
ATOM      7  C   UNL     1      -1.212  12.122  20.914  0.00  0.00    +0.000 A 
ATOM      8  C   UNL     1      -1.848  12.349  22.133  0.00  0.00    +0.000 A 
ATOM      9  C   UNL     1      -1.655  11.456  23.179  0.00  0.00    +0.000 A 
ATOM     10  C   UNL     1      -0.821  10.349  22.998  0.00  0.00    +0.000 A 
ATOM     11  C   UNL     1      -0.194  10.100  21.782  0.00  0.00    +0.000 A 
ATOM     12  N   UNL     1       0.582   9.008  21.627  0.00  0.00    +0.000 NA
ATOM     13  C   UNL     1       1.115   8.791  20.408  0.00  0.00    +0.000 A 
ATOM     14  C   UNL     1       1.906   7.663  20.174  0.00  0.00    +0.000 A 
ENDROOT
BRANCH   1  17
ATOM     15  O   UNL     1       4.843   7.047  17.213  0.00  0.00    +0.000 OA
ATOM     16  C   UNL     1       4.399   6.156  17.932  0.00  0.00    +0.000 C 
ATOM     17  N   UNL     1       3.294   6.263  18.769  0.00  0.00    +0.000 N 
ATOM     18  H   UNL     1       3.155   5.517  19.439  0.00  0.00    +0.000 HD
BRANCH  16  19
ATOM     19  C   UNL     1       5.021   4.765  17.953  0.00  0.00    +0.000 C 
BRANCH  19  20
ATOM     20  C   UNL     1       4.364   3.769  16.989  0.00  0.00    +0.000 C 
BRANCH  20  21
ATOM     21  C   UNL     1       3.295   2.885  17.641  0.00  0.00    +0.000 C 
ATOM     22  C   UNL     1       3.451   2.670  19.146  0.00  0.00    +0.000 C 
ATOM     23  C   UNL     1       2.098   2.112  19.567  0.00  0.00    +0.000 C 
ATOM     24  C   UNL     1       1.079   2.724  18.604  0.00  0.00    +0.000 C 
ATOM     25  C   UNL     1       1.886   3.473  17.546  0.00  0.00    +0.000 C 
ENDBRANCH  20  21
ENDBRANCH  19  20
ENDBRANCH  16  19
ENDBRANCH   1  17
TORSDOF 4
ENDMDL
MODEL 7
REMARK VINA RESULT:      -8.0      4.987      7.166
REMARK  Name = 
REMARK  4 active torsions:
REMARK  status: ('A' for Active; 'I' for Inactive)
REMARK    1  A    between atoms: C_2  and  C_3
REMARK    2  A    between atoms: C_3  and  C_4
REMARK    3  A    between atoms: C_4  and  C_5
REMARK    4  A    between atoms: N_10  and  C_11
REMARK                            x       y       z     vdW  Elec       q    Type
REMARK                         _______ _______ _______ _____ _____    ______ ____
ROOT
ATOM      1  C   UNL     1       2.561   7.324  18.789  0.00  0.00    +0.000 A 
ATOM      2  C   UNL     1       2.246   8.214  17.769  0.00  0.00    +0.000 A 
ATOM      3  C   UNL     1       1.472   9.346  18.036  0.00  0.00    +0.000 A 
ATOM      4  C   UNL     1       0.965   9.590  19.301  0.00  0.00    +0.000 A 
ATOM      5  N   UNL     1       0.222  10.692  19.502  0.00  0.00    +0.000 NA
ATOM      6  C   UNL     1      -0.308  10.862  20.722  0.00  0.00    +0.000 A 
ATOM      7  C   UNL     1      -1.123  11.964  20.958  0.00  0.00    +0.000 A 
ATOM      8  C   UNL     1      -1.745  12.154  22.191  0.00  0.00    +0.000 A 
ATOM      9  C   UNL     1      -1.532  11.235  23.210  0.00  0.00    +0.000 A 
ATOM     10  C   UNL     1      -0.693  10.139  22.989  0.00  0.00    +0.000 A 
ATOM     11  C   UNL     1      -0.080   9.928  21.760  0.00  0.00    +0.000 A 
ATOM     12  N   UNL     1       0.702   8.846  21.566  0.00  0.00    +0.000 NA
ATOM     13  C   UNL     1       1.220   8.665  20.335  0.00  0.00    +0.000 A 
ATOM     14  C   UNL     1       2.016   7.549  20.061  0.00  0.00    +0.000 A 
ENDROOT
BRANCH   1  17
ATOM     15  O   UNL     1       1.891   4.691  17.652  0.00  0.00    +0.000 OA
ATOM     16  C   UNL     1       3.011   4.971  18.070  0.00  0.00    +0.000 C 
ATOM     17  N   UNL     1       3.396   6.197  18.602  0.00  0.00    +0.000 N 
ATOM     18  H   UNL     1       4.389   6.347  18.731  0.00  0.00    +0.000 HD
BRANCH  16  19
ATOM     19  C   UNL     1       4.137   3.944  18.082  0.00  0.00    +0.000 C 
BRANCH  19  20
ATOM     20  C   UNL     1       5.387   4.374  17.304  0.00  0.00    +0.000 C 
BRANCH  20  21
ATOM     21  C   UNL     1       6.104   5.590  17.900  0.00  0.00    +0.000 C 
ATOM     22  C   UNL     1       7.456   5.300  18.551  0.00  0.00    +0.000 C 
ATOM     23  C   UNL     1       8.084   6.680  18.694  0.00  0.00    +0.000 C 
ATOM     24  C   UNL     1       7.535   7.508  17.532  0.00  0.00    +0.000 C 
ATOM     25  C   UNL     1       6.471   6.646  16.856  0.00  0.00    +0.000 C 
ENDBRANCH  20  21
ENDBRANCH  19  20
ENDBRANCH  16  19
ENDBRANCH   1  17
TORSDOF 4
ENDMDL
MODEL 8
REMARK VINA RESULT:      -8.0      4.088      8.374
REMARK  Name = 
REMARK  4 active torsions:
REMARK  status: ('A' for Active; 'I' for Inactive)
REMARK    1  A    between atoms: C_2  and  C_3
REMARK    2  A    between atoms: C_3  and  C_4
REMARK    3  A    between atoms: C_4  and  C_5
REMARK    4  A    between atoms: N_10  and  C_11
REMARK                            x       y       z     vdW  Elec       q    Type
REMARK                         _______ _______ _______ _____ _____    ______ ____
ROOT
ATOM      1  C   UNL     1       5.012   5.249  18.541  0.00  0.00    +0.000 A 
ATOM      2  C   UNL     1       6.189   5.985  18.591  0.00  0.00    +0.000 A 
ATOM      3  C   UNL     1       6.982   6.125  17.449  0.00  0.00    +0.000 A 
ATOM      4  C   UNL     1       6.644   5.506  16.258  0.00  0.00    +0.000 A 
ATOM      5  N   UNL     1       7.444   5.670  15.190  0.00  0.00    +0.000 NA
ATOM      6  C   UNL     1       7.123   5.002  14.072  0.00  0.00    +0.000 A 
ATOM      7  C   UNL     1       7.951   5.106  12.960  0.00  0.00    +0.000 A 
ATOM      8  C   UNL     1       7.693   4.386  11.795  0.00  0.00    +0.000 A 
ATOM      9  C   UNL     1       6.576   3.563  11.736  0.00  0.00    +0.000 A 
ATOM     10  C   UNL     1       5.724   3.474  12.840  0.00  0.00    +0.000 A 
ATOM     11  C   UNL     1       5.978   4.173  14.015  0.00  0.00    +0.000 A 
ATOM     12  N   UNL     1       5.154   4.045  15.075  0.00  0.00    +0.000 NA
ATOM     13  C   UNL     1       5.486   4.701  16.204  0.00  0.00    +0.000 A 
ATOM     14  C   UNL     1       4.689   4.589  17.346  0.00  0.00    +0.000 A 
ENDROOT
BRANCH   1  17
ATOM     15  O   UNL     1       2.353   6.456  18.931  0.00  0.00    +0.000 OA
ATOM     16  C   UNL     1       2.888   5.736  19.769  0.00  0.00    +0.000 C 
ATOM     17  N   UNL     1       4.130   5.124  19.641  0.00  0.00    +0.000 N 
ATOM     18  H   UNL     1       4.362   4.413  20.323  0.00  0.00    +0.000 HD
BRANCH  16  19
ATOM     19  C   UNL     1       2.230   5.456  21.115  0.00  0.00    +0.000 C 
BRANCH  19  20
ATOM     20  C   UNL     1       2.420   4.020  21.620  0.00  0.00    +0.000 C 
BRANCH  20  21
ATOM     21  C   UNL     1       1.779   2.955  20.724  0.00  0.00    +0.000 C 
ATOM     22  C   UNL     1       0.705   3.467  19.764  0.00  0.00    +0.000 C 
ATOM     23  C   UNL     1       0.538   2.320  18.775  0.00  0.00    +0.000 C 
ATOM     24  C   UNL     1       1.906   1.640  18.695  0.00  0.00    +0.000 C 
ATOM     25  C   UNL     1       2.774   2.293  19.769  0.00  0.00    +0.000 C 
ENDBRANCH  20  21
ENDBRANCH  19  20
ENDBRANCH  16  19
ENDBRANCH   1  17
TORSDOF 4
ENDMDL
MODEL 9
REMARK VINA RESULT:      -7.9      5.283      8.678
REMARK  Name = 
REMARK  4 active torsions:
REMARK  status: ('A' for Active; 'I' for Inactive)
REMARK    1  A    between atoms: C_2  and  C_3
REMARK    2  A    between atoms: C_3  and  C_4
REMARK    3  A    between atoms: C_4  and  C_5
REMARK    4  A    between atoms: N_10  and  C_11
REMARK                            x       y       z     vdW  Elec       q    Type
REMARK                         _______ _______ _______ _____ _____    ______ ____
ROOT
ATOM      1  C   UNL     1       2.564   6.983  18.585  0.00  0.00    +0.000 A 
ATOM      2  C   UNL     1       2.581   8.048  17.693  0.00  0.00    +0.000 A 
ATOM      3  C   UNL     1       2.047   9.285  18.064  0.00  0.00    +0.000 A 
ATOM      4  C   UNL     1       1.454   9.472  19.300  0.00  0.00    +0.000 A 
ATOM      5  N   UNL     1       0.951  10.681  19.604  0.00  0.00    +0.000 NA
ATOM      6  C   UNL     1       0.324  10.808  20.783  0.00  0.00    +0.000 A 
ATOM      7  C   UNL     1      -0.252  12.030  21.114  0.00  0.00    +0.000 A 
ATOM      8  C   UNL     1      -0.965  12.196  22.300  0.00  0.00    +0.000 A 
ATOM      9  C   UNL     1      -1.088  11.126  23.177  0.00  0.00    +0.000 A 
ATOM     10  C   UNL     1      -0.488   9.903  22.864  0.00  0.00    +0.000 A 
ATOM     11  C   UNL     1       0.211   9.718  21.676  0.00  0.00    +0.000 A 
ATOM     12  N   UNL     1       0.754   8.518  21.386  0.00  0.00    +0.000 NA
ATOM     13  C   UNL     1       1.369   8.384  20.195  0.00  0.00    +0.000 A 
ATOM     14  C   UNL     1       1.928   7.159  19.822  0.00  0.00    +0.000 A 
ENDROOT
BRANCH   1  17
ATOM     15  O   UNL     1       5.009   5.777  19.701  0.00  0.00    +0.000 OA
ATOM     16  C   UNL     1       4.318   5.220  18.854  0.00  0.00    +0.000 C 
ATOM     17  N   UNL     1       3.147   5.726  18.299  0.00  0.00    +0.000 N 
ATOM     18  H   UNL     1       2.585   5.083  17.755  0.00  0.00    +0.000 HD
BRANCH  16  19
ATOM     19  C   UNL     1       4.712   3.869  18.267  0.00  0.00    +0.000 C 
BRANCH  19  20
ATOM     20  C   UNL     1       4.542   2.691  19.236  0.00  0.00    +0.000 C 
BRANCH  20  21
ATOM     21  C   UNL     1       3.082   2.316  19.509  0.00  0.00    +0.000 C 
ATOM     22  C   UNL     1       2.355   3.203  20.520  0.00  0.00    +0.000 C 
ATOM     23  C   UNL     1       0.887   2.857  20.304  0.00  0.00    +0.000 C 
ATOM     24  C   UNL     1       0.764   2.477  18.828  0.00  0.00    +0.000 C 
ATOM     25  C   UNL     1       2.187   2.438  18.274  0.00  0.00    +0.000 C 
ENDBRANCH  20  21
ENDBRANCH  19  20
ENDBRANCH  16  19
ENDBRANCH   1  17
TORSDOF 4
ENDMDL
