MODEL 1
REMARK VINA RESULT:      -6.3      0.000      0.000
REMARK  Name = 
REMARK  6 active torsions:
REMARK  status: ('A' for Active; 'I' for Inactive)
REMARK    1  A    between atoms: C_4  and  C_5
REMARK    2  A    between atoms: C_5  and  C_6
REMARK    3  A    between atoms: C_6  and  C_7
REMARK    4  A    between atoms: C_7  and  C_8
REMARK    5  A    between atoms: C_8  and  N_9
REMARK    6  A    between atoms: N_9  and  C_10
REMARK                            x       y       z     vdW  Elec       q    Type
REMARK                         _______ _______ _______ _____ _____    ______ ____
ROOT
ATOM      1  C   UNL     1       1.746   5.566  20.489  0.00  0.00    +0.000 C 
ENDROOT
BRANCH   1   2
ATOM      2  N   UNL     1       2.819   4.691  20.931  0.00  0.00    +0.000 NA
ATOM      3  H   UNL     1       2.947   4.783  21.938  0.00  0.00    +0.000 HD
BRANCH   2   4
ATOM      4  C   UNL     1       2.771   3.274  20.560  0.00  0.00    +0.000 C 
ATOM      5  C   UNL     1       3.888   2.804  19.612  0.00  0.00    +0.000 C 
ATOM      6  C   UNL     1       3.475   2.733  18.147  0.00  0.00    +0.000 C 
ATOM      7  N   UNL     1       2.244   1.962  17.977  0.00  0.00    +0.000 NA
ATOM      8  C   UNL     1       1.143   2.638  18.658  0.00  0.00    +0.000 C 
ATOM      9  C   UNL     1       1.376   2.763  20.159  0.00  0.00    +0.000 C 
ATOM     10  H   UNL     1       2.371   1.028  18.371  0.00  0.00    +0.000 HD
ENDBRANCH   2   4
ENDBRANCH   1   2
BRANCH   1  11
ATOM     11  C   UNL     1       2.343   6.701  19.637  0.00  0.00    +0.000 C 
BRANCH  11  12
ATOM     12  C   UNL     1       2.628   6.328  18.170  0.00  0.00    +0.000 C 
BRANCH  12  13
ATOM     13  C   UNL     1       3.815   7.089  17.576  0.00  0.00    +0.000 C 
BRANCH  13  17
ATOM     14  C   UNL     1       7.152   4.504  16.685  0.00  0.00    +0.000 A 
ATOM     15  C   UNL     1       6.305   4.928  15.665  0.00  0.00    +0.000 A 
ATOM     16  C   UNL     1       5.222   5.760  15.957  0.00  0.00    +0.000 A 
ATOM     17  C   UNL     1       4.982   6.180  17.272  0.00  0.00    +0.000 A 
ATOM     18  C   UNL     1       5.834   5.740  18.293  0.00  0.00    +0.000 A 
ATOM     19  C   UNL     1       6.916   4.907  17.999  0.00  0.00    +0.000 A 
ENDBRANCH  13  17
ENDBRANCH  12  13
ENDBRANCH  11  12
ENDBRANCH   1  11
TORSDOF 6
ENDMDL
MODEL 2
REMARK VINA RESULT:      -6.2      1.998      5.056
REMARK  Name = 
REMARK  6 active torsions:
REMARK  status: ('A' for Active; 'I' for Inactive)
REMARK    1  A    between atoms: C_4  and  C_5
REMARK    2  A    between atoms: C_5  and  C_6
REMARK    3  A    between atoms: C_6  and  C_7
REMARK    4  A    between atoms: C_7  and  C_8
REMARK    5  A    between atoms: C_8  and  N_9
REMARK    6  A    between atoms: N_9  and  C_10
REMARK                            x       y       z     vdW  Elec       q    Type
REMARK                         _______ _______ _______ _____ _____    ______ ____
ROOT
ATOM      1  C   UNL     1       4.547   2.922  19.622  0.00  0.00    +0.000 C 
ENDROOT
BRANCH   1   2
ATOM      2  N   UNL     1       5.410   3.318  18.523  0.00  0.00    +0.000 NA
ATOM      3  H   UNL     1       5.282   2.682  17.737  0.00  0.00    +0.000 HD
BRANCH   2   4
ATOM      4  C   UNL     1       5.364   4.706  18.055  0.00  0.00    +0.000 C 
ATOM      5  C   UNL     1       5.451   4.890  16.530  0.00  0.00    +0.000 C 
ATOM      6  C   UNL     1       6.843   5.244  16.021  0.00  0.00    +0.000 C 
ATOM      7  N   UNL     1       7.403   6.382  16.748  0.00  0.00    +0.000 NA
ATOM      8  C   UNL     1       7.583   6.027  18.154  0.00  0.00    +0.000 C 
ATOM      9  C   UNL     1       6.266   5.677  18.838  0.00  0.00    +0.000 C 
ATOM     10  H   UNL     1       6.769   7.178  16.672  0.00  0.00    +0.000 HD
ENDBRANCH   2   4
ENDBRANCH   1   2
BRANCH   1  11
ATOM     11  C   UNL     1       3.505   1.913  19.104  0.00  0.00    +0.000 C 
BRANCH  11  12
ATOM     12  C   UNL     1       2.656   2.409  17.919  0.00  0.00    +0.000 C 
BRANCH  12  13
ATOM     13  C   UNL     1       1.390   3.150  18.355  0.00  0.00    +0.000 C 
BRANCH  13  17
ATOM     14  C   UNL     1       2.231   7.149  19.740  0.00  0.00    +0.000 A 
ATOM     15  C   UNL     1       2.407   6.823  18.397  0.00  0.00    +0.000 A 
ATOM     16  C   UNL     1       2.140   5.526  17.953  0.00  0.00    +0.000 A 
ATOM     17  C   UNL     1       1.687   4.547  18.847  0.00  0.00    +0.000 A 
ATOM     18  C   UNL     1       1.523   4.882  20.197  0.00  0.00    +0.000 A 
ATOM     19  C   UNL     1       1.792   6.178  20.639  0.00  0.00    +0.000 A 
ENDBRANCH  13  17
ENDBRANCH  12  13
ENDBRANCH  11  12
ENDBRANCH   1  11
TORSDOF 6
ENDMDL
MODEL 3
REMARK VINA RESULT:      -6.1      2.085      5.366
REMARK  Name = 
REMARK  6 active torsions:
REMARK  status: ('A' for Active; 'I' for Inactive)
REMARK    1  A    between atoms: C_4  and  C_5
REMARK    2  A    between atoms: C_5  and  C_6
REMARK    3  A    between atoms: C_6  and  C_7
REMARK    4  A    between atoms: C_7  and  C_8
REMARK    5  A    between atoms: C_8  and  N_9
REMARK    6  A    between atoms: N_9  and  C_10
REMARK                            x       y       z     vdW  Elec       q    Type
REMARK                         _______ _______ _______ _____ _____    ______ ____
ROOT
ATOM      1  C   UNL     1       4.608   2.963  18.633  0.00  0.00    +0.000 C 
ENDROOT
BRANCH   1   2
ATOM      2  N   UNL     1       4.967   3.084  17.230  0.00  0.00    +0.000 NA
ATOM      3  H   UNL     1       4.350   2.502  16.665  0.00  0.00    +0.000 HD
BRANCH   2   4
ATOM      4  C   UNL     1       5.071   4.422  16.641  0.00  0.00    +0.000 C 
ATOM      5  C   UNL     1       5.602   4.466  15.198  0.00  0.00    +0.000 C 
ATOM      6  C   UNL     1       7.085   4.800  15.089  0.00  0.00    +0.000 C 
ATOM      7  N   UNL     1       7.416   6.011  15.838  0.00  0.00    +0.000 NA
ATOM      8  C   UNL     1       7.173   5.791  17.262  0.00  0.00    +0.000 C 
ATOM      9  C   UNL     1       5.710   5.479  17.559  0.00  0.00    +0.000 C 
ATOM     10  H   UNL     1       6.838   6.784  15.505  0.00  0.00    +0.000 HD
ENDBRANCH   2   4
ENDBRANCH   1   2
BRANCH   1  11
ATOM     11  C   UNL     1       3.493   1.911  18.777  0.00  0.00    +0.000 C 
BRANCH  11  12
ATOM     12  C   UNL     1       2.206   2.218  17.990  0.00  0.00    +0.000 C 
BRANCH  12  13
ATOM     13  C   UNL     1       1.148   2.940  18.827  0.00  0.00    +0.000 C 
BRANCH  13  17
ATOM     14  C   UNL     1       2.244   7.026  19.677  0.00  0.00    +0.000 A 
ATOM     15  C   UNL     1       1.789   6.197  20.699  0.00  0.00    +0.000 A 
ATOM     16  C   UNL     1       1.430   4.877  20.420  0.00  0.00    +0.000 A 
ATOM     17  C   UNL     1       1.528   4.373  19.117  0.00  0.00    +0.000 A 
ATOM     18  C   UNL     1       1.976   5.217  18.093  0.00  0.00    +0.000 A 
ATOM     19  C   UNL     1       2.335   6.537  18.374  0.00  0.00    +0.000 A 
ENDBRANCH  13  17
ENDBRANCH  12  13
ENDBRANCH  11  12
ENDBRANCH   1  11
TORSDOF 6
ENDMDL
MODEL 4
REMARK VINA RESULT:      -6.1      2.090      5.143
REMARK  Name = 
REMARK  6 active torsions:
REMARK  status: ('A' for Active; 'I' for Inactive)
REMARK    1  A    between atoms: C_4  and  C_5
REMARK    2  A    between atoms: C_5  and  C_6
REMARK    3  A    between atoms: C_6  and  C_7
REMARK    4  A    between atoms: C_7  and  C_8
REMARK    5  A    between atoms: C_8  and  N_9
REMARK    6  A    between atoms: N_9  and  C_10
REMARK                            x       y       z     vdW  Elec       q    Type
REMARK                         _______ _______ _______ _____ _____    ______ ____
ROOT
ATOM      1  C   UNL     1       4.568   7.265  17.340  0.00  0.00    +0.000 C 
ENDROOT
BRANCH   1   2
ATOM      2  N   UNL     1       4.268   5.986  16.718  0.00  0.00    +0.000 NA
ATOM      3  H   UNL     1       4.309   6.078  15.704  0.00  0.00    +0.000 HD
BRANCH   2   4
ATOM      4  C   UNL     1       5.019   4.802  17.145  0.00  0.00    +0.000 C 
ATOM      5  C   UNL     1       5.941   5.010  18.359  0.00  0.00    +0.000 C 
ATOM      6  C   UNL     1       7.403   5.246  17.999  0.00  0.00    +0.000 C 
ATOM      7  N   UNL     1       7.904   4.211  17.095  0.00  0.00    +0.000 NA
ATOM      8  C   UNL     1       7.178   4.273  15.829  0.00  0.00    +0.000 C 
ATOM      9  C   UNL     1       5.685   4.018  16.001  0.00  0.00    +0.000 C 
ATOM     10  H   UNL     1       7.771   3.294  17.524  0.00  0.00    +0.000 HD
ENDBRANCH   2   4
ENDBRANCH   1   2
BRANCH   1  11
ATOM     11  C   UNL     1       3.250   7.934  17.773  0.00  0.00    +0.000 C 
BRANCH  11  12
ATOM     12  C   UNL     1       2.170   6.964  18.287  0.00  0.00    +0.000 C 
BRANCH  12  13
ATOM     13  C   UNL     1       2.402   6.517  19.732  0.00  0.00    +0.000 C 
BRANCH  13  17
ATOM     14  C   UNL     1       1.395   2.369  20.357  0.00  0.00    +0.000 A 
ATOM     15  C   UNL     1       1.878   3.137  21.413  0.00  0.00    +0.000 A 
ATOM     16  C   UNL     1       2.209   4.478  21.207  0.00  0.00    +0.000 A 
ATOM     17  C   UNL     1       2.052   5.063  19.944  0.00  0.00    +0.000 A 
ATOM     18  C   UNL     1       1.576   4.279  18.885  0.00  0.00    +0.000 A 
ATOM     19  C   UNL     1       1.246   2.938  19.093  0.00  0.00    +0.000 A 
ENDBRANCH  13  17
ENDBRANCH  12  13
ENDBRANCH  11  12
ENDBRANCH   1  11
TORSDOF 6
ENDMDL
MODEL 5
REMARK VINA RESULT:      -6.0      1.006      1.745
REMARK  Name = 
REMARK  6 active torsions:
REMARK  status: ('A' for Active; 'I' for Inactive)
REMARK    1  A    between atoms: C_4  and  C_5
REMARK    2  A    between atoms: C_5  and  C_6
REMARK    3  A    between atoms: C_6  and  C_7
REMARK    4  A    between atoms: C_7  and  C_8
REMARK    5  A    between atoms: C_8  and  N_9
REMARK    6  A    between atoms: N_9  and  C_10
REMARK                            x       y       z     vdW  Elec       q    Type
REMARK                         _______ _______ _______ _____ _____    ______ ____
ROOT
ATOM      1  C   UNL     1       1.853   5.317  20.873  0.00  0.00    +0.000 C 
ENDROOT
BRANCH   1   2
ATOM      2  N   UNL     1       0.866   4.436  20.271  0.00  0.00    +0.000 NA
ATOM      3  H   UNL     1       0.565   4.818  19.375  0.00  0.00    +0.000 HD
BRANCH   2   4
ATOM      4  C   UNL     1       1.187   3.013  20.127  0.00  0.00    +0.000 C 
ATOM      5  C   UNL     1       2.477   2.555  20.830  0.00  0.00    +0.000 C 
ATOM      6  C   UNL     1       3.687   2.454  19.910  0.00  0.00    +0.000 C 
ATOM      7  N   UNL     1       3.389   1.653  18.723  0.00  0.00    +0.000 NA
ATOM      8  C   UNL     1       2.355   2.314  17.931  0.00  0.00    +0.000 C 
ATOM      9  C   UNL     1       1.045   2.465  18.696  0.00  0.00    +0.000 C 
ATOM     10  H   UNL     1       3.065   0.728  19.010  0.00  0.00    +0.000 HD
ENDBRANCH   2   4
ENDBRANCH   1   2
BRANCH   1  11
ATOM     11  C   UNL     1       2.206   6.434  19.873  0.00  0.00    +0.000 C 
BRANCH  11  12
ATOM     12  C   UNL     1       3.053   5.982  18.670  0.00  0.00    +0.000 C 
BRANCH  12  13
ATOM     13  C   UNL     1       4.477   5.576  19.056  0.00  0.00    +0.000 C 
BRANCH  13  17
ATOM     14  C   UNL     1       6.825   4.352  15.649  0.00  0.00    +0.000 A 
ATOM     15  C   UNL     1       7.438   4.560  16.882  0.00  0.00    +0.000 A 
ATOM     16  C   UNL     1       6.677   4.962  17.981  0.00  0.00    +0.000 A 
ATOM     17  C   UNL     1       5.294   5.152  17.858  0.00  0.00    +0.000 A 
ATOM     18  C   UNL     1       4.688   4.951  16.611  0.00  0.00    +0.000 A 
ATOM     19  C   UNL     1       5.452   4.550  15.513  0.00  0.00    +0.000 A 
ENDBRANCH  13  17
ENDBRANCH  12  13
ENDBRANCH  11  12
ENDBRANCH   1  11
TORSDOF 6
ENDMDL
MODEL 6
REMARK VINA RESULT:      -6.0      2.450      5.199
REMARK  Name = 
REMARK  6 active torsions:
REMARK  status: ('A' for Active; 'I' for Inactive)
REMARK    1  A    between atoms: C_4  and  C_5
REMARK    2  A    between atoms: C_5  and  C_6
REMARK    3  A    between atoms: C_6  and  C_7
REMARK    4  A    between atoms: C_7  and  C_8
REMARK    5  A    between atoms: C_8  and  N_9
REMARK    6  A    between atoms: N_9  and  C_10
REMARK                            x       y       z     vdW  Elec       q    Type
REMARK                         _______ _______ _______ _____ _____    ______ ____
ROOT
ATOM      1  C   UNL     1       4.266   3.455  19.398  0.00  0.00    +0.000 C 
ENDROOT
BRANCH   1   2
ATOM      2  N   UNL     1       5.355   3.594  18.446  0.00  0.00    +0.000 NA
ATOM      3  H   UNL     1       5.558   2.690  18.021  0.00  0.00    +0.000 HD
BRANCH   2   4
ATOM      4  C   UNL     1       5.256   4.624  17.408  0.00  0.00    +0.000 C 
ATOM      5  C   UNL     1       5.654   4.171  15.992  0.00  0.00    +0.000 C 
ATOM      6  C   UNL     1       7.076   4.549  15.592  0.00  0.00    +0.000 C 
ATOM      7  N   UNL     1       7.330   5.973  15.810  0.00  0.00    +0.000 NA
ATOM      8  C   UNL     1       7.235   6.276  17.236  0.00  0.00    +0.000 C 
ATOM      9  C   UNL     1       5.848   5.989  17.800  0.00  0.00    +0.000 C 
ATOM     10  H   UNL     1       6.642   6.523  15.294  0.00  0.00    +0.000 HD
ENDBRANCH   2   4
ENDBRANCH   1   2
BRANCH   1  11
ATOM     11  C   UNL     1       2.930   3.429  18.633  0.00  0.00    +0.000 C 
BRANCH  11  12
ATOM     12  C   UNL     1       2.016   4.642  18.883  0.00  0.00    +0.000 C 
BRANCH  12  13
ATOM     13  C   UNL     1       2.651   5.695  19.794  0.00  0.00    +0.000 C 
BRANCH  13  17
ATOM     14  C   UNL     1       1.374   9.688  18.775  0.00  0.00    +0.000 A 
ATOM     15  C   UNL     1       2.000   8.890  17.821  0.00  0.00    +0.000 A 
ATOM     16  C   UNL     1       2.417   7.600  18.156  0.00  0.00    +0.000 A 
ATOM     17  C   UNL     1       2.206   7.096  19.445  0.00  0.00    +0.000 A 
ATOM     18  C   UNL     1       1.585   7.910  20.401  0.00  0.00    +0.000 A 
ATOM     19  C   UNL     1       1.169   9.200  20.065  0.00  0.00    +0.000 A 
ENDBRANCH  13  17
ENDBRANCH  12  13
ENDBRANCH  11  12
ENDBRANCH   1  11
TORSDOF 6
ENDMDL
MODEL 7
REMARK VINA RESULT:      -6.0      2.236      5.107
REMARK  Name = 
REMARK  6 active torsions:
REMARK  status: ('A' for Active; 'I' for Inactive)
REMARK    1  A    between atoms: C_4  and  C_5
REMARK    2  A    between atoms: C_5  and  C_6
REMARK    3  A    between atoms: C_6  and  C_7
REMARK    4  A    between atoms: C_7  and  C_8
REMARK    5  A    between atoms: C_8  and  N_9
REMARK    6  A    between atoms: N_9  and  C_10
REMARK                            x       y       z     vdW  Elec       q    Type
REMARK                         _______ _______ _______ _____ _____    ______ ____
ROOT
ATOM      1  C   UNL     1       3.011   2.730  17.810  0.00  0.00    +0.000 C 
ENDROOT
BRANCH   1   2
ATOM      2  N   UNL     1       4.416   3.050  17.999  0.00  0.00    +0.000 NA
ATOM      3  H   UNL     1       4.991   2.257  17.717  0.00  0.00    +0.000 HD
BRANCH   2   4
ATOM      4  C   UNL     1       4.943   4.285  17.411  0.00  0.00    +0.000 C 
ATOM      5  C   UNL     1       5.095   4.272  15.880  0.00  0.00    +0.000 C 
ATOM      6  C   UNL     1       6.509   3.977  15.395  0.00  0.00    +0.000 C 
ATOM      7  N   UNL     1       7.488   4.850  16.041  0.00  0.00    +0.000 NA
ATOM      8  C   UNL     1       7.508   4.588  17.478  0.00  0.00    +0.000 C 
ATOM      9  C   UNL     1       6.164   4.873  18.140  0.00  0.00    +0.000 C 
ATOM     10  H   UNL     1       7.235   5.825  15.873  0.00  0.00    +0.000 HD
ENDBRANCH   2   4
ENDBRANCH   1   2
BRANCH   1  11
ATOM     11  C   UNL     1       2.175   4.009  17.999  0.00  0.00    +0.000 C 
BRANCH  11  12
ATOM     12  C   UNL     1       1.930   4.412  19.465  0.00  0.00    +0.000 C 
BRANCH  12  13
ATOM     13  C   UNL     1       2.847   5.541  19.940  0.00  0.00    +0.000 C 
BRANCH  13  17
ATOM     14  C   UNL     1       1.457   9.429  18.689  0.00  0.00    +0.000 A 
ATOM     15  C   UNL     1       1.194   8.974  19.979  0.00  0.00    +0.000 A 
ATOM     16  C   UNL     1       1.641   7.713  20.379  0.00  0.00    +0.000 A 
ATOM     17  C   UNL     1       2.359   6.899  19.494  0.00  0.00    +0.000 A 
ATOM     18  C   UNL     1       2.609   7.360  18.195  0.00  0.00    +0.000 A 
ATOM     19  C   UNL     1       2.162   8.621  17.797  0.00  0.00    +0.000 A 
ENDBRANCH  13  17
ENDBRANCH  12  13
ENDBRANCH  11  12
ENDBRANCH   1  11
TORSDOF 6
ENDMDL
MODEL 8
REMARK VINA RESULT:      -6.0      1.148      1.437
REMARK  Name = 
REMARK  6 active torsions:
REMARK  status: ('A' for Active; 'I' for Inactive)
REMARK    1  A    between atoms: C_4  and  C_5
REMARK    2  A    between atoms: C_5  and  C_6
REMARK    3  A    between atoms: C_6  and  C_7
REMARK    4  A    between atoms: C_7  and  C_8
REMARK    5  A    between atoms: C_8  and  N_9
REMARK    6  A    between atoms: N_9  and  C_10
REMARK                            x       y       z     vdW  Elec       q    Type
REMARK                         _______ _______ _______ _____ _____    ______ ____
ROOT
ATOM      1  C   UNL     1       1.666   6.173  20.614  0.00  0.00    +0.000 C 
ENDROOT
BRANCH   1   2
ATOM      2  N   UNL     1       2.529   5.134  21.149  0.00  0.00    +0.000 NA
ATOM      3  H   UNL     1       2.823   5.381  22.093  0.00  0.00    +0.000 HD
BRANCH   2   4
ATOM      4  C   UNL     1       2.063   3.745  21.117  0.00  0.00    +0.000 C 
ATOM      5  C   UNL     1       3.156   2.690  20.871  0.00  0.00    +0.000 C 
ATOM      6  C   UNL     1       3.249   2.213  19.426  0.00  0.00    +0.000 C 
ATOM      7  N   UNL     1       1.945   1.788  18.919  0.00  0.00    +0.000 NA
ATOM      8  C   UNL     1       1.032   2.929  18.893  0.00  0.00    +0.000 C 
ATOM      9  C   UNL     1       0.793   3.514  20.280  0.00  0.00    +0.000 C 
ATOM     10  H   UNL     1       1.567   1.059  19.526  0.00  0.00    +0.000 HD
ENDBRANCH   2   4
ENDBRANCH   1   2
BRANCH   1  11
ATOM     11  C   UNL     1       2.422   6.936  19.511  0.00  0.00    +0.000 C 
BRANCH  11  12
ATOM     12  C   UNL     1       2.886   6.069  18.326  0.00  0.00    +0.000 C 
BRANCH  12  13
ATOM     13  C   UNL     1       4.368   5.692  18.401  0.00  0.00    +0.000 C 
BRANCH  13  17
ATOM     14  C   UNL     1       5.977   4.600  14.550  0.00  0.00    +0.000 A 
ATOM     15  C   UNL     1       5.633   5.923  14.814  0.00  0.00    +0.000 A 
ATOM     16  C   UNL     1       5.107   6.273  16.059  0.00  0.00    +0.000 A 
ATOM     17  C   UNL     1       4.927   5.303  17.053  0.00  0.00    +0.000 A 
ATOM     18  C   UNL     1       5.266   3.972  16.775  0.00  0.00    +0.000 A 
ATOM     19  C   UNL     1       5.791   3.625  15.529  0.00  0.00    +0.000 A 
ENDBRANCH  13  17
ENDBRANCH  12  13
ENDBRANCH  11  12
ENDBRANCH   1  11
TORSDOF 6
ENDMDL
MODEL 9
REMARK VINA RESULT:      -5.9      2.267      5.707
REMARK  Name = 
REMARK  6 active torsions:
REMARK  status: ('A' for Active; 'I' for Inactive)
REMARK    1  A    between atoms: C_4  and  C_5
REMARK    2  A    between atoms: C_5  and  C_6
REMARK    3  A    between atoms: C_6  and  C_7
REMARK    4  A    between atoms: C_7  and  C_8
REMARK    5  A    between atoms: C_8  and  N_9
REMARK    6  A    between atoms: N_9  and  C_10
REMARK                            x       y       z     vdW  Elec       q    Type
REMARK                         _______ _______ _______ _____ _____    ______ ____
ROOT
ATOM      1  C   UNL     1       5.137   4.129  16.139  0.00  0.00    +0.000 C 
ENDROOT
BRANCH   1   2
ATOM      2  N   UNL     1       6.152   3.845  17.139  0.00  0.00    +0.000 NA
ATOM      3  H   UNL     1       6.380   2.852  17.126  0.00  0.00    +0.000 HD
BRANCH   2   4
ATOM      4  C   UNL     1       7.382   4.641  17.142  0.00  0.00    +0.000 C 
ATOM      5  C   UNL     1       8.165   4.637  18.466  0.00  0.00    +0.000 C 
ATOM      6  C   UNL     1       7.914   5.858  19.344  0.00  0.00    +0.000 C 
ATOM      7  N   UNL     1       8.098   7.101  18.596  0.00  0.00    +0.000 NA
ATOM      8  C   UNL     1       7.106   7.182  17.526  0.00  0.00    +0.000 C 
ATOM      9  C   UNL     1       7.240   6.043  16.522  0.00  0.00    +0.000 C 
ATOM     10  H   UNL     1       9.037   7.120  18.196  0.00  0.00    +0.000 HD
ENDBRANCH   2   4
ENDBRANCH   1   2
BRANCH   1  11
ATOM     11  C   UNL     1       3.784   4.342  16.843  0.00  0.00    +0.000 C 
BRANCH  11  12
ATOM     12  C   UNL     1       3.677   5.642  17.661  0.00  0.00    +0.000 C 
BRANCH  12  13
ATOM     13  C   UNL     1       2.298   5.844  18.291  0.00  0.00    +0.000 C 
BRANCH  13  17
ATOM     14  C   UNL     1       1.357   2.764  21.161  0.00  0.00    +0.000 A 
ATOM     15  C   UNL     1       0.831   2.703  19.874  0.00  0.00    +0.000 A 
ATOM     16  C   UNL     1       1.133   3.704  18.948  0.00  0.00    +0.000 A 
ATOM     17  C   UNL     1       1.968   4.771  19.302  0.00  0.00    +0.000 A 
ATOM     18  C   UNL     1       2.484   4.830  20.603  0.00  0.00    +0.000 A 
ATOM     19  C   UNL     1       2.181   3.828  21.527  0.00  0.00    +0.000 A 
ENDBRANCH  13  17
ENDBRANCH  12  13
ENDBRANCH  11  12
ENDBRANCH   1  11
TORSDOF 6
ENDMDL
