MODEL 1
REMARK VINA RESULT:      -7.0      0.000      0.000
REMARK  Name = 
REMARK  10 active torsions:
REMARK  status: ('A' for Active; 'I' for Inactive)
REMARK    1  A    between atoms: C_1  and  C_2
REMARK    2  A    between atoms: C_2  and  C_3
REMARK    3  A    between atoms: C_3  and  C_4
REMARK    4  A    between atoms: C_4  and  C_5
REMARK    5  A    between atoms: C_5  and  N_20
REMARK    6  A    between atoms: C_6  and  C_7
REMARK    7  A    between atoms: C_10  and  O_11
REMARK    8  A    between atoms: O_11  and  C_12
REMARK    9  A    between atoms: C_12  and  C_13
REMARK   10  A    between atoms: C_13  and  O_15
REMARK                            x       y       z     vdW  Elec       q    Type
REMARK                         _______ _______ _______ _____ _____    ______ ____
ROOT
ATOM      1  C   UNL     1       4.325   4.318  17.047  0.00  0.00    +0.000 A 
ATOM      2  C   UNL     1       4.004   2.978  17.289  0.00  0.00    +0.000 A 
ATOM      3  C   UNL     1       2.983   2.638  18.176  0.00  0.00    +0.000 A 
ATOM      4  C   UNL     1       2.243   3.635  18.821  0.00  0.00    +0.000 A 
ATOM      5  C   UNL     1       2.646   4.979  18.690  0.00  0.00    +0.000 A 
ATOM      6 CL   UNL     1       1.802   6.194  19.602  0.00  0.00    +0.000 Cl
ATOM      7  C   UNL     1       3.681   5.324  17.795  0.00  0.00    +0.000 A 
ATOM      8 CL   UNL     1       4.138   6.981  17.548  0.00  0.00    +0.000 Cl
ENDROOT
BRANCH   1  10
ATOM      9  C   UNL     1       6.506   4.648  15.785  0.00  0.00    +0.000 C 
ATOM     10  C   UNL     1       5.165   4.581  15.868  0.00  0.00    +0.000 C 
BRANCH   9  11
ATOM     11  N   UNL     1       7.031   4.793  14.418  0.00  0.00    +0.000 N 
ATOM     12  O   UNL     1       6.494   4.115  13.534  0.00  0.00    +0.000 OA
ATOM     13  O   UNL     1       7.967   5.583  14.234  0.00  0.00    +0.000 OA
ENDBRANCH   9  11
BRANCH   9  14
ATOM     14  C   UNL     1       7.565   4.568  16.852  0.00  0.00    +0.000 C 
BRANCH  14  15
ATOM     15  C   UNL     1       7.394   5.697  17.880  0.00  0.00    +0.000 C 
BRANCH  15  17
ATOM     16  C   UNL     1       8.237   8.006  18.301  0.00  0.00    +0.000 C 
ATOM     17  C   UNL     1       7.534   7.102  17.296  0.00  0.00    +0.000 C 
ENDBRANCH  15  17
ENDBRANCH  14  15
ENDBRANCH   9  14
ENDBRANCH   1  10
BRANCH   4  18
ATOM     18  O   UNL     1       1.114   3.353  19.561  0.00  0.00    +0.000 OA
BRANCH  18  19
ATOM     19  C   UNL     1       1.314   2.405  20.619  0.00  0.00    +0.000 C 
BRANCH  19  20
ATOM     20  C   UNL     1       2.379   2.855  21.607  0.00  0.00    +0.000 C 
ATOM     21  O   UNL     1       2.290   3.874  22.278  0.00  0.00    +0.000 OA
BRANCH  20  22
ATOM     22  O   UNL     1       3.446   2.026  21.674  0.00  0.00    +0.000 OA
ATOM     23  H   UNL     1       3.861   1.917  20.787  0.00  0.00    +0.000 HD
ENDBRANCH  20  22
ENDBRANCH  19  20
ENDBRANCH  18  19
ENDBRANCH   4  18
TORSDOF 9
ENDMDL
MODEL 2
REMARK VINA RESULT:      -6.9      0.827      1.237
REMARK  Name = 
REMARK  10 active torsions:
REMARK  status: ('A' for Active; 'I' for Inactive)
REMARK    1  A    between atoms: C_1  and  C_2
REMARK    2  A    between atoms: C_2  and  C_3
REMARK    3  A    between atoms: C_3  and  C_4
REMARK    4  A    between atoms: C_4  and  C_5
REMARK    5  A    between atoms: C_5  and  N_20
REMARK    6  A    between atoms: C_6  and  C_7
REMARK    7  A    between atoms: C_10  and  O_11
REMARK    8  A    between atoms: O_11  and  C_12
REMARK    9  A    between atoms: C_12  and  C_13
REMARK   10  A    between atoms: C_13  and  O_15
REMARK                            x       y       z     vdW  Elec       q    Type
REMARK                         _______ _______ _______ _____ _____    ______ ____
ROOT
ATOM      1  C   UNL     1       4.356   4.533  16.961  0.00  0.00    +0.000 A 
ATOM      2  C   UNL     1       4.025   3.241  17.384  0.00  0.00    +0.000 A 
ATOM      3  C   UNL     1       3.061   3.040  18.371  0.00  0.00    +0.000 A 
ATOM      4  C   UNL     1       2.387   4.128  18.937  0.00  0.00    +0.000 A 
ATOM      5  C   UNL     1       2.809   5.434  18.618  0.00  0.00    +0.000 A 
ATOM      6 CL   UNL     1       2.056   6.773  19.429  0.00  0.00    +0.000 Cl
ATOM      7  C   UNL     1       3.787   5.639  17.622  0.00  0.00    +0.000 A 
ATOM      8 CL   UNL     1       4.261   7.241  17.145  0.00  0.00    +0.000 Cl
ENDROOT
BRANCH   1  10
ATOM      9  C   UNL     1       6.443   4.786  15.533  0.00  0.00    +0.000 C 
ATOM     10  C   UNL     1       5.118   4.628  15.706  0.00  0.00    +0.000 C 
BRANCH   9  11
ATOM     11  N   UNL     1       6.895   4.704  14.135  0.00  0.00    +0.000 N 
ATOM     12  O   UNL     1       7.793   5.480  13.786  0.00  0.00    +0.000 OA
ATOM     13  O   UNL     1       6.360   3.863  13.398  0.00  0.00    +0.000 OA
ENDBRANCH   9  11
BRANCH   9  14
ATOM     14  C   UNL     1       7.549   5.003  16.530  0.00  0.00    +0.000 C 
BRANCH  14  15
ATOM     15  C   UNL     1       7.476   6.416  17.132  0.00  0.00    +0.000 C 
BRANCH  15  17
ATOM     16  C   UNL     1       6.990   5.470  19.387  0.00  0.00    +0.000 C 
ATOM     17  C   UNL     1       7.828   6.483  18.616  0.00  0.00    +0.000 C 
ENDBRANCH  15  17
ENDBRANCH  14  15
ENDBRANCH   9  14
ENDBRANCH   1  10
BRANCH   4  18
ATOM     18  O   UNL     1       1.306   3.970  19.779  0.00  0.00    +0.000 OA
BRANCH  18  19
ATOM     19  C   UNL     1       1.603   4.139  21.173  0.00  0.00    +0.000 C 
BRANCH  19  20
ATOM     20  C   UNL     1       1.843   2.815  21.879  0.00  0.00    +0.000 C 
ATOM     21  O   UNL     1       0.961   2.180  22.442  0.00  0.00    +0.000 OA
BRANCH  20  22
ATOM     22  O   UNL     1       3.130   2.398  21.837  0.00  0.00    +0.000 OA
ATOM     23  H   UNL     1       3.441   2.319  20.906  0.00  0.00    +0.000 HD
ENDBRANCH  20  22
ENDBRANCH  19  20
ENDBRANCH  18  19
ENDBRANCH   4  18
TORSDOF 9
ENDMDL
MODEL 3
REMARK VINA RESULT:      -6.9      2.863      3.579
REMARK  Name = 
REMARK  10 active torsions:
REMARK  status: ('A' for Active; 'I' for Inactive)
REMARK    1  A    between atoms: C_1  and  C_2
REMARK    2  A    between atoms: C_2  and  C_3
REMARK    3  A    between atoms: C_3  and  C_4
REMARK    4  A    between atoms: C_4  and  C_5
REMARK    5  A    between atoms: C_5  and  N_20
REMARK    6  A    between atoms: C_6  and  C_7
REMARK    7  A    between atoms: C_10  and  O_11
REMARK    8  A    between atoms: O_11  and  C_12
REMARK    9  A    between atoms: C_12  and  C_13
REMARK   10  A    between atoms: C_13  and  O_15
REMARK                            x       y       z     vdW  Elec       q    Type
REMARK                         _______ _______ _______ _____ _____    ______ ____
ROOT
ATOM      1  C   UNL     1       3.616   5.735  17.540  0.00  0.00    +0.000 A 
ATOM      2  C   UNL     1       3.429   7.109  17.726  0.00  0.00    +0.000 A 
ATOM      3  C   UNL     1       2.693   7.589  18.809  0.00  0.00    +0.000 A 
ATOM      4  C   UNL     1       2.152   6.702  19.747  0.00  0.00    +0.000 A 
ATOM      5  C   UNL     1       2.217   5.317  19.495  0.00  0.00    +0.000 A 
ATOM      6 CL   UNL     1       1.423   4.233  20.597  0.00  0.00    +0.000 Cl
ATOM      7  C   UNL     1       2.958   4.831  18.397  0.00  0.00    +0.000 A 
ATOM      8 CL   UNL     1       3.130   3.125  18.115  0.00  0.00    +0.000 Cl
ENDROOT
BRANCH   1  10
ATOM      9  C   UNL     1       5.881   4.826  16.833  0.00  0.00    +0.000 C 
ATOM     10  C   UNL     1       4.666   5.347  16.585  0.00  0.00    +0.000 C 
BRANCH   9  11
ATOM     11  N   UNL     1       6.634   4.424  15.635  0.00  0.00    +0.000 N 
ATOM     12  O   UNL     1       6.107   3.584  14.894  0.00  0.00    +0.000 OA
ATOM     13  O   UNL     1       7.737   4.951  15.435  0.00  0.00    +0.000 OA
ENDBRANCH   9  11
BRANCH   9  14
ATOM     14  C   UNL     1       6.592   4.555  18.132  0.00  0.00    +0.000 C 
BRANCH  14  15
ATOM     15  C   UNL     1       6.766   5.849  18.942  0.00  0.00    +0.000 C 
BRANCH  15  17
ATOM     16  C   UNL     1       7.672   7.791  17.666  0.00  0.00    +0.000 C 
ATOM     17  C   UNL     1       8.028   6.638  18.597  0.00  0.00    +0.000 C 
ENDBRANCH  15  17
ENDBRANCH  14  15
ENDBRANCH   9  14
ENDBRANCH   1  10
BRANCH   4  18
ATOM     18  O   UNL     1       1.576   7.134  20.923  0.00  0.00    +0.000 OA
BRANCH  18  19
ATOM     19  C   UNL     1       1.088   8.483  20.890  0.00  0.00    +0.000 C 
BRANCH  19  20
ATOM     20  C   UNL     1       1.053   9.120  22.270  0.00  0.00    +0.000 C 
ATOM     21  O   UNL     1       0.020   9.454  22.834  0.00  0.00    +0.000 OA
BRANCH  20  22
ATOM     22  O   UNL     1       2.276   9.294  22.822  0.00  0.00    +0.000 OA
ATOM     23  H   UNL     1       2.235   9.932  23.571  0.00  0.00    +0.000 HD
ENDBRANCH  20  22
ENDBRANCH  19  20
ENDBRANCH  18  19
ENDBRANCH   4  18
TORSDOF 9
ENDMDL
MODEL 4
REMARK VINA RESULT:      -6.7      0.793      1.150
REMARK  Name = 
REMARK  10 active torsions:
REMARK  status: ('A' for Active; 'I' for Inactive)
REMARK    1  A    between atoms: C_1  and  C_2
REMARK    2  A    between atoms: C_2  and  C_3
REMARK    3  A    between atoms: C_3  and  C_4
REMARK    4  A    between atoms: C_4  and  C_5
REMARK    5  A    between atoms: C_5  and  N_20
REMARK    6  A    between atoms: C_6  and  C_7
REMARK    7  A    between atoms: C_10  and  O_11
REMARK    8  A    between atoms: O_11  and  C_12
REMARK    9  A    between atoms: C_12  and  C_13
REMARK   10  A    between atoms: C_13  and  O_15
REMARK                            x       y       z     vdW  Elec       q    Type
REMARK                         _______ _______ _______ _____ _____    ______ ____
ROOT
ATOM      1  C   UNL     1       4.217   4.525  17.025  0.00  0.00    +0.000 A 
ATOM      2  C   UNL     1       3.832   3.261  17.485  0.00  0.00    +0.000 A 
ATOM      3  C   UNL     1       2.896   3.130  18.510  0.00  0.00    +0.000 A 
ATOM      4  C   UNL     1       2.303   4.264  19.078  0.00  0.00    +0.000 A 
ATOM      5  C   UNL     1       2.783   5.539  18.718  0.00  0.00    +0.000 A 
ATOM      6 CL   UNL     1       2.133   6.932  19.529  0.00  0.00    +0.000 Cl
ATOM      7  C   UNL     1       3.733   5.672  17.684  0.00  0.00    +0.000 A 
ATOM      8 CL   UNL     1       4.275   7.237  17.159  0.00  0.00    +0.000 Cl
ENDROOT
BRANCH   1  10
ATOM      9  C   UNL     1       6.258   4.675  15.518  0.00  0.00    +0.000 C 
ATOM     10  C   UNL     1       4.937   4.556  15.742  0.00  0.00    +0.000 C 
BRANCH   9  11
ATOM     11  N   UNL     1       6.659   4.531  14.110  0.00  0.00    +0.000 N 
ATOM     12  O   UNL     1       7.471   5.353  13.668  0.00  0.00    +0.000 OA
ATOM     13  O   UNL     1       6.170   3.598  13.457  0.00  0.00    +0.000 OA
ENDBRANCH   9  11
BRANCH   9  14
ATOM     14  C   UNL     1       7.403   4.899  16.469  0.00  0.00    +0.000 C 
BRANCH  14  15
ATOM     15  C   UNL     1       7.513   6.383  16.855  0.00  0.00    +0.000 C 
BRANCH  15  17
ATOM     16  C   UNL     1       8.326   8.027  18.544  0.00  0.00    +0.000 C 
ATOM     17  C   UNL     1       7.762   6.626  18.342  0.00  0.00    +0.000 C 
ENDBRANCH  15  17
ENDBRANCH  14  15
ENDBRANCH   9  14
ENDBRANCH   1  10
BRANCH   4  18
ATOM     18  O   UNL     1       1.247   4.180  19.960  0.00  0.00    +0.000 OA
BRANCH  18  19
ATOM     19  C   UNL     1       0.965   2.854  20.432  0.00  0.00    +0.000 C 
BRANCH  19  20
ATOM     20  C   UNL     1       1.623   2.563  21.771  0.00  0.00    +0.000 C 
ATOM     21  O   UNL     1       2.835   2.544  21.938  0.00  0.00    +0.000 OA
BRANCH  20  22
ATOM     22  O   UNL     1       0.743   2.318  22.769  0.00  0.00    +0.000 OA
ATOM     23  H   UNL     1       0.489   1.366  22.786  0.00  0.00    +0.000 HD
ENDBRANCH  20  22
ENDBRANCH  19  20
ENDBRANCH  18  19
ENDBRANCH   4  18
TORSDOF 9
ENDMDL
MODEL 5
REMARK VINA RESULT:      -6.7      3.057      3.875
REMARK  Name = 
REMARK  10 active torsions:
REMARK  status: ('A' for Active; 'I' for Inactive)
REMARK    1  A    between atoms: C_1  and  C_2
REMARK    2  A    between atoms: C_2  and  C_3
REMARK    3  A    between atoms: C_3  and  C_4
REMARK    4  A    between atoms: C_4  and  C_5
REMARK    5  A    between atoms: C_5  and  N_20
REMARK    6  A    between atoms: C_6  and  C_7
REMARK    7  A    between atoms: C_10  and  O_11
REMARK    8  A    between atoms: O_11  and  C_12
REMARK    9  A    between atoms: C_12  and  C_13
REMARK   10  A    between atoms: C_13  and  O_15
REMARK                            x       y       z     vdW  Elec       q    Type
REMARK                         _______ _______ _______ _____ _____    ______ ____
ROOT
ATOM      1  C   UNL     1       3.702   6.045  17.691  0.00  0.00    +0.000 A 
ATOM      2  C   UNL     1       3.307   7.387  17.710  0.00  0.00    +0.000 A 
ATOM      3  C   UNL     1       2.523   7.885  18.751  0.00  0.00    +0.000 A 
ATOM      4  C   UNL     1       2.142   7.054  19.811  0.00  0.00    +0.000 A 
ATOM      5  C   UNL     1       2.418   5.675  19.733  0.00  0.00    +0.000 A 
ATOM      6 CL   UNL     1       1.821   4.633  20.989  0.00  0.00    +0.000 Cl
ATOM      7  C   UNL     1       3.207   5.169  18.678  0.00  0.00    +0.000 A 
ATOM      8 CL   UNL     1       3.637   3.488  18.605  0.00  0.00    +0.000 Cl
ENDROOT
BRANCH   1  10
ATOM      9  C   UNL     1       6.112   5.852  16.908  0.00  0.00    +0.000 C 
ATOM     10  C   UNL     1       4.784   5.701  16.755  0.00  0.00    +0.000 C 
BRANCH   9  11
ATOM     11  N   UNL     1       6.925   5.274  15.826  0.00  0.00    +0.000 N 
ATOM     12  O   UNL     1       7.796   4.458  16.150  0.00  0.00    +0.000 OA
ATOM     13  O   UNL     1       6.686   5.630  14.664  0.00  0.00    +0.000 OA
ENDBRANCH   9  11
BRANCH   9  14
ATOM     14  C   UNL     1       6.912   6.483  18.015  0.00  0.00    +0.000 C 
BRANCH  14  15
ATOM     15  C   UNL     1       7.918   7.501  17.454  0.00  0.00    +0.000 C 
BRANCH  15  17
ATOM     16  C   UNL     1       8.803   9.551  18.564  0.00  0.00    +0.000 C 
ATOM     17  C   UNL     1       7.613   8.951  17.824  0.00  0.00    +0.000 C 
ENDBRANCH  15  17
ENDBRANCH  14  15
ENDBRANCH   9  14
ENDBRANCH   1  10
BRANCH   4  18
ATOM     18  O   UNL     1       1.526   7.541  20.945  0.00  0.00    +0.000 OA
BRANCH  18  19
ATOM     19  C   UNL     1       0.876   8.810  20.774  0.00  0.00    +0.000 C 
BRANCH  19  20
ATOM     20  C   UNL     1       0.173   9.275  22.039  0.00  0.00    +0.000 C 
ATOM     21  O   UNL     1       0.452  10.313  22.624  0.00  0.00    +0.000 OA
BRANCH  20  22
ATOM     22  O   UNL     1      -0.794   8.431  22.468  0.00  0.00    +0.000 OA
ATOM     23  H   UNL     1      -1.586   8.932  22.772  0.00  0.00    +0.000 HD
ENDBRANCH  20  22
ENDBRANCH  19  20
ENDBRANCH  18  19
ENDBRANCH   4  18
TORSDOF 9
ENDMDL
MODEL 6
REMARK VINA RESULT:      -6.5      4.888      6.759
REMARK  Name = 
REMARK  10 active torsions:
REMARK  status: ('A' for Active; 'I' for Inactive)
REMARK    1  A    between atoms: C_1  and  C_2
REMARK    2  A    between atoms: C_2  and  C_3
REMARK    3  A    between atoms: C_3  and  C_4
REMARK    4  A    between atoms: C_4  and  C_5
REMARK    5  A    between atoms: C_5  and  N_20
REMARK    6  A    between atoms: C_6  and  C_7
REMARK    7  A    between atoms: C_10  and  O_11
REMARK    8  A    between atoms: O_11  and  C_12
REMARK    9  A    between atoms: C_12  and  C_13
REMARK   10  A    between atoms: C_13  and  O_15
REMARK                            x       y       z     vdW  Elec       q    Type
REMARK                         _______ _______ _______ _____ _____    ______ ____
ROOT
ATOM      1  C   UNL     1       2.625   7.159  18.698  0.00  0.00    +0.000 A 
ATOM      2  C   UNL     1       2.548   8.106  17.671  0.00  0.00    +0.000 A 
ATOM      3  C   UNL     1       1.866   9.308  17.860  0.00  0.00    +0.000 A 
ATOM      4  C   UNL     1       1.271   9.599  19.093  0.00  0.00    +0.000 A 
ATOM      5  C   UNL     1       1.226   8.599  20.084  0.00  0.00    +0.000 A 
ATOM      6 CL   UNL     1       0.366   8.925  21.558  0.00  0.00    +0.000 Cl
ATOM      7  C   UNL     1       1.912   7.380  19.892  0.00  0.00    +0.000 A 
ATOM      8 CL   UNL     1       1.947   6.166  21.133  0.00  0.00    +0.000 Cl
ENDROOT
BRANCH   1  10
ATOM      9  C   UNL     1       3.457   4.836  18.090  0.00  0.00    +0.000 C 
ATOM     10  C   UNL     1       3.629   6.097  18.525  0.00  0.00    +0.000 C 
BRANCH   9  11
ATOM     11  N   UNL     1       4.702   4.073  17.905  0.00  0.00    +0.000 N 
ATOM     12  O   UNL     1       5.008   3.766  16.747  0.00  0.00    +0.000 OA
ATOM     13  O   UNL     1       5.370   3.794  18.911  0.00  0.00    +0.000 OA
ENDBRANCH   9  11
BRANCH   9  14
ATOM     14  C   UNL     1       2.208   4.079  17.728  0.00  0.00    +0.000 C 
BRANCH  14  15
ATOM     15  C   UNL     1       1.999   2.883  18.670  0.00  0.00    +0.000 C 
BRANCH  15  17
ATOM     16  C   UNL     1       1.428   2.695  21.091  0.00  0.00    +0.000 C 
ATOM     17  C   UNL     1       0.905   3.093  19.716  0.00  0.00    +0.000 C 
ENDBRANCH  15  17
ENDBRANCH  14  15
ENDBRANCH   9  14
ENDBRANCH   1  10
BRANCH   4  18
ATOM     18  O   UNL     1       0.747  10.841  19.383  0.00  0.00    +0.000 OA
BRANCH  18  19
ATOM     19  C   UNL     1      -0.573  11.069  18.868  0.00  0.00    +0.000 C 
BRANCH  19  20
ATOM     20  C   UNL     1      -0.879  12.547  18.691  0.00  0.00    +0.000 C 
ATOM     21  O   UNL     1      -0.986  13.331  19.625  0.00  0.00    +0.000 OA
BRANCH  20  22
ATOM     22  O   UNL     1      -1.031  12.923  17.400  0.00  0.00    +0.000 OA
ATOM     23  H   UNL     1      -0.165  12.920  16.931  0.00  0.00    +0.000 HD
ENDBRANCH  20  22
ENDBRANCH  19  20
ENDBRANCH  18  19
ENDBRANCH   4  18
TORSDOF 9
ENDMDL
MODEL 7
REMARK VINA RESULT:      -6.4      2.944      3.752
REMARK  Name = 
REMARK  10 active torsions:
REMARK  status: ('A' for Active; 'I' for Inactive)
REMARK    1  A    between atoms: C_1  and  C_2
REMARK    2  A    between atoms: C_2  and  C_3
REMARK    3  A    between atoms: C_3  and  C_4
REMARK    4  A    between atoms: C_4  and  C_5
REMARK    5  A    between atoms: C_5  and  N_20
REMARK    6  A    between atoms: C_6  and  C_7
REMARK    7  A    between atoms: C_10  and  O_11
REMARK    8  A    between atoms: O_11  and  C_12
REMARK    9  A    between atoms: C_12  and  C_13
REMARK   10  A    between atoms: C_13  and  O_15
REMARK                            x       y       z     vdW  Elec       q    Type
REMARK                         _______ _______ _______ _____ _____    ______ ____
ROOT
ATOM      1  C   UNL     1       3.324   5.908  17.657  0.00  0.00    +0.000 A 
ATOM      2  C   UNL     1       3.187   7.271  17.941  0.00  0.00    +0.000 A 
ATOM      3  C   UNL     1       2.495   7.697  19.074  0.00  0.00    +0.000 A 
ATOM      4  C   UNL     1       1.949   6.765  19.963  0.00  0.00    +0.000 A 
ATOM      5  C   UNL     1       1.962   5.400  19.617  0.00  0.00    +0.000 A 
ATOM      6 CL   UNL     1       1.162   4.267  20.663  0.00  0.00    +0.000 Cl
ATOM      7  C   UNL     1       2.659   4.968  18.468  0.00  0.00    +0.000 A 
ATOM      8 CL   UNL     1       2.767   3.281  18.066  0.00  0.00    +0.000 Cl
ENDROOT
BRANCH   1  10
ATOM      9  C   UNL     1       5.525   4.949  16.823  0.00  0.00    +0.000 C 
ATOM     10  C   UNL     1       4.336   5.554  16.649  0.00  0.00    +0.000 C 
BRANCH   9  11
ATOM     11  N   UNL     1       6.235   4.619  15.577  0.00  0.00    +0.000 N 
ATOM     12  O   UNL     1       6.767   5.555  14.967  0.00  0.00    +0.000 OA
ATOM     13  O   UNL     1       6.266   3.433  15.221  0.00  0.00    +0.000 OA
ENDBRANCH   9  11
BRANCH   9  14
ATOM     14  C   UNL     1       6.240   4.522  18.077  0.00  0.00    +0.000 C 
BRANCH  14  15
ATOM     15  C   UNL     1       7.684   5.050  18.091  0.00  0.00    +0.000 C 
BRANCH  15  17
ATOM     16  C   UNL     1       7.739   7.514  17.710  0.00  0.00    +0.000 C 
ATOM     17  C   UNL     1       7.845   6.414  18.760  0.00  0.00    +0.000 C 
ENDBRANCH  15  17
ENDBRANCH  14  15
ENDBRANCH   9  14
ENDBRANCH   1  10
BRANCH   4  18
ATOM     18  O   UNL     1       1.418   7.132  21.182  0.00  0.00    +0.000 OA
BRANCH  18  19
ATOM     19  C   UNL     1       0.601   8.311  21.148  0.00  0.00    +0.000 C 
BRANCH  19  20
ATOM     20  C   UNL     1       0.679   9.109  22.440  0.00  0.00    +0.000 C 
ATOM     21  O   UNL     1       1.693   9.677  22.823  0.00  0.00    +0.000 OA
BRANCH  20  22
ATOM     22  O   UNL     1      -0.479   9.131  23.139  0.00  0.00    +0.000 OA
ATOM     23  H   UNL     1      -1.229   8.816  22.583  0.00  0.00    +0.000 HD
ENDBRANCH  20  22
ENDBRANCH  19  20
ENDBRANCH  18  19
ENDBRANCH   4  18
TORSDOF 9
ENDMDL
MODEL 8
REMARK VINA RESULT:      -6.4      1.193      1.855
REMARK  Name = 
REMARK  10 active torsions:
REMARK  status: ('A' for Active; 'I' for Inactive)
REMARK    1  A    between atoms: C_1  and  C_2
REMARK    2  A    between atoms: C_2  and  C_3
REMARK    3  A    between atoms: C_3  and  C_4
REMARK    4  A    between atoms: C_4  and  C_5
REMARK    5  A    between atoms: C_5  and  N_20
REMARK    6  A    between atoms: C_6  and  C_7
REMARK    7  A    between atoms: C_10  and  O_11
REMARK    8  A    between atoms: O_11  and  C_12
REMARK    9  A    between atoms: C_12  and  C_13
REMARK   10  A    between atoms: C_13  and  O_15
REMARK                            x       y       z     vdW  Elec       q    Type
REMARK                         _______ _______ _______ _____ _____    ______ ____
ROOT
ATOM      1  C   UNL     1       4.564   4.840  18.075  0.00  0.00    +0.000 A 
ATOM      2  C   UNL     1       4.887   3.679  18.786  0.00  0.00    +0.000 A 
ATOM      3  C   UNL     1       4.211   3.353  19.961  0.00  0.00    +0.000 A 
ATOM      4  C   UNL     1       3.177   4.168  20.434  0.00  0.00    +0.000 A 
ATOM      5  C   UNL     1       2.937   5.404  19.803  0.00  0.00    +0.000 A 
ATOM      6 CL   UNL     1       1.743   6.468  20.481  0.00  0.00    +0.000 Cl
ATOM      7  C   UNL     1       3.624   5.738  18.616  0.00  0.00    +0.000 A 
ATOM      8 CL   UNL     1       3.284   7.216  17.768  0.00  0.00    +0.000 Cl
ENDROOT
BRANCH   1  10
ATOM      9  C   UNL     1       6.308   5.292  16.282  0.00  0.00    +0.000 C 
ATOM     10  C   UNL     1       5.084   4.923  16.700  0.00  0.00    +0.000 C 
BRANCH   9  11
ATOM     11  N   UNL     1       6.539   5.130  14.837  0.00  0.00    +0.000 N 
ATOM     12  O   UNL     1       5.639   4.594  14.180  0.00  0.00    +0.000 OA
ATOM     13  O   UNL     1       7.608   5.544  14.368  0.00  0.00    +0.000 OA
ENDBRANCH   9  11
BRANCH   9  14
ATOM     14  C   UNL     1       7.495   5.816  17.045  0.00  0.00    +0.000 C 
BRANCH  14  15
ATOM     15  C   UNL     1       7.381   7.333  17.263  0.00  0.00    +0.000 C 
BRANCH  15  17
ATOM     16  C   UNL     1       8.466   9.371  18.206  0.00  0.00    +0.000 C 
ATOM     17  C   UNL     1       8.265   7.871  18.387  0.00  0.00    +0.000 C 
ENDBRANCH  15  17
ENDBRANCH  14  15
ENDBRANCH   9  14
ENDBRANCH   1  10
BRANCH   4  18
ATOM     18  O   UNL     1       2.364   3.794  21.484  0.00  0.00    +0.000 OA
BRANCH  18  19
ATOM     19  C   UNL     1       1.611   2.593  21.258  0.00  0.00    +0.000 C 
BRANCH  19  20
ATOM     20  C   UNL     1       0.897   2.600  19.916  0.00  0.00    +0.000 C 
ATOM     21  O   UNL     1       1.194   1.859  18.989  0.00  0.00    +0.000 OA
BRANCH  20  22
ATOM     22  O   UNL     1      -0.102   3.509  19.834  0.00  0.00    +0.000 OA
ATOM     23  H   UNL     1      -0.535   3.634  20.710  0.00  0.00    +0.000 HD
ENDBRANCH  20  22
ENDBRANCH  19  20
ENDBRANCH  18  19
ENDBRANCH   4  18
TORSDOF 9
ENDMDL
MODEL 9
REMARK VINA RESULT:      -6.4      1.127      1.733
REMARK  Name = 
REMARK  10 active torsions:
REMARK  status: ('A' for Active; 'I' for Inactive)
REMARK    1  A    between atoms: C_1  and  C_2
REMARK    2  A    between atoms: C_2  and  C_3
REMARK    3  A    between atoms: C_3  and  C_4
REMARK    4  A    between atoms: C_4  and  C_5
REMARK    5  A    between atoms: C_5  and  N_20
REMARK    6  A    between atoms: C_6  and  C_7
REMARK    7  A    between atoms: C_10  and  O_11
REMARK    8  A    between atoms: O_11  and  C_12
REMARK    9  A    between atoms: C_12  and  C_13
REMARK   10  A    between atoms: C_13  and  O_15
REMARK                            x       y       z     vdW  Elec       q    Type
REMARK                         _______ _______ _______ _____ _____    ______ ____
ROOT
ATOM      1  C   UNL     1       4.689   4.630  17.524  0.00  0.00    +0.000 A 
ATOM      2  C   UNL     1       4.781   3.392  18.170  0.00  0.00    +0.000 A 
ATOM      3  C   UNL     1       4.033   3.129  19.317  0.00  0.00    +0.000 A 
ATOM      4  C   UNL     1       3.154   4.092  19.826  0.00  0.00    +0.000 A 
ATOM      5  C   UNL     1       3.156   5.384  19.266  0.00  0.00    +0.000 A 
ATOM      6 CL   UNL     1       2.160   6.608  19.993  0.00  0.00    +0.000 Cl
ATOM      7  C   UNL     1       3.916   5.652  18.107  0.00  0.00    +0.000 A 
ATOM      8 CL   UNL     1       3.867   7.212  17.344  0.00  0.00    +0.000 Cl
ENDROOT
BRANCH   1  10
ATOM      9  C   UNL     1       6.495   4.998  15.774  0.00  0.00    +0.000 C 
ATOM     10  C   UNL     1       5.243   4.693  16.163  0.00  0.00    +0.000 C 
BRANCH   9  11
ATOM     11  N   UNL     1       6.750   4.832  14.334  0.00  0.00    +0.000 N 
ATOM     12  O   UNL     1       6.005   4.063  13.715  0.00  0.00    +0.000 OA
ATOM     13  O   UNL     1       7.682   5.474  13.830  0.00  0.00    +0.000 OA
ENDBRANCH   9  11
BRANCH   9  14
ATOM     14  C   UNL     1       7.691   5.450  16.568  0.00  0.00    +0.000 C 
BRANCH  14  15
ATOM     15  C   UNL     1       7.460   6.850  17.158  0.00  0.00    +0.000 C 
BRANCH  15  17
ATOM     16  C   UNL     1       7.779   5.725  19.361  0.00  0.00    +0.000 C 
ATOM     17  C   UNL     1       7.979   7.021  18.584  0.00  0.00    +0.000 C 
ENDBRANCH  15  17
ENDBRANCH  14  15
ENDBRANCH   9  14
ENDBRANCH   1  10
BRANCH   4  18
ATOM     18  O   UNL     1       2.265   3.814  20.843  0.00  0.00    +0.000 OA
BRANCH  18  19
ATOM     19  C   UNL     1       0.964   3.398  20.404  0.00  0.00    +0.000 C 
BRANCH  19  20
ATOM     20  C   UNL     1       0.996   2.747  19.031  0.00  0.00    +0.000 C 
ATOM     21  O   UNL     1       0.798   3.358  17.989  0.00  0.00    +0.000 OA
BRANCH  20  22
ATOM     22  O   UNL     1       1.259   1.420  19.062  0.00  0.00    +0.000 OA
ATOM     23  H   UNL     1       0.425   0.898  19.083  0.00  0.00    +0.000 HD
ENDBRANCH  20  22
ENDBRANCH  19  20
ENDBRANCH  18  19
ENDBRANCH   4  18
TORSDOF 9
ENDMDL
