MODEL 1
REMARK VINA RESULT:      -8.0      0.000      0.000
REMARK  Name = 
REMARK  12 active torsions:
REMARK  status: ('A' for Active; 'I' for Inactive)
REMARK    1  A    between atoms: C_1  and  C_2
REMARK    2  A    between atoms: C_2  and  O_3
REMARK    3  A    between atoms: O_3  and  C_4
REMARK    4  A    between atoms: C_4  and  C_6
REMARK    5  A    between atoms: C_7  and  C_8
REMARK    6  A    between atoms: C_10  and  C_11
REMARK    7  A    between atoms: C_12  and  C_13
REMARK    8  A    between atoms: C_13  and  O_15
REMARK    9  A    between atoms: O_15  and  C_16
REMARK   10  A    between atoms: C_16  and  C_17
REMARK   11  A    between atoms: C_18  and  C_19
REMARK   12  A    between atoms: C_23  and  N_24
REMARK                            x       y       z     vdW  Elec       q    Type
REMARK                         _______ _______ _______ _____ _____    ______ ____
ROOT
ATOM      1  C   UNL     1       2.402   6.736  18.838  0.00  0.00    +0.000 C 
ATOM      2  C   UNL     1       2.038   6.795  20.142  0.00  0.00    +0.000 C 
ATOM      3  C   UNL     1       1.778   8.038  20.955  0.00  0.00    +0.000 C 
ATOM      4  N   UNL     1       1.849   5.612  20.843  0.00  0.00    +0.000 N 
ATOM      5  C   UNL     1       1.747   4.363  20.255  0.00  0.00    +0.000 C 
ATOM      6  C   UNL     1       1.255   3.252  21.157  0.00  0.00    +0.000 C 
ATOM      7  C   UNL     1       2.098   4.196  18.961  0.00  0.00    +0.000 C 
ATOM      8  C   UNL     1       2.688   5.377  18.182  0.00  0.00    +0.000 C 
ATOM      9  H   UNL     1       1.534   5.699  21.807  0.00  0.00    +0.000 HD
ENDROOT
BRANCH   8  10
ATOM     10  C   UNL     1       4.210   5.229  18.012  0.00  0.00    +0.000 A 
ATOM     11  C   UNL     1       5.075   5.412  19.110  0.00  0.00    +0.000 A 
ATOM     12  C   UNL     1       6.460   5.363  18.956  0.00  0.00    +0.000 A 
ATOM     13  C   UNL     1       7.012   5.130  17.701  0.00  0.00    +0.000 A 
ATOM     14  C   UNL     1       6.165   4.934  16.602  0.00  0.00    +0.000 A 
ATOM     15  C   UNL     1       4.770   4.983  16.749  0.00  0.00    +0.000 A 
BRANCH  14  16
ATOM     16  N   UNL     1       6.745   4.686  15.280  0.00  0.00    +0.000 N 
ATOM     17  O   UNL     1       7.680   5.415  14.914  0.00  0.00    +0.000 OA
ATOM     18  O   UNL     1       6.273   3.760  14.605  0.00  0.00    +0.000 OA
ENDBRANCH  14  16
ENDBRANCH   8  10
BRANCH   1  19
ATOM     19  C   UNL     1       2.543   7.947  17.984  0.00  0.00    +0.000 C 
ATOM     20  O   UNL     1       3.595   8.467  17.653  0.00  0.00    +0.000 OA
BRANCH  19  21
ATOM     21  O   UNL     1       1.308   8.449  17.727  0.00  0.00    +0.000 OA
BRANCH  21  23
ATOM     22  C   UNL     1      -0.339  10.066  18.270  0.00  0.00    +0.000 C 
ATOM     23  C   UNL     1       1.137   9.848  17.988  0.00  0.00    +0.000 C 
ENDBRANCH  21  23
ENDBRANCH  19  21
ENDBRANCH   1  19
BRANCH   7  24
ATOM     24  C   UNL     1       1.957   2.880  18.280  0.00  0.00    +0.000 C 
ATOM     25  O   UNL     1       0.898   2.298  18.098  0.00  0.00    +0.000 OA
BRANCH  24  26
ATOM     26  O   UNL     1       3.173   2.377  17.950  0.00  0.00    +0.000 OA
BRANCH  26  27
ATOM     27  C   UNL     1       3.626   1.302  18.784  0.00  0.00    +0.000 C 
ATOM     28  C   UNL     1       4.523   1.898  19.855  0.00  0.00    +0.000 C 
ENDBRANCH  26  27
ENDBRANCH  24  26
ENDBRANCH   7  24
TORSDOF 8
ENDMDL
MODEL 2
REMARK VINA RESULT:      -8.0      1.896      5.832
REMARK  Name = 
REMARK  12 active torsions:
REMARK  status: ('A' for Active; 'I' for Inactive)
REMARK    1  A    between atoms: C_1  and  C_2
REMARK    2  A    between atoms: C_2  and  O_3
REMARK    3  A    between atoms: O_3  and  C_4
REMARK    4  A    between atoms: C_4  and  C_6
REMARK    5  A    between atoms: C_7  and  C_8
REMARK    6  A    between atoms: C_10  and  C_11
REMARK    7  A    between atoms: C_12  and  C_13
REMARK    8  A    between atoms: C_13  and  O_15
REMARK    9  A    between atoms: O_15  and  C_16
REMARK   10  A    between atoms: C_16  and  C_17
REMARK   11  A    between atoms: C_18  and  C_19
REMARK   12  A    between atoms: C_23  and  N_24
REMARK                            x       y       z     vdW  Elec       q    Type
REMARK                         _______ _______ _______ _____ _____    ______ ____
ROOT
ATOM      1  C   UNL     1       3.591   3.896  18.288  0.00  0.00    +0.000 C 
ATOM      2  C   UNL     1       4.523   3.261  19.041  0.00  0.00    +0.000 C 
ATOM      3  C   UNL     1       4.361   1.950  19.766  0.00  0.00    +0.000 C 
ATOM      4  N   UNL     1       5.784   3.826  19.170  0.00  0.00    +0.000 N 
ATOM      5  C   UNL     1       6.261   4.859  18.382  0.00  0.00    +0.000 C 
ATOM      6  C   UNL     1       7.746   5.131  18.486  0.00  0.00    +0.000 C 
ATOM      7  C   UNL     1       5.410   5.563  17.604  0.00  0.00    +0.000 C 
ATOM      8  C   UNL     1       3.908   5.265  17.668  0.00  0.00    +0.000 C 
ATOM      9  H   UNL     1       6.467   3.298  19.707  0.00  0.00    +0.000 HD
ENDROOT
BRANCH   8  10
ATOM     10  C   UNL     1       3.157   6.345  18.466  0.00  0.00    +0.000 A 
ATOM     11  C   UNL     1       2.868   6.157  19.832  0.00  0.00    +0.000 A 
ATOM     12  C   UNL     1       2.118   7.088  20.549  0.00  0.00    +0.000 A 
ATOM     13  C   UNL     1       1.640   8.231  19.916  0.00  0.00    +0.000 A 
ATOM     14  C   UNL     1       1.930   8.438  18.561  0.00  0.00    +0.000 A 
ATOM     15  C   UNL     1       2.683   7.504  17.833  0.00  0.00    +0.000 A 
BRANCH  14  16
ATOM     16  N   UNL     1       1.429   9.643  17.893  0.00  0.00    +0.000 N 
ATOM     17  O   UNL     1       0.199   9.782  17.801  0.00  0.00    +0.000 OA
ATOM     18  O   UNL     1       2.260  10.454  17.463  0.00  0.00    +0.000 OA
ENDBRANCH  14  16
ENDBRANCH   8  10
BRANCH   1  19
ATOM     19  C   UNL     1       2.242   3.324  18.022  0.00  0.00    +0.000 C 
ATOM     20  O   UNL     1       1.934   2.646  17.056  0.00  0.00    +0.000 OA
BRANCH  19  21
ATOM     21  O   UNL     1       1.380   3.774  18.969  0.00  0.00    +0.000 OA
BRANCH  21  23
ATOM     22  C   UNL     1       1.268   3.041  21.222  0.00  0.00    +0.000 C 
ATOM     23  C   UNL     1       0.793   2.769  19.806  0.00  0.00    +0.000 C 
ENDBRANCH  21  23
ENDBRANCH  19  21
ENDBRANCH   1  19
BRANCH   7  24
ATOM     24  C   UNL     1       5.892   6.649  16.706  0.00  0.00    +0.000 C 
ATOM     25  O   UNL     1       6.358   7.713  17.084  0.00  0.00    +0.000 OA
BRANCH  24  26
ATOM     26  O   UNL     1       5.680   6.326  15.405  0.00  0.00    +0.000 OA
BRANCH  26  27
ATOM     27  C   UNL     1       6.515   5.273  14.903  0.00  0.00    +0.000 C 
ATOM     28  C   UNL     1       5.612   4.253  14.231  0.00  0.00    +0.000 C 
ENDBRANCH  26  27
ENDBRANCH  24  26
ENDBRANCH   7  24
TORSDOF 8
ENDMDL
MODEL 3
REMARK VINA RESULT:      -7.6      1.575      1.890
REMARK  Name = 
REMARK  12 active torsions:
REMARK  status: ('A' for Active; 'I' for Inactive)
REMARK    1  A    between atoms: C_1  and  C_2
REMARK    2  A    between atoms: C_2  and  O_3
REMARK    3  A    between atoms: O_3  and  C_4
REMARK    4  A    between atoms: C_4  and  C_6
REMARK    5  A    between atoms: C_7  and  C_8
REMARK    6  A    between atoms: C_10  and  C_11
REMARK    7  A    between atoms: C_12  and  C_13
REMARK    8  A    between atoms: C_13  and  O_15
REMARK    9  A    between atoms: O_15  and  C_16
REMARK   10  A    between atoms: C_16  and  C_17
REMARK   11  A    between atoms: C_18  and  C_19
REMARK   12  A    between atoms: C_23  and  N_24
REMARK                            x       y       z     vdW  Elec       q    Type
REMARK                         _______ _______ _______ _____ _____    ______ ____
ROOT
ATOM      1  C   UNL     1       2.256   6.800  18.718  0.00  0.00    +0.000 C 
ATOM      2  C   UNL     1       2.079   6.884  20.059  0.00  0.00    +0.000 C 
ATOM      3  C   UNL     1       1.927   8.142  20.876  0.00  0.00    +0.000 C 
ATOM      4  N   UNL     1       2.001   5.715  20.804  0.00  0.00    +0.000 N 
ATOM      5  C   UNL     1       1.827   4.454  20.261  0.00  0.00    +0.000 C 
ATOM      6  C   UNL     1       1.476   3.359  21.245  0.00  0.00    +0.000 C 
ATOM      7  C   UNL     1       1.992   4.262  18.934  0.00  0.00    +0.000 C 
ATOM      8  C   UNL     1       2.456   5.429  18.056  0.00  0.00    +0.000 C 
ATOM      9  H   UNL     1       1.825   5.820  21.801  0.00  0.00    +0.000 HD
ENDROOT
BRANCH   8  10
ATOM     10  C   UNL     1       3.940   5.286  17.675  0.00  0.00    +0.000 A 
ATOM     11  C   UNL     1       4.312   4.705  16.446  0.00  0.00    +0.000 A 
ATOM     12  C   UNL     1       5.651   4.494  16.120  0.00  0.00    +0.000 A 
ATOM     13  C   UNL     1       6.650   4.859  17.017  0.00  0.00    +0.000 A 
ATOM     14  C   UNL     1       6.296   5.448  18.238  0.00  0.00    +0.000 A 
ATOM     15  C   UNL     1       4.950   5.663  18.573  0.00  0.00    +0.000 A 
BRANCH  14  16
ATOM     16  N   UNL     1       7.348   5.835  19.183  0.00  0.00    +0.000 N 
ATOM     17  O   UNL     1       8.131   6.733  18.839  0.00  0.00    +0.000 OA
ATOM     18  O   UNL     1       7.390   5.248  20.274  0.00  0.00    +0.000 OA
ENDBRANCH  14  16
ENDBRANCH   8  10
BRANCH   1  19
ATOM     19  C   UNL     1       2.264   7.994  17.829  0.00  0.00    +0.000 C 
ATOM     20  O   UNL     1       3.257   8.531  17.366  0.00  0.00    +0.000 OA
BRANCH  19  21
ATOM     21  O   UNL     1       0.995   8.460  17.708  0.00  0.00    +0.000 OA
BRANCH  21  23
ATOM     22  C   UNL     1      -0.697  10.092  18.022  0.00  0.00    +0.000 C 
ATOM     23  C   UNL     1       0.798   9.833  18.071  0.00  0.00    +0.000 C 
ENDBRANCH  21  23
ENDBRANCH  19  21
ENDBRANCH   1  19
BRANCH   7  24
ATOM     24  C   UNL     1       1.766   2.931  18.306  0.00  0.00    +0.000 C 
ATOM     25  O   UNL     1       0.683   2.372  18.224  0.00  0.00    +0.000 OA
BRANCH  24  26
ATOM     26  O   UNL     1       2.941   2.387  17.898  0.00  0.00    +0.000 OA
BRANCH  26  27
ATOM     27  C   UNL     1       3.484   1.396  18.782  0.00  0.00    +0.000 C 
ATOM     28  C   UNL     1       4.557   2.069  19.620  0.00  0.00    +0.000 C 
ENDBRANCH  26  27
ENDBRANCH  24  26
ENDBRANCH   7  24
TORSDOF 8
ENDMDL
MODEL 4
REMARK VINA RESULT:      -7.6      1.983      5.972
REMARK  Name = 
REMARK  12 active torsions:
REMARK  status: ('A' for Active; 'I' for Inactive)
REMARK    1  A    between atoms: C_1  and  C_2
REMARK    2  A    between atoms: C_2  and  O_3
REMARK    3  A    between atoms: O_3  and  C_4
REMARK    4  A    between atoms: C_4  and  C_6
REMARK    5  A    between atoms: C_7  and  C_8
REMARK    6  A    between atoms: C_10  and  C_11
REMARK    7  A    between atoms: C_12  and  C_13
REMARK    8  A    between atoms: C_13  and  O_15
REMARK    9  A    between atoms: O_15  and  C_16
REMARK   10  A    between atoms: C_16  and  C_17
REMARK   11  A    between atoms: C_18  and  C_19
REMARK   12  A    between atoms: C_23  and  N_24
REMARK                            x       y       z     vdW  Elec       q    Type
REMARK                         _______ _______ _______ _____ _____    ______ ____
ROOT
ATOM      1  C   UNL     1       3.806   4.101  18.226  0.00  0.00    +0.000 C 
ATOM      2  C   UNL     1       4.581   3.620  19.228  0.00  0.00    +0.000 C 
ATOM      3  C   UNL     1       4.290   2.431  20.108  0.00  0.00    +0.000 C 
ATOM      4  N   UNL     1       5.793   4.239  19.499  0.00  0.00    +0.000 N 
ATOM      5  C   UNL     1       6.407   5.154  18.662  0.00  0.00    +0.000 C 
ATOM      6  C   UNL     1       7.845   5.487  18.995  0.00  0.00    +0.000 C 
ATOM      7  C   UNL     1       5.715   5.702  17.638  0.00  0.00    +0.000 C 
ATOM      8  C   UNL     1       4.230   5.368  17.469  0.00  0.00    +0.000 C 
ATOM      9  H   UNL     1       6.365   3.822  20.230  0.00  0.00    +0.000 HD
ENDROOT
BRANCH   8  10
ATOM     10  C   UNL     1       3.338   6.533  17.934  0.00  0.00    +0.000 A 
ATOM     11  C   UNL     1       3.123   7.648  17.100  0.00  0.00    +0.000 A 
ATOM     12  C   UNL     1       2.385   8.748  17.537  0.00  0.00    +0.000 A 
ATOM     13  C   UNL     1       1.847   8.758  18.820  0.00  0.00    +0.000 A 
ATOM     14  C   UNL     1       2.043   7.651  19.657  0.00  0.00    +0.000 A 
ATOM     15  C   UNL     1       2.785   6.541  19.223  0.00  0.00    +0.000 A 
BRANCH  14  16
ATOM     16  N   UNL     1       1.474   7.659  21.007  0.00  0.00    +0.000 N 
ATOM     17  O   UNL     1       0.991   6.600  21.437  0.00  0.00    +0.000 OA
ATOM     18  O   UNL     1       1.514   8.720  21.645  0.00  0.00    +0.000 OA
ENDBRANCH  14  16
ENDBRANCH   8  10
BRANCH   1  19
ATOM     19  C   UNL     1       2.533   3.450  17.807  0.00  0.00    +0.000 C 
ATOM     20  O   UNL     1       2.388   2.730  16.834  0.00  0.00    +0.000 OA
BRANCH  19  21
ATOM     21  O   UNL     1       1.533   3.882  18.617  0.00  0.00    +0.000 OA
BRANCH  21  23
ATOM     22  C   UNL     1       0.967   3.117  20.789  0.00  0.00    +0.000 C 
ATOM     23  C   UNL     1       0.800   2.858  19.302  0.00  0.00    +0.000 C 
ENDBRANCH  21  23
ENDBRANCH  19  21
ENDBRANCH   1  19
BRANCH   7  24
ATOM     24  C   UNL     1       6.355   6.652  16.687  0.00  0.00    +0.000 C 
ATOM     25  O   UNL     1       6.858   7.721  16.999  0.00  0.00    +0.000 OA
BRANCH  24  26
ATOM     26  O   UNL     1       6.242   6.203  15.411  0.00  0.00    +0.000 OA
BRANCH  26  27
ATOM     27  C   UNL     1       7.002   5.022  15.120  0.00  0.00    +0.000 C 
ATOM     28  C   UNL     1       6.100   4.077  14.344  0.00  0.00    +0.000 C 
ENDBRANCH  26  27
ENDBRANCH  24  26
ENDBRANCH   7  24
TORSDOF 8
ENDMDL
MODEL 5
REMARK VINA RESULT:      -7.4      2.113      6.026
REMARK  Name = 
REMARK  12 active torsions:
REMARK  status: ('A' for Active; 'I' for Inactive)
REMARK    1  A    between atoms: C_1  and  C_2
REMARK    2  A    between atoms: C_2  and  O_3
REMARK    3  A    between atoms: O_3  and  C_4
REMARK    4  A    between atoms: C_4  and  C_6
REMARK    5  A    between atoms: C_7  and  C_8
REMARK    6  A    between atoms: C_10  and  C_11
REMARK    7  A    between atoms: C_12  and  C_13
REMARK    8  A    between atoms: C_13  and  O_15
REMARK    9  A    between atoms: O_15  and  C_16
REMARK   10  A    between atoms: C_16  and  C_17
REMARK   11  A    between atoms: C_18  and  C_19
REMARK   12  A    between atoms: C_23  and  N_24
REMARK                            x       y       z     vdW  Elec       q    Type
REMARK                         _______ _______ _______ _____ _____    ______ ____
ROOT
ATOM      1  C   UNL     1       3.586   3.991  18.299  0.00  0.00    +0.000 C 
ATOM      2  C   UNL     1       4.471   3.325  19.080  0.00  0.00    +0.000 C 
ATOM      3  C   UNL     1       4.264   1.988  19.746  0.00  0.00    +0.000 C 
ATOM      4  N   UNL     1       5.723   3.879  19.305  0.00  0.00    +0.000 N 
ATOM      5  C   UNL     1       6.248   4.938  18.585  0.00  0.00    +0.000 C 
ATOM      6  C   UNL     1       7.725   5.200  18.786  0.00  0.00    +0.000 C 
ATOM      7  C   UNL     1       5.446   5.675  17.785  0.00  0.00    +0.000 C 
ATOM      8  C   UNL     1       3.942   5.381  17.750  0.00  0.00    +0.000 C 
ATOM      9  H   UNL     1       6.373   3.328  19.861  0.00  0.00    +0.000 HD
ENDROOT
BRANCH   8  10
ATOM     10  C   UNL     1       3.149   6.434  18.543  0.00  0.00    +0.000 A 
ATOM     11  C   UNL     1       2.823   6.218  19.896  0.00  0.00    +0.000 A 
ATOM     12  C   UNL     1       2.035   7.124  20.606  0.00  0.00    +0.000 A 
ATOM     13  C   UNL     1       1.555   8.268  19.977  0.00  0.00    +0.000 A 
ATOM     14  C   UNL     1       1.880   8.503  18.634  0.00  0.00    +0.000 A 
ATOM     15  C   UNL     1       2.672   7.595  17.914  0.00  0.00    +0.000 A 
BRANCH  14  16
ATOM     16  N   UNL     1       1.376   9.709  17.971  0.00  0.00    +0.000 N 
ATOM     17  O   UNL     1       0.148   9.830  17.850  0.00  0.00    +0.000 OA
ATOM     18  O   UNL     1       2.205  10.539  17.574  0.00  0.00    +0.000 OA
ENDBRANCH  14  16
ENDBRANCH   8  10
BRANCH   1  19
ATOM     19  C   UNL     1       2.254   3.435  17.933  0.00  0.00    +0.000 C 
ATOM     20  O   UNL     1       2.003   2.791  16.928  0.00  0.00    +0.000 OA
BRANCH  19  21
ATOM     21  O   UNL     1       1.337   3.859  18.840  0.00  0.00    +0.000 OA
BRANCH  21  23
ATOM     22  C   UNL     1       1.176   3.050  21.064  0.00  0.00    +0.000 C 
ATOM     23  C   UNL     1       0.723   2.834  19.631  0.00  0.00    +0.000 C 
ENDBRANCH  21  23
ENDBRANCH  19  21
ENDBRANCH   1  19
BRANCH   7  24
ATOM     24  C   UNL     1       5.983   6.791  16.959  0.00  0.00    +0.000 C 
ATOM     25  O   UNL     1       5.996   6.812  15.737  0.00  0.00    +0.000 OA
BRANCH  24  26
ATOM     26  O   UNL     1       6.524   7.755  17.746  0.00  0.00    +0.000 OA
BRANCH  26  27
ATOM     27  C   UNL     1       7.762   8.297  17.268  0.00  0.00    +0.000 C 
ATOM     28  C   UNL     1       8.401   9.062  18.414  0.00  0.00    +0.000 C 
ENDBRANCH  26  27
ENDBRANCH  24  26
ENDBRANCH   7  24
TORSDOF 8
ENDMDL
MODEL 6
REMARK VINA RESULT:      -6.8      1.908      2.290
REMARK  Name = 
REMARK  12 active torsions:
REMARK  status: ('A' for Active; 'I' for Inactive)
REMARK    1  A    between atoms: C_1  and  C_2
REMARK    2  A    between atoms: C_2  and  O_3
REMARK    3  A    between atoms: O_3  and  C_4
REMARK    4  A    between atoms: C_4  and  C_6
REMARK    5  A    between atoms: C_7  and  C_8
REMARK    6  A    between atoms: C_10  and  C_11
REMARK    7  A    between atoms: C_12  and  C_13
REMARK    8  A    between atoms: C_13  and  O_15
REMARK    9  A    between atoms: O_15  and  C_16
REMARK   10  A    between atoms: C_16  and  C_17
REMARK   11  A    between atoms: C_18  and  C_19
REMARK   12  A    between atoms: C_23  and  N_24
REMARK                            x       y       z     vdW  Elec       q    Type
REMARK                         _______ _______ _______ _____ _____    ______ ____
ROOT
ATOM      1  C   UNL     1       1.998   7.629  18.972  0.00  0.00    +0.000 C 
ATOM      2  C   UNL     1       1.870   7.621  20.321  0.00  0.00    +0.000 C 
ATOM      3  C   UNL     1       1.575   8.802  21.210  0.00  0.00    +0.000 C 
ATOM      4  N   UNL     1       1.992   6.418  21.003  0.00  0.00    +0.000 N 
ATOM      5  C   UNL     1       1.976   5.173  20.399  0.00  0.00    +0.000 C 
ATOM      6  C   UNL     1       1.829   3.992  21.333  0.00  0.00    +0.000 C 
ATOM      7  C   UNL     1       2.110   5.072  19.058  0.00  0.00    +0.000 C 
ATOM      8  C   UNL     1       2.364   6.335  18.229  0.00  0.00    +0.000 C 
ATOM      9  H   UNL     1       1.846   6.448  22.009  0.00  0.00    +0.000 HD
ENDROOT
BRANCH   8  10
ATOM     10  C   UNL     1       3.835   6.428  17.787  0.00  0.00    +0.000 A 
ATOM     11  C   UNL     1       4.165   6.706  16.446  0.00  0.00    +0.000 A 
ATOM     12  C   UNL     1       5.491   6.713  16.013  0.00  0.00    +0.000 A 
ATOM     13  C   UNL     1       6.517   6.442  16.911  0.00  0.00    +0.000 A 
ATOM     14  C   UNL     1       6.205   6.175  18.252  0.00  0.00    +0.000 A 
ATOM     15  C   UNL     1       4.873   6.166  18.695  0.00  0.00    +0.000 A 
BRANCH  14  16
ATOM     16  N   UNL     1       7.286   5.891  19.200  0.00  0.00    +0.000 N 
ATOM     17  O   UNL     1       7.075   5.039  20.077  0.00  0.00    +0.000 OA
ATOM     18  O   UNL     1       8.349   6.513  19.069  0.00  0.00    +0.000 OA
ENDBRANCH  14  16
ENDBRANCH   8  10
BRANCH   1  19
ATOM     19  C   UNL     1       1.797   8.853  18.149  0.00  0.00    +0.000 C 
ATOM     20  O   UNL     1       2.631   9.720  17.947  0.00  0.00    +0.000 OA
BRANCH  19  21
ATOM     21  O   UNL     1       0.499   8.909  17.754  0.00  0.00    +0.000 OA
BRANCH  21  23
ATOM     22  C   UNL     1      -0.942  10.125  19.192  0.00  0.00    +0.000 C 
ATOM     23  C   UNL     1      -0.143  10.182  17.902  0.00  0.00    +0.000 C 
ENDBRANCH  21  23
ENDBRANCH  19  21
ENDBRANCH   1  19
BRANCH   7  24
ATOM     24  C   UNL     1       2.050   3.754  18.367  0.00  0.00    +0.000 C 
ATOM     25  O   UNL     1       1.135   3.384  17.648  0.00  0.00    +0.000 OA
BRANCH  24  26
ATOM     26  O   UNL     1       3.119   2.988  18.700  0.00  0.00    +0.000 OA
BRANCH  26  27
ATOM     27  C   UNL     1       3.654   2.202  17.626  0.00  0.00    +0.000 C 
ATOM     28  C   UNL     1       4.481   3.127  16.749  0.00  0.00    +0.000 C 
ENDBRANCH  26  27
ENDBRANCH  24  26
ENDBRANCH   7  24
TORSDOF 8
ENDMDL
MODEL 7
REMARK VINA RESULT:      -6.8      2.181      6.162
REMARK  Name = 
REMARK  12 active torsions:
REMARK  status: ('A' for Active; 'I' for Inactive)
REMARK    1  A    between atoms: C_1  and  C_2
REMARK    2  A    between atoms: C_2  and  O_3
REMARK    3  A    between atoms: O_3  and  C_4
REMARK    4  A    between atoms: C_4  and  C_6
REMARK    5  A    between atoms: C_7  and  C_8
REMARK    6  A    between atoms: C_10  and  C_11
REMARK    7  A    between atoms: C_12  and  C_13
REMARK    8  A    between atoms: C_13  and  O_15
REMARK    9  A    between atoms: O_15  and  C_16
REMARK   10  A    between atoms: C_16  and  C_17
REMARK   11  A    between atoms: C_18  and  C_19
REMARK   12  A    between atoms: C_23  and  N_24
REMARK                            x       y       z     vdW  Elec       q    Type
REMARK                         _______ _______ _______ _____ _____    ______ ____
ROOT
ATOM      1  C   UNL     1       3.885   4.058  18.193  0.00  0.00    +0.000 C 
ATOM      2  C   UNL     1       4.542   3.534  19.256  0.00  0.00    +0.000 C 
ATOM      3  C   UNL     1       4.135   2.332  20.070  0.00  0.00    +0.000 C 
ATOM      4  N   UNL     1       5.734   4.114  19.666  0.00  0.00    +0.000 N 
ATOM      5  C   UNL     1       6.452   5.033  18.919  0.00  0.00    +0.000 C 
ATOM      6  C   UNL     1       7.856   5.321  19.406  0.00  0.00    +0.000 C 
ATOM      7  C   UNL     1       5.882   5.623  17.846  0.00  0.00    +0.000 C 
ATOM      8  C   UNL     1       4.414   5.332  17.517  0.00  0.00    +0.000 C 
ATOM      9  H   UNL     1       6.219   3.666  20.440  0.00  0.00    +0.000 HD
ENDROOT
BRANCH   8  10
ATOM     10  C   UNL     1       3.507   6.508  17.920  0.00  0.00    +0.000 A 
ATOM     11  C   UNL     1       3.340   7.611  17.060  0.00  0.00    +0.000 A 
ATOM     12  C   UNL     1       2.588   8.721  17.443  0.00  0.00    +0.000 A 
ATOM     13  C   UNL     1       1.985   8.753  18.696  0.00  0.00    +0.000 A 
ATOM     14  C   UNL     1       2.133   7.658  19.559  0.00  0.00    +0.000 A 
ATOM     15  C   UNL     1       2.889   6.538  19.179  0.00  0.00    +0.000 A 
BRANCH  14  16
ATOM     16  N   UNL     1       1.497   7.689  20.879  0.00  0.00    +0.000 N 
ATOM     17  O   UNL     1       1.077   6.618  21.342  0.00  0.00    +0.000 OA
ATOM     18  O   UNL     1       1.421   8.781  21.458  0.00  0.00    +0.000 OA
ENDBRANCH  14  16
ENDBRANCH   8  10
BRANCH   1  19
ATOM     19  C   UNL     1       2.647   3.451  17.630  0.00  0.00    +0.000 C 
ATOM     20  O   UNL     1       2.580   2.789  16.609  0.00  0.00    +0.000 OA
BRANCH  19  21
ATOM     21  O   UNL     1       1.585   3.851  18.375  0.00  0.00    +0.000 OA
BRANCH  21  23
ATOM     22  C   UNL     1       0.726   3.203  20.488  0.00  0.00    +0.000 C 
ATOM     23  C   UNL     1       0.853   2.806  19.028  0.00  0.00    +0.000 C 
ENDBRANCH  21  23
ENDBRANCH  19  21
ENDBRANCH   1  19
BRANCH   7  24
ATOM     24  C   UNL     1       6.637   6.579  16.990  0.00  0.00    +0.000 C 
ATOM     25  O   UNL     1       7.148   6.301  15.915  0.00  0.00    +0.000 OA
BRANCH  24  26
ATOM     26  O   UNL     1       6.745   7.787  17.598  0.00  0.00    +0.000 OA
BRANCH  26  27
ATOM     27  C   UNL     1       8.080   8.306  17.672  0.00  0.00    +0.000 C 
ATOM     28  C   UNL     1       7.978   9.792  17.974  0.00  0.00    +0.000 C 
ENDBRANCH  26  27
ENDBRANCH  24  26
ENDBRANCH   7  24
TORSDOF 8
ENDMDL
MODEL 8
REMARK VINA RESULT:      -6.7      1.776      2.096
REMARK  Name = 
REMARK  12 active torsions:
REMARK  status: ('A' for Active; 'I' for Inactive)
REMARK    1  A    between atoms: C_1  and  C_2
REMARK    2  A    between atoms: C_2  and  O_3
REMARK    3  A    between atoms: O_3  and  C_4
REMARK    4  A    between atoms: C_4  and  C_6
REMARK    5  A    between atoms: C_7  and  C_8
REMARK    6  A    between atoms: C_10  and  C_11
REMARK    7  A    between atoms: C_12  and  C_13
REMARK    8  A    between atoms: C_13  and  O_15
REMARK    9  A    between atoms: O_15  and  C_16
REMARK   10  A    between atoms: C_16  and  C_17
REMARK   11  A    between atoms: C_18  and  C_19
REMARK   12  A    between atoms: C_23  and  N_24
REMARK                            x       y       z     vdW  Elec       q    Type
REMARK                         _______ _______ _______ _____ _____    ______ ____
ROOT
ATOM      1  C   UNL     1       1.938   7.441  18.944  0.00  0.00    +0.000 C 
ATOM      2  C   UNL     1       1.807   7.432  20.293  0.00  0.00    +0.000 C 
ATOM      3  C   UNL     1       1.489   8.608  21.180  0.00  0.00    +0.000 C 
ATOM      4  N   UNL     1       1.951   6.233  20.977  0.00  0.00    +0.000 N 
ATOM      5  C   UNL     1       1.960   4.987  20.374  0.00  0.00    +0.000 C 
ATOM      6  C   UNL     1       1.833   3.804  21.309  0.00  0.00    +0.000 C 
ATOM      7  C   UNL     1       2.098   4.887  19.033  0.00  0.00    +0.000 C 
ATOM      8  C   UNL     1       2.329   6.154  18.203  0.00  0.00    +0.000 C 
ATOM      9  H   UNL     1       1.803   6.260  21.983  0.00  0.00    +0.000 HD
ENDROOT
BRANCH   8  10
ATOM     10  C   UNL     1       3.799   6.274  17.764  0.00  0.00    +0.000 A 
ATOM     11  C   UNL     1       4.132   6.862  16.527  0.00  0.00    +0.000 A 
ATOM     12  C   UNL     1       5.451   6.905  16.078  0.00  0.00    +0.000 A 
ATOM     13  C   UNL     1       6.468   6.360  16.855  0.00  0.00    +0.000 A 
ATOM     14  C   UNL     1       6.154   5.782  18.093  0.00  0.00    +0.000 A 
ATOM     15  C   UNL     1       4.828   5.735  18.551  0.00  0.00    +0.000 A 
BRANCH  14  16
ATOM     16  N   UNL     1       7.224   5.210  18.913  0.00  0.00    +0.000 N 
ATOM     17  O   UNL     1       7.254   5.512  20.116  0.00  0.00    +0.000 OA
ATOM     18  O   UNL     1       8.034   4.452  18.361  0.00  0.00    +0.000 OA
ENDBRANCH  14  16
ENDBRANCH   8  10
BRANCH   1  19
ATOM     19  C   UNL     1       1.715   8.661  18.120  0.00  0.00    +0.000 C 
ATOM     20  O   UNL     1       0.875   8.787  17.245  0.00  0.00    +0.000 OA
BRANCH  19  21
ATOM     21  O   UNL     1       2.676   9.573  18.420  0.00  0.00    +0.000 OA
BRANCH  21  23
ATOM     22  C   UNL     1       1.568  11.595  18.976  0.00  0.00    +0.000 C 
ATOM     23  C   UNL     1       2.441  10.905  17.943  0.00  0.00    +0.000 C 
ENDBRANCH  21  23
ENDBRANCH  19  21
ENDBRANCH   1  19
BRANCH   7  24
ATOM     24  C   UNL     1       2.063   3.568  18.343  0.00  0.00    +0.000 C 
ATOM     25  O   UNL     1       1.045   2.964  18.041  0.00  0.00    +0.000 OA
BRANCH  24  26
ATOM     26  O   UNL     1       3.319   3.090  18.158  0.00  0.00    +0.000 OA
BRANCH  26  27
ATOM     27  C   UNL     1       3.574   1.817  18.767  0.00  0.00    +0.000 C 
ATOM     28  C   UNL     1       4.534   2.046  19.922  0.00  0.00    +0.000 C 
ENDBRANCH  26  27
ENDBRANCH  24  26
ENDBRANCH   7  24
TORSDOF 8
ENDMDL
MODEL 9
REMARK VINA RESULT:      -6.6      2.275      5.689
REMARK  Name = 
REMARK  12 active torsions:
REMARK  status: ('A' for Active; 'I' for Inactive)
REMARK    1  A    between atoms: C_1  and  C_2
REMARK    2  A    between atoms: C_2  and  O_3
REMARK    3  A    between atoms: O_3  and  C_4
REMARK    4  A    between atoms: C_4  and  C_6
REMARK    5  A    between atoms: C_7  and  C_8
REMARK    6  A    between atoms: C_10  and  C_11
REMARK    7  A    between atoms: C_12  and  C_13
REMARK    8  A    between atoms: C_13  and  O_15
REMARK    9  A    between atoms: O_15  and  C_16
REMARK   10  A    between atoms: C_16  and  C_17
REMARK   11  A    between atoms: C_18  and  C_19
REMARK   12  A    between atoms: C_23  and  N_24
REMARK                            x       y       z     vdW  Elec       q    Type
REMARK                         _______ _______ _______ _____ _____    ______ ____
ROOT
ATOM      1  C   UNL     1       4.389   5.466  18.015  0.00  0.00    +0.000 C 
ATOM      2  C   UNL     1       4.145   4.610  16.992  0.00  0.00    +0.000 C 
ATOM      3  C   UNL     1       4.985   4.412  15.757  0.00  0.00    +0.000 C 
ATOM      4  N   UNL     1       3.027   3.790  17.051  0.00  0.00    +0.000 N 
ATOM      5  C   UNL     1       2.271   3.582  18.192  0.00  0.00    +0.000 C 
ATOM      6  C   UNL     1       1.281   2.439  18.123  0.00  0.00    +0.000 C 
ATOM      7  C   UNL     1       2.430   4.389  19.264  0.00  0.00    +0.000 C 
ATOM      8  C   UNL     1       3.386   5.582  19.173  0.00  0.00    +0.000 C 
ATOM      9  H   UNL     1       2.902   3.132  16.285  0.00  0.00    +0.000 HD
ENDROOT
BRANCH   8  10
ATOM     10  C   UNL     1       2.616   6.906  19.017  0.00  0.00    +0.000 A 
ATOM     11  C   UNL     1       2.538   7.546  17.765  0.00  0.00    +0.000 A 
ATOM     12  C   UNL     1       1.914   8.786  17.623  0.00  0.00    +0.000 A 
ATOM     13  C   UNL     1       1.354   9.413  18.731  0.00  0.00    +0.000 A 
ATOM     14  C   UNL     1       1.414   8.782  19.982  0.00  0.00    +0.000 A 
ATOM     15  C   UNL     1       2.041   7.535  20.132  0.00  0.00    +0.000 A 
BRANCH  14  16
ATOM     16  N   UNL     1       0.823   9.440  21.150  0.00  0.00    +0.000 N 
ATOM     17  O   UNL     1      -0.097  10.249  20.953  0.00  0.00    +0.000 OA
ATOM     18  O   UNL     1       1.271   9.148  22.267  0.00  0.00    +0.000 OA
ENDBRANCH  14  16
ENDBRANCH   8  10
BRANCH   1  19
ATOM     19  C   UNL     1       5.607   6.319  18.080  0.00  0.00    +0.000 C 
ATOM     20  O   UNL     1       5.901   7.202  17.292  0.00  0.00    +0.000 OA
BRANCH  19  21
ATOM     21  O   UNL     1       6.397   5.879  19.092  0.00  0.00    +0.000 OA
BRANCH  21  23
ATOM     22  C   UNL     1       7.904   4.520  17.865  0.00  0.00    +0.000 C 
ATOM     23  C   UNL     1       7.788   5.729  18.777  0.00  0.00    +0.000 C 
ENDBRANCH  21  23
ENDBRANCH  19  21
ENDBRANCH   1  19
BRANCH   7  24
ATOM     24  C   UNL     1       1.671   4.167  20.525  0.00  0.00    +0.000 C 
ATOM     25  O   UNL     1       0.476   4.376  20.668  0.00  0.00    +0.000 OA
BRANCH  24  26
ATOM     26  O   UNL     1       2.501   3.765  21.521  0.00  0.00    +0.000 OA
BRANCH  26  27
ATOM     27  C   UNL     1       2.749   2.353  21.564  0.00  0.00    +0.000 C 
ATOM     28  C   UNL     1       4.105   2.105  20.927  0.00  0.00    +0.000 C 
ENDBRANCH  26  27
ENDBRANCH  24  26
ENDBRANCH   7  24
TORSDOF 8
ENDMDL
