MODEL 1
REMARK VINA RESULT:      -5.9      0.000      0.000
REMARK  Name = 
REMARK  5 active torsions:
REMARK  status: ('A' for Active; 'I' for Inactive)
REMARK    1  A    between atoms: C_1  and  C_2
REMARK    2  A    between atoms: C_2  and  C_3
REMARK    3  A    between atoms: C_7  and  C_8
REMARK    4  A    between atoms: C_8  and  N_9
REMARK    5  A    between atoms: C_11  and  O_12
REMARK                            x       y       z     vdW  Elec       q    Type
REMARK                         _______ _______ _______ _____ _____    ______ ____
ROOT
ATOM      1  C   UNL     1       1.518   3.154  19.671  0.00  0.00    +0.000 C 
ATOM      2  C   UNL     1       2.748   3.187  18.738  0.00  0.00    +0.000 C 
ATOM      3  C   UNL     1       2.832   1.789  18.061  0.00  0.00    +0.000 C 
ATOM      4  C   UNL     1       2.703   4.284  17.627  0.00  0.00    +0.000 C 
ATOM      5  C   UNL     1       2.362   5.670  18.196  0.00  0.00    +0.000 C 
ATOM      6  C   UNL     1       3.594   6.016  19.028  0.00  0.00    +0.000 C 
ATOM      7  C   UNL     1       4.552   4.833  18.740  0.00  0.00    +0.000 C 
ATOM      8  C   UNL     1       4.191   4.494  17.296  0.00  0.00    +0.000 C 
ATOM      9  C   UNL     1       4.040   3.580  19.520  0.00  0.00    +0.000 C 
ENDROOT
BRANCH   9  10
ATOM     10  O   UNL     1       4.975   2.522  19.581  0.00  0.00    +0.000 OA
ATOM     11  H   UNL     1       4.893   2.064  20.455  0.00  0.00    +0.000 HD
ENDBRANCH   9  10
BRANCH   7  12
ATOM     12  C   UNL     1       6.026   5.191  19.023  0.00  0.00    +0.000 C 
BRANCH  12  13
ATOM     13  N   UNL     1       6.936   4.311  18.288  0.00  0.00    +0.000 NA
ATOM     14  H   UNL     1       6.380   3.653  17.694  0.00  0.00    +0.000 HD
ATOM     15  H   UNL     1       7.467   3.730  18.980  0.00  0.00    +0.000 HD
ENDBRANCH  12  13
ENDBRANCH   7  12
TORSDOF 3
ENDMDL
MODEL 2
REMARK VINA RESULT:      -5.8      1.628      2.352
REMARK  Name = 
REMARK  5 active torsions:
REMARK  status: ('A' for Active; 'I' for Inactive)
REMARK    1  A    between atoms: C_1  and  C_2
REMARK    2  A    between atoms: C_2  and  C_3
REMARK    3  A    between atoms: C_7  and  C_8
REMARK    4  A    between atoms: C_8  and  N_9
REMARK    5  A    between atoms: C_11  and  O_12
REMARK                            x       y       z     vdW  Elec       q    Type
REMARK                         _______ _______ _______ _____ _____    ______ ____
ROOT
ATOM      1  C   UNL     1       2.835   5.223  17.939  0.00  0.00    +0.000 C 
ATOM      2  C   UNL     1       4.128   4.450  17.604  0.00  0.00    +0.000 C 
ATOM      3  C   UNL     1       3.728   2.954  17.451  0.00  0.00    +0.000 C 
ATOM      4  C   UNL     1       4.855   4.913  16.301  0.00  0.00    +0.000 C 
ATOM      5  C   UNL     1       5.055   6.436  16.261  0.00  0.00    +0.000 C 
ATOM      6  C   UNL     1       6.070   6.681  17.376  0.00  0.00    +0.000 C 
ATOM      7  C   UNL     1       6.424   5.248  17.846  0.00  0.00    +0.000 C 
ATOM      8  C   UNL     1       6.306   4.463  16.542  0.00  0.00    +0.000 C 
ATOM      9  C   UNL     1       5.227   4.693  18.685  0.00  0.00    +0.000 C 
ENDROOT
BRANCH   9  10
ATOM     10  O   UNL     1       5.535   3.523  19.414  0.00  0.00    +0.000 OA
ATOM     11  H   UNL     1       4.693   3.092  19.709  0.00  0.00    +0.000 HD
ENDBRANCH   9  10
BRANCH   7  12
ATOM     12  C   UNL     1       7.783   5.189  18.573  0.00  0.00    +0.000 C 
BRANCH  12  13
ATOM     13  N   UNL     1       7.640   5.519  19.992  0.00  0.00    +0.000 NA
ATOM     14  H   UNL     1       7.537   4.637  20.546  0.00  0.00    +0.000 HD
ATOM     15  H   UNL     1       6.758   6.069  20.118  0.00  0.00    +0.000 HD
ENDBRANCH  12  13
ENDBRANCH   7  12
TORSDOF 3
ENDMDL
MODEL 3
REMARK VINA RESULT:      -5.8      0.993      1.097
REMARK  Name = 
REMARK  5 active torsions:
REMARK  status: ('A' for Active; 'I' for Inactive)
REMARK    1  A    between atoms: C_1  and  C_2
REMARK    2  A    between atoms: C_2  and  C_3
REMARK    3  A    between atoms: C_7  and  C_8
REMARK    4  A    between atoms: C_8  and  N_9
REMARK    5  A    between atoms: C_11  and  O_12
REMARK                            x       y       z     vdW  Elec       q    Type
REMARK                         _______ _______ _______ _____ _____    ______ ____
ROOT
ATOM      1  C   UNL     1       2.179   4.330  20.798  0.00  0.00    +0.000 C 
ATOM      2  C   UNL     1       2.668   3.630  19.512  0.00  0.00    +0.000 C 
ATOM      3  C   UNL     1       2.167   2.159  19.585  0.00  0.00    +0.000 C 
ATOM      4  C   UNL     1       2.162   4.270  18.180  0.00  0.00    +0.000 C 
ATOM      5  C   UNL     1       2.391   5.789  18.144  0.00  0.00    +0.000 C 
ATOM      6  C   UNL     1       3.912   5.908  18.075  0.00  0.00    +0.000 C 
ATOM      7  C   UNL     1       4.372   4.433  17.957  0.00  0.00    +0.000 C 
ATOM      8  C   UNL     1       3.223   3.820  17.161  0.00  0.00    +0.000 C 
ATOM      9  C   UNL     1       4.216   3.754  19.355  0.00  0.00    +0.000 C 
ENDROOT
BRANCH   9  10
ATOM     10  O   UNL     1       4.870   2.505  19.460  0.00  0.00    +0.000 OA
ATOM     11  H   UNL     1       5.375   2.472  20.311  0.00  0.00    +0.000 HD
ENDBRANCH   9  10
BRANCH   7  12
ATOM     12  C   UNL     1       5.784   4.307  17.349  0.00  0.00    +0.000 C 
BRANCH  12  13
ATOM     13  N   UNL     1       6.813   4.325  18.390  0.00  0.00    +0.000 NA
ATOM     14  H   UNL     1       7.758   4.259  17.948  0.00  0.00    +0.000 HD
ATOM     15  H   UNL     1       6.692   3.476  18.991  0.00  0.00    +0.000 HD
ENDBRANCH  12  13
ENDBRANCH   7  12
TORSDOF 3
ENDMDL
MODEL 4
REMARK VINA RESULT:      -5.8      2.310      3.793
REMARK  Name = 
REMARK  5 active torsions:
REMARK  status: ('A' for Active; 'I' for Inactive)
REMARK    1  A    between atoms: C_1  and  C_2
REMARK    2  A    between atoms: C_2  and  C_3
REMARK    3  A    between atoms: C_7  and  C_8
REMARK    4  A    between atoms: C_8  and  N_9
REMARK    5  A    between atoms: C_11  and  O_12
REMARK                            x       y       z     vdW  Elec       q    Type
REMARK                         _______ _______ _______ _____ _____    ______ ____
ROOT
ATOM      1  C   UNL     1       5.012   4.295  17.880  0.00  0.00    +0.000 C 
ATOM      2  C   UNL     1       3.551   4.635  18.244  0.00  0.00    +0.000 C 
ATOM      3  C   UNL     1       3.337   6.133  17.884  0.00  0.00    +0.000 C 
ATOM      4  C   UNL     1       2.472   3.779  17.505  0.00  0.00    +0.000 C 
ATOM      5  C   UNL     1       2.765   2.274  17.598  0.00  0.00    +0.000 C 
ATOM      6  C   UNL     1       2.550   1.969  19.078  0.00  0.00    +0.000 C 
ATOM      7  C   UNL     1       2.040   3.320  19.641  0.00  0.00    +0.000 C 
ATOM      8  C   UNL     1       1.261   3.870  18.449  0.00  0.00    +0.000 C 
ATOM      9  C   UNL     1       3.249   4.304  19.739  0.00  0.00    +0.000 C 
ENDROOT
BRANCH   9  10
ATOM     10  O   UNL     1       2.984   5.461  20.504  0.00  0.00    +0.000 OA
ATOM     11  H   UNL     1       2.213   5.288  21.101  0.00  0.00    +0.000 HD
ENDBRANCH   9  10
BRANCH   7  12
ATOM     12  C   UNL     1       1.260   3.147  20.961  0.00  0.00    +0.000 C 
BRANCH  12  13
ATOM     13  N   UNL     1       2.169   3.036  22.103  0.00  0.00    +0.000 NA
ATOM     14  H   UNL     1       2.394   3.992  22.463  0.00  0.00    +0.000 HD
ATOM     15  H   UNL     1       3.067   2.610  21.773  0.00  0.00    +0.000 HD
ENDBRANCH  12  13
ENDBRANCH   7  12
TORSDOF 3
ENDMDL
MODEL 5
REMARK VINA RESULT:      -5.8      1.985      3.332
REMARK  Name = 
REMARK  5 active torsions:
REMARK  status: ('A' for Active; 'I' for Inactive)
REMARK    1  A    between atoms: C_1  and  C_2
REMARK    2  A    between atoms: C_2  and  C_3
REMARK    3  A    between atoms: C_7  and  C_8
REMARK    4  A    between atoms: C_8  and  N_9
REMARK    5  A    between atoms: C_11  and  O_12
REMARK                            x       y       z     vdW  Elec       q    Type
REMARK                         _______ _______ _______ _____ _____    ______ ____
ROOT
ATOM      1  C   UNL     1       4.578   3.975  16.701  0.00  0.00    +0.000 C 
ATOM      2  C   UNL     1       4.350   4.202  18.211  0.00  0.00    +0.000 C 
ATOM      3  C   UNL     1       5.687   4.751  18.788  0.00  0.00    +0.000 C 
ATOM      4  C   UNL     1       3.202   5.202  18.561  0.00  0.00    +0.000 C 
ATOM      5  C   UNL     1       1.900   4.871  17.815  0.00  0.00    +0.000 C 
ATOM      6  C   UNL     1       1.465   3.550  18.444  0.00  0.00    +0.000 C 
ATOM      7  C   UNL     1       2.512   3.338  19.567  0.00  0.00    +0.000 C 
ATOM      8  C   UNL     1       2.804   4.777  19.985  0.00  0.00    +0.000 C 
ATOM      9  C   UNL     1       3.859   2.897  18.911  0.00  0.00    +0.000 C 
ENDROOT
BRANCH   9  10
ATOM     10  O   UNL     1       4.804   2.390  19.831  0.00  0.00    +0.000 OA
ATOM     11  H   UNL     1       5.160   3.135  20.377  0.00  0.00    +0.000 HD
ENDBRANCH   9  10
BRANCH   7  12
ATOM     12  C   UNL     1       2.004   2.383  20.668  0.00  0.00    +0.000 C 
BRANCH  12  13
ATOM     13  N   UNL     1       2.576   2.725  21.971  0.00  0.00    +0.000 NA
ATOM     14  H   UNL     1       1.827   2.690  22.700  0.00  0.00    +0.000 HD
ATOM     15  H   UNL     1       2.925   3.712  21.932  0.00  0.00    +0.000 HD
ENDBRANCH  12  13
ENDBRANCH   7  12
TORSDOF 3
ENDMDL
MODEL 6
REMARK VINA RESULT:      -5.7      3.009      4.522
REMARK  Name = 
REMARK  5 active torsions:
REMARK  status: ('A' for Active; 'I' for Inactive)
REMARK    1  A    between atoms: C_1  and  C_2
REMARK    2  A    between atoms: C_2  and  C_3
REMARK    3  A    between atoms: C_7  and  C_8
REMARK    4  A    between atoms: C_8  and  N_9
REMARK    5  A    between atoms: C_11  and  O_12
REMARK                            x       y       z     vdW  Elec       q    Type
REMARK                         _______ _______ _______ _____ _____    ______ ____
ROOT
ATOM      1  C   UNL     1       7.677   7.575  17.614  0.00  0.00    +0.000 C 
ATOM      2  C   UNL     1       7.035   6.201  17.900  0.00  0.00    +0.000 C 
ATOM      3  C   UNL     1       7.625   5.704  19.251  0.00  0.00    +0.000 C 
ATOM      4  C   UNL     1       5.476   6.211  18.004  0.00  0.00    +0.000 C 
ATOM      5  C   UNL     1       4.822   6.927  16.812  0.00  0.00    +0.000 C 
ATOM      6  C   UNL     1       5.124   5.996  15.640  0.00  0.00    +0.000 C 
ATOM      7  C   UNL     1       5.816   4.790  16.323  0.00  0.00    +0.000 C 
ATOM      8  C   UNL     1       5.104   4.756  17.673  0.00  0.00    +0.000 C 
ATOM      9  C   UNL     1       7.268   5.211  16.717  0.00  0.00    +0.000 C 
ENDROOT
BRANCH   9  10
ATOM     10  O   UNL     1       8.100   4.127  17.077  0.00  0.00    +0.000 OA
ATOM     11  H   UNL     1       8.435   3.685  16.256  0.00  0.00    +0.000 HD
ENDBRANCH   9  10
BRANCH   7  12
ATOM     12  C   UNL     1       5.743   3.510  15.465  0.00  0.00    +0.000 C 
BRANCH  12  13
ATOM     13  N   UNL     1       6.466   3.675  14.203  0.00  0.00    +0.000 NA
ATOM     14  H   UNL     1       6.052   4.470  13.665  0.00  0.00    +0.000 HD
ATOM     15  H   UNL     1       6.334   2.810  13.629  0.00  0.00    +0.000 HD
ENDBRANCH  12  13
ENDBRANCH   7  12
TORSDOF 3
ENDMDL
MODEL 7
REMARK VINA RESULT:      -5.7      2.223      3.107
REMARK  Name = 
REMARK  5 active torsions:
REMARK  status: ('A' for Active; 'I' for Inactive)
REMARK    1  A    between atoms: C_1  and  C_2
REMARK    2  A    between atoms: C_2  and  C_3
REMARK    3  A    between atoms: C_7  and  C_8
REMARK    4  A    between atoms: C_8  and  N_9
REMARK    5  A    between atoms: C_11  and  O_12
REMARK                            x       y       z     vdW  Elec       q    Type
REMARK                         _______ _______ _______ _____ _____    ______ ____
ROOT
ATOM      1  C   UNL     1       3.686   1.491  18.494  0.00  0.00    +0.000 C 
ATOM      2  C   UNL     1       3.327   2.973  18.250  0.00  0.00    +0.000 C 
ATOM      3  C   UNL     1       4.285   3.487  17.137  0.00  0.00    +0.000 C 
ATOM      4  C   UNL     1       1.852   3.229  17.803  0.00  0.00    +0.000 C 
ATOM      5  C   UNL     1       0.840   2.524  18.719  0.00  0.00    +0.000 C 
ATOM      6  C   UNL     1       0.980   3.281  20.038  0.00  0.00    +0.000 C 
ATOM      7  C   UNL     1       1.975   4.415  19.684  0.00  0.00    +0.000 C 
ATOM      8  C   UNL     1       1.617   4.689  18.226  0.00  0.00    +0.000 C 
ATOM      9  C   UNL     1       3.407   3.799  19.571  0.00  0.00    +0.000 C 
ENDROOT
BRANCH   9  10
ATOM     10  O   UNL     1       4.442   4.760  19.545  0.00  0.00    +0.000 OA
ATOM     11  H   UNL     1       5.107   4.505  18.857  0.00  0.00    +0.000 HD
ENDBRANCH   9  10
BRANCH   7  12
ATOM     12  C   UNL     1       1.877   5.605  20.660  0.00  0.00    +0.000 C 
BRANCH  12  13
ATOM     13  N   UNL     1       2.429   6.824  20.067  0.00  0.00    +0.000 NA
ATOM     14  H   UNL     1       2.544   6.689  19.036  0.00  0.00    +0.000 HD
ATOM     15  H   UNL     1       3.383   6.987  20.467  0.00  0.00    +0.000 HD
ENDBRANCH  12  13
ENDBRANCH   7  12
TORSDOF 3
ENDMDL
MODEL 8
REMARK VINA RESULT:      -5.7      1.260      1.665
REMARK  Name = 
REMARK  5 active torsions:
REMARK  status: ('A' for Active; 'I' for Inactive)
REMARK    1  A    between atoms: C_1  and  C_2
REMARK    2  A    between atoms: C_2  and  C_3
REMARK    3  A    between atoms: C_7  and  C_8
REMARK    4  A    between atoms: C_8  and  N_9
REMARK    5  A    between atoms: C_11  and  O_12
REMARK                            x       y       z     vdW  Elec       q    Type
REMARK                         _______ _______ _______ _____ _____    ______ ____
ROOT
ATOM      1  C   UNL     1       1.535   2.892  21.139  0.00  0.00    +0.000 C 
ATOM      2  C   UNL     1       1.732   3.148  19.630  0.00  0.00    +0.000 C 
ATOM      3  C   UNL     1       0.760   2.190  18.883  0.00  0.00    +0.000 C 
ATOM      4  C   UNL     1       1.451   4.614  19.167  0.00  0.00    +0.000 C 
ATOM      5  C   UNL     1       2.184   5.646  20.038  0.00  0.00    +0.000 C 
ATOM      6  C   UNL     1       3.653   5.409  19.693  0.00  0.00    +0.000 C 
ATOM      7  C   UNL     1       3.579   4.344  18.570  0.00  0.00    +0.000 C 
ATOM      8  C   UNL     1       2.275   4.727  17.874  0.00  0.00    +0.000 C 
ATOM      9  C   UNL     1       3.226   2.966  19.216  0.00  0.00    +0.000 C 
ENDROOT
BRANCH   9  10
ATOM     10  O   UNL     1       3.416   1.864  18.353  0.00  0.00    +0.000 OA
ATOM     11  H   UNL     1       2.762   1.155  18.580  0.00  0.00    +0.000 HD
ENDBRANCH   9  10
BRANCH   7  12
ATOM     12  C   UNL     1       4.853   4.323  17.699  0.00  0.00    +0.000 C 
BRANCH  12  13
ATOM     13  N   UNL     1       6.001   3.815  18.451  0.00  0.00    +0.000 NA
ATOM     14  H   UNL     1       6.691   4.587  18.597  0.00  0.00    +0.000 HD
ATOM     15  H   UNL     1       6.476   3.080  17.876  0.00  0.00    +0.000 HD
ENDBRANCH  12  13
ENDBRANCH   7  12
TORSDOF 3
ENDMDL
MODEL 9
REMARK VINA RESULT:      -5.7      1.582      2.541
REMARK  Name = 
REMARK  5 active torsions:
REMARK  status: ('A' for Active; 'I' for Inactive)
REMARK    1  A    between atoms: C_1  and  C_2
REMARK    2  A    between atoms: C_2  and  C_3
REMARK    3  A    between atoms: C_7  and  C_8
REMARK    4  A    between atoms: C_8  and  N_9
REMARK    5  A    between atoms: C_11  and  O_12
REMARK                            x       y       z     vdW  Elec       q    Type
REMARK                         _______ _______ _______ _____ _____    ______ ____
ROOT
ATOM      1  C   UNL     1       0.697   3.180  19.460  0.00  0.00    +0.000 C 
ATOM      2  C   UNL     1       2.144   3.285  19.987  0.00  0.00    +0.000 C 
ATOM      3  C   UNL     1       2.063   3.199  21.538  0.00  0.00    +0.000 C 
ATOM      4  C   UNL     1       3.116   2.176  19.470  0.00  0.00    +0.000 C 
ATOM      5  C   UNL     1       3.057   2.022  17.942  0.00  0.00    +0.000 C 
ATOM      6  C   UNL     1       3.663   3.330  17.438  0.00  0.00    +0.000 C 
ATOM      7  C   UNL     1       4.110   4.033  18.745  0.00  0.00    +0.000 C 
ATOM      8  C   UNL     1       4.496   2.839  19.614  0.00  0.00    +0.000 C 
ATOM      9  C   UNL     1       2.840   4.583  19.470  0.00  0.00    +0.000 C 
ENDROOT
BRANCH   9  10
ATOM     10  O   UNL     1       3.126   5.493  20.512  0.00  0.00    +0.000 OA
ATOM     11  H   UNL     1       3.020   5.035  21.384  0.00  0.00    +0.000 HD
ENDBRANCH   9  10
BRANCH   7  12
ATOM     12  C   UNL     1       5.201   5.094  18.494  0.00  0.00    +0.000 C 
BRANCH  12  13
ATOM     13  N   UNL     1       6.168   5.129  19.593  0.00  0.00    +0.000 NA
ATOM     14  H   UNL     1       7.035   5.623  19.279  0.00  0.00    +0.000 HD
ATOM     15  H   UNL     1       6.439   4.145  19.828  0.00  0.00    +0.000 HD
ENDBRANCH  12  13
ENDBRANCH   7  12
TORSDOF 3
ENDMDL
