MODEL 1
REMARK VINA RESULT:      -8.2      0.000      0.000
REMARK  Name = 
REMARK  9 active torsions:
REMARK  status: ('A' for Active; 'I' for Inactive)
REMARK    1  A    between atoms: C_1  and  C_2
REMARK    2  A    between atoms: C_2  and  C_3
REMARK    3  A    between atoms: C_3  and  C_4
REMARK    4  A    between atoms: C_4  and  N_5
REMARK    5  A    between atoms: C_6  and  C_7
REMARK    6  A    between atoms: C_7  and  C_8
REMARK    7  A    between atoms: C_7  and  C_9
REMARK    8  A    between atoms: N_15  and  C_16
REMARK    9  A    between atoms: C_19  and  C_20
REMARK                            x       y       z     vdW  Elec       q    Type
REMARK                         _______ _______ _______ _____ _____    ______ ____
ROOT
ATOM      1  N   UNL     1       4.356   4.692  18.172  0.00  0.00    +0.000 N 
ATOM      2  C   UNL     1       4.908   5.083  16.956  0.00  0.00    +0.000 A 
ATOM      3  N   UNL     1       4.576   6.327  16.674  0.00  0.00    +0.000 NA
ATOM      4  C   UNL     1       3.777   6.744  17.691  0.00  0.00    +0.000 A 
ATOM      5  C   UNL     1       3.074   7.944  17.815  0.00  0.00    +0.000 A 
ATOM      6  C   UNL     1       2.212   8.120  18.924  0.00  0.00    +0.000 A 
ATOM      7  C   UNL     1       1.392   9.236  19.104  0.00  0.00    +0.000 A 
ATOM      8  N   UNL     1       1.408  10.267  18.130  0.00  0.00    +0.000 N 
ATOM      9  N   UNL     1       0.566   9.358  20.161  0.00  0.00    +0.000 NA
ATOM     10  C   UNL     1       0.579   8.371  21.056  0.00  0.00    +0.000 A 
ATOM     11  N   UNL     1       1.342   7.278  21.001  0.00  0.00    +0.000 NA
ATOM     12  C   UNL     1       2.144   7.162  19.940  0.00  0.00    +0.000 A 
ATOM     13  C   UNL     1       2.920   6.016  19.843  0.00  0.00    +0.000 A 
ATOM     14  C   UNL     1       3.673   5.780  18.682  0.00  0.00    +0.000 A 
ATOM     15  H   UNL     1       1.041   9.913  17.254  0.00  0.00    +0.000 HD
ENDROOT
BRANCH   8  16
ATOM     16  C   UNL     1       1.050  11.600  18.389  0.00  0.00    +0.000 A 
ATOM     17  C   UNL     1      -0.297  11.976  18.490  0.00  0.00    +0.000 A 
ATOM     18  C   UNL     1      -0.661  13.306  18.681  0.00  0.00    +0.000 A 
ATOM     19  C   UNL     1       0.322  14.286  18.797  0.00  0.00    +0.000 A 
ATOM     20  C   UNL     1      -0.058  15.732  18.888  0.00  0.00    +0.000 C 
ATOM     21  C   UNL     1       1.671  13.908  18.802  0.00  0.00    +0.000 A 
ATOM     22  C   UNL     1       2.033  12.573  18.612  0.00  0.00    +0.000 A 
ENDBRANCH   8  16
BRANCH   2  23
ATOM     23  C   UNL     1       5.679   4.198  16.009  0.00  0.00    +0.000 C 
ATOM     24  C   UNL     1       5.307   4.550  14.566  0.00  0.00    +0.000 C 
ATOM     25  C   UNL     1       7.192   4.369  16.197  0.00  0.00    +0.000 C 
ENDBRANCH   2  23
BRANCH   1  26
ATOM     26  C   UNL     1       4.396   3.345  18.720  0.00  0.00    +0.000 C 
BRANCH  26  27
ATOM     27  C   UNL     1       3.477   2.278  18.101  0.00  0.00    +0.000 C 
BRANCH  27  29
ATOM     28  C   UNL     1       1.122   2.629  18.953  0.00  0.00    +0.000 C 
ATOM     29  C   UNL     1       2.068   2.786  17.772  0.00  0.00    +0.000 C 
ENDBRANCH  27  29
ENDBRANCH  26  27
ENDBRANCH   1  26
TORSDOF 5
ENDMDL
MODEL 2
REMARK VINA RESULT:      -8.0      1.740      8.368
REMARK  Name = 
REMARK  9 active torsions:
REMARK  status: ('A' for Active; 'I' for Inactive)
REMARK    1  A    between atoms: C_1  and  C_2
REMARK    2  A    between atoms: C_2  and  C_3
REMARK    3  A    between atoms: C_3  and  C_4
REMARK    4  A    between atoms: C_4  and  N_5
REMARK    5  A    between atoms: C_6  and  C_7
REMARK    6  A    between atoms: C_7  and  C_8
REMARK    7  A    between atoms: C_7  and  C_9
REMARK    8  A    between atoms: N_15  and  C_16
REMARK    9  A    between atoms: C_19  and  C_20
REMARK                            x       y       z     vdW  Elec       q    Type
REMARK                         _______ _______ _______ _____ _____    ______ ____
ROOT
ATOM      1  N   UNL     1       1.458   8.577  20.199  0.00  0.00    +0.000 N 
ATOM      2  C   UNL     1       1.256   9.605  19.284  0.00  0.00    +0.000 A 
ATOM      3  N   UNL     1       1.835   9.325  18.134  0.00  0.00    +0.000 NA
ATOM      4  C   UNL     1       2.447   8.124  18.303  0.00  0.00    +0.000 A 
ATOM      5  C   UNL     1       3.287   7.439  17.423  0.00  0.00    +0.000 A 
ATOM      6  C   UNL     1       3.902   6.240  17.857  0.00  0.00    +0.000 A 
ATOM      7  C   UNL     1       4.829   5.522  17.101  0.00  0.00    +0.000 A 
ATOM      8  N   UNL     1       5.192   6.002  15.816  0.00  0.00    +0.000 N 
ATOM      9  N   UNL     1       5.413   4.396  17.557  0.00  0.00    +0.000 NA
ATOM     10  C   UNL     1       5.047   3.973  18.767  0.00  0.00    +0.000 A 
ATOM     11  N   UNL     1       4.150   4.561  19.561  0.00  0.00    +0.000 NA
ATOM     12  C   UNL     1       3.593   5.685  19.102  0.00  0.00    +0.000 A 
ATOM     13  C   UNL     1       2.685   6.334  19.926  0.00  0.00    +0.000 A 
ATOM     14  C   UNL     1       2.177   7.588  19.553  0.00  0.00    +0.000 A 
ATOM     15  H   UNL     1       5.681   6.885  15.909  0.00  0.00    +0.000 HD
ENDROOT
BRANCH   8  16
ATOM     16  C   UNL     1       5.692   5.192  14.785  0.00  0.00    +0.000 A 
ATOM     17  C   UNL     1       7.036   5.271  14.395  0.00  0.00    +0.000 A 
ATOM     18  C   UNL     1       7.524   4.518  13.330  0.00  0.00    +0.000 A 
ATOM     19  C   UNL     1       6.674   3.653  12.645  0.00  0.00    +0.000 A 
ATOM     20  C   UNL     1       7.157   2.925  11.427  0.00  0.00    +0.000 C 
ATOM     21  C   UNL     1       5.356   3.488  13.091  0.00  0.00    +0.000 A 
ATOM     22  C   UNL     1       4.871   4.243  14.161  0.00  0.00    +0.000 A 
ENDBRANCH   8  16
BRANCH   2  23
ATOM     23  C   UNL     1       0.580  10.923  19.570  0.00  0.00    +0.000 C 
ATOM     24  C   UNL     1       1.468  12.068  19.074  0.00  0.00    +0.000 C 
ATOM     25  C   UNL     1      -0.787  11.008  18.879  0.00  0.00    +0.000 C 
ENDBRANCH   2  23
BRANCH   1  26
ATOM     26  C   UNL     1       1.085   8.614  21.604  0.00  0.00    +0.000 C 
BRANCH  26  27
ATOM     27  C   UNL     1      -0.387   8.885  21.961  0.00  0.00    +0.000 C 
BRANCH  27  29
ATOM     28  C   UNL     1      -1.149  11.086  22.944  0.00  0.00    +0.000 C 
ATOM     29  C   UNL     1      -0.575   9.708  23.240  0.00  0.00    +0.000 C 
ENDBRANCH  27  29
ENDBRANCH  26  27
ENDBRANCH   1  26
TORSDOF 5
ENDMDL
MODEL 3
REMARK VINA RESULT:      -7.8      0.825      1.295
REMARK  Name = 
REMARK  9 active torsions:
REMARK  status: ('A' for Active; 'I' for Inactive)
REMARK    1  A    between atoms: C_1  and  C_2
REMARK    2  A    between atoms: C_2  and  C_3
REMARK    3  A    between atoms: C_3  and  C_4
REMARK    4  A    between atoms: C_4  and  N_5
REMARK    5  A    between atoms: C_6  and  C_7
REMARK    6  A    between atoms: C_7  and  C_8
REMARK    7  A    between atoms: C_7  and  C_9
REMARK    8  A    between atoms: N_15  and  C_16
REMARK    9  A    between atoms: C_19  and  C_20
REMARK                            x       y       z     vdW  Elec       q    Type
REMARK                         _______ _______ _______ _____ _____    ______ ____
ROOT
ATOM      1  N   UNL     1       3.709   5.024  18.509  0.00  0.00    +0.000 N 
ATOM      2  C   UNL     1       4.379   5.330  17.329  0.00  0.00    +0.000 A 
ATOM      3  N   UNL     1       4.201   6.596  17.008  0.00  0.00    +0.000 NA
ATOM      4  C   UNL     1       3.386   7.116  17.964  0.00  0.00    +0.000 A 
ATOM      5  C   UNL     1       2.809   8.386  18.025  0.00  0.00    +0.000 A 
ATOM      6  C   UNL     1       1.899   8.674  19.070  0.00  0.00    +0.000 A 
ATOM      7  C   UNL     1       1.194   9.874  19.180  0.00  0.00    +0.000 A 
ATOM      8  N   UNL     1       1.383  10.878  18.196  0.00  0.00    +0.000 N 
ATOM      9  N   UNL     1       0.317  10.104  20.177  0.00  0.00    +0.000 NA
ATOM     10  C   UNL     1       0.165   9.139  21.083  0.00  0.00    +0.000 A 
ATOM     11  N   UNL     1       0.809   7.970  21.095  0.00  0.00    +0.000 NA
ATOM     12  C   UNL     1       1.662   7.749  20.091  0.00  0.00    +0.000 A 
ATOM     13  C   UNL     1       2.316   6.526  20.061  0.00  0.00    +0.000 A 
ATOM     14  C   UNL     1       3.114   6.188  18.958  0.00  0.00    +0.000 A 
ATOM     15  H   UNL     1       1.039  10.547  17.301  0.00  0.00    +0.000 HD
ENDROOT
BRANCH   8  16
ATOM     16  C   UNL     1       1.154  12.246  18.413  0.00  0.00    +0.000 A 
ATOM     17  C   UNL     1       2.223  13.136  18.581  0.00  0.00    +0.000 A 
ATOM     18  C   UNL     1       2.004  14.482  18.861  0.00  0.00    +0.000 A 
ATOM     19  C   UNL     1       0.702  14.968  18.959  0.00  0.00    +0.000 A 
ATOM     20  C   UNL     1       0.452  16.386  19.373  0.00  0.00    +0.000 C 
ATOM     21  C   UNL     1      -0.373  14.110  18.690  0.00  0.00    +0.000 A 
ATOM     22  C   UNL     1      -0.149  12.761  18.407  0.00  0.00    +0.000 A 
ENDBRANCH   8  16
BRANCH   2  23
ATOM     23  C   UNL     1       5.111   4.349  16.447  0.00  0.00    +0.000 C 
ATOM     24  C   UNL     1       4.992   4.791  14.986  0.00  0.00    +0.000 C 
ATOM     25  C   UNL     1       6.595   4.260  16.829  0.00  0.00    +0.000 C 
ENDBRANCH   2  23
BRANCH   1  26
ATOM     26  C   UNL     1       3.568   3.692  19.076  0.00  0.00    +0.000 C 
BRANCH  26  27
ATOM     27  C   UNL     1       2.387   2.823  18.612  0.00  0.00    +0.000 C 
BRANCH  27  29
ATOM     28  C   UNL     1       1.455   2.860  20.963  0.00  0.00    +0.000 C 
ATOM     29  C   UNL     1       1.131   2.966  19.480  0.00  0.00    +0.000 C 
ENDBRANCH  27  29
ENDBRANCH  26  27
ENDBRANCH   1  26
TORSDOF 5
ENDMDL
MODEL 4
REMARK VINA RESULT:      -7.5      1.333      2.185
REMARK  Name = 
REMARK  9 active torsions:
REMARK  status: ('A' for Active; 'I' for Inactive)
REMARK    1  A    between atoms: C_1  and  C_2
REMARK    2  A    between atoms: C_2  and  C_3
REMARK    3  A    between atoms: C_3  and  C_4
REMARK    4  A    between atoms: C_4  and  N_5
REMARK    5  A    between atoms: C_6  and  C_7
REMARK    6  A    between atoms: C_7  and  C_8
REMARK    7  A    between atoms: C_7  and  C_9
REMARK    8  A    between atoms: N_15  and  C_16
REMARK    9  A    between atoms: C_19  and  C_20
REMARK                            x       y       z     vdW  Elec       q    Type
REMARK                         _______ _______ _______ _____ _____    ______ ____
ROOT
ATOM      1  N   UNL     1       2.698   5.542  19.466  0.00  0.00    +0.000 N 
ATOM      2  C   UNL     1       3.397   5.637  18.267  0.00  0.00    +0.000 A 
ATOM      3  N   UNL     1       3.362   6.872  17.806  0.00  0.00    +0.000 NA
ATOM      4  C   UNL     1       2.611   7.582  18.688  0.00  0.00    +0.000 A 
ATOM      5  C   UNL     1       2.181   8.907  18.601  0.00  0.00    +0.000 A 
ATOM      6  C   UNL     1       1.310   9.411  19.598  0.00  0.00    +0.000 A 
ATOM      7  C   UNL     1       0.743  10.686  19.565  0.00  0.00    +0.000 A 
ATOM      8  N   UNL     1       1.043  11.547  18.478  0.00  0.00    +0.000 N 
ATOM      9  N   UNL     1      -0.101  11.122  20.520  0.00  0.00    +0.000 NA
ATOM     10  C   UNL     1      -0.360  10.288  21.526  0.00  0.00    +0.000 A 
ATOM     11  N   UNL     1       0.149   9.063  21.675  0.00  0.00    +0.000 NA
ATOM     12  C   UNL     1       0.972   8.638  20.712  0.00  0.00    +0.000 A 
ATOM     13  C   UNL     1       1.483   7.354  20.826  0.00  0.00    +0.000 A 
ATOM     14  C   UNL     1       2.238   6.807  19.776  0.00  0.00    +0.000 A 
ATOM     15  H   UNL     1       0.664  11.159  17.622  0.00  0.00    +0.000 HD
ENDROOT
BRANCH   8  16
ATOM     16  C   UNL     1       0.969  12.947  18.539  0.00  0.00    +0.000 A 
ATOM     17  C   UNL     1       2.133  13.729  18.562  0.00  0.00    +0.000 A 
ATOM     18  C   UNL     1       2.069  15.114  18.688  0.00  0.00    +0.000 A 
ATOM     19  C   UNL     1       0.831  15.747  18.774  0.00  0.00    +0.000 A 
ATOM     20  C   UNL     1       0.751  17.222  19.025  0.00  0.00    +0.000 C 
ATOM     21  C   UNL     1      -0.340  14.987  18.647  0.00  0.00    +0.000 A 
ATOM     22  C   UNL     1      -0.271  13.598  18.518  0.00  0.00    +0.000 A 
ENDBRANCH   8  16
BRANCH   2  23
ATOM     23  C   UNL     1       4.015   4.489  17.509  0.00  0.00    +0.000 C 
ATOM     24  C   UNL     1       4.686   5.020  16.239  0.00  0.00    +0.000 C 
ATOM     25  C   UNL     1       5.057   3.756  18.363  0.00  0.00    +0.000 C 
ENDBRANCH   2  23
BRANCH   1  26
ATOM     26  C   UNL     1       2.410   4.305  20.176  0.00  0.00    +0.000 C 
BRANCH  26  27
ATOM     27  C   UNL     1       0.964   3.780  20.169  0.00  0.00    +0.000 C 
BRANCH  27  29
ATOM     28  C   UNL     1       1.916   1.823  18.880  0.00  0.00    +0.000 C 
ATOM     29  C   UNL     1       0.697   2.706  19.108  0.00  0.00    +0.000 C 
ENDBRANCH  27  29
ENDBRANCH  26  27
ENDBRANCH   1  26
TORSDOF 5
ENDMDL
MODEL 5
REMARK VINA RESULT:      -7.4      1.715      2.971
REMARK  Name = 
REMARK  9 active torsions:
REMARK  status: ('A' for Active; 'I' for Inactive)
REMARK    1  A    between atoms: C_1  and  C_2
REMARK    2  A    between atoms: C_2  and  C_3
REMARK    3  A    between atoms: C_3  and  C_4
REMARK    4  A    between atoms: C_4  and  N_5
REMARK    5  A    between atoms: C_6  and  C_7
REMARK    6  A    between atoms: C_7  and  C_8
REMARK    7  A    between atoms: C_7  and  C_9
REMARK    8  A    between atoms: N_15  and  C_16
REMARK    9  A    between atoms: C_19  and  C_20
REMARK                            x       y       z     vdW  Elec       q    Type
REMARK                         _______ _______ _______ _____ _____    ______ ____
ROOT
ATOM      1  N   UNL     1       2.265   6.221  19.961  0.00  0.00    +0.000 N 
ATOM      2  C   UNL     1       2.829   6.179  18.691  0.00  0.00    +0.000 A 
ATOM      3  N   UNL     1       2.804   7.373  18.132  0.00  0.00    +0.000 NA
ATOM      4  C   UNL     1       2.193   8.194  19.025  0.00  0.00    +0.000 A 
ATOM      5  C   UNL     1       1.821   9.531  18.871  0.00  0.00    +0.000 A 
ATOM      6  C   UNL     1       1.093  10.163  19.908  0.00  0.00    +0.000 A 
ATOM      7  C   UNL     1       0.590  11.462  19.827  0.00  0.00    +0.000 A 
ATOM      8  N   UNL     1       0.809  12.214  18.644  0.00  0.00    +0.000 N 
ATOM      9  N   UNL     1      -0.121  12.022  20.826  0.00  0.00    +0.000 NA
ATOM     10  C   UNL     1      -0.306  11.287  21.922  0.00  0.00    +0.000 A 
ATOM     11  N   UNL     1       0.155  10.050  22.120  0.00  0.00    +0.000 NA
ATOM     12  C   UNL     1       0.843   9.502  21.115  0.00  0.00    +0.000 A 
ATOM     13  C   UNL     1       1.300   8.204  21.283  0.00  0.00    +0.000 A 
ATOM     14  C   UNL     1       1.905   7.532  20.209  0.00  0.00    +0.000 A 
ATOM     15  H   UNL     1       0.318  11.782  17.870  0.00  0.00    +0.000 HD
ENDROOT
BRANCH   8  16
ATOM     16  C   UNL     1       0.811  13.617  18.592  0.00  0.00    +0.000 A 
ATOM     17  C   UNL     1       2.013  14.331  18.488  0.00  0.00    +0.000 A 
ATOM     18  C   UNL     1       2.029  15.723  18.502  0.00  0.00    +0.000 A 
ATOM     19  C   UNL     1       0.832  16.430  18.600  0.00  0.00    +0.000 A 
ATOM     20  C   UNL     1       0.845  17.922  18.732  0.00  0.00    +0.000 C 
ATOM     21  C   UNL     1      -0.381  15.729  18.601  0.00  0.00    +0.000 A 
ATOM     22  C   UNL     1      -0.393  14.333  18.584  0.00  0.00    +0.000 A 
ENDBRANCH   8  16
BRANCH   2  23
ATOM     23  C   UNL     1       3.301   4.940  17.972  0.00  0.00    +0.000 C 
ATOM     24  C   UNL     1       2.111   4.268  17.281  0.00  0.00    +0.000 C 
ATOM     25  C   UNL     1       4.369   5.278  16.924  0.00  0.00    +0.000 C 
ENDBRANCH   2  23
BRANCH   1  26
ATOM     26  C   UNL     1       1.996   5.064  20.802  0.00  0.00    +0.000 C 
BRANCH  26  27
ATOM     27  C   UNL     1       0.840   4.129  20.408  0.00  0.00    +0.000 C 
BRANCH  27  29
ATOM     28  C   UNL     1       2.298   2.453  21.616  0.00  0.00    +0.000 C 
ATOM     29  C   UNL     1       1.125   2.645  20.667  0.00  0.00    +0.000 C 
ENDBRANCH  27  29
ENDBRANCH  26  27
ENDBRANCH   1  26
TORSDOF 5
ENDMDL
MODEL 6
REMARK VINA RESULT:      -7.3      1.160      1.617
REMARK  Name = 
REMARK  9 active torsions:
REMARK  status: ('A' for Active; 'I' for Inactive)
REMARK    1  A    between atoms: C_1  and  C_2
REMARK    2  A    between atoms: C_2  and  C_3
REMARK    3  A    between atoms: C_3  and  C_4
REMARK    4  A    between atoms: C_4  and  N_5
REMARK    5  A    between atoms: C_6  and  C_7
REMARK    6  A    between atoms: C_7  and  C_8
REMARK    7  A    between atoms: C_7  and  C_9
REMARK    8  A    between atoms: N_15  and  C_16
REMARK    9  A    between atoms: C_19  and  C_20
REMARK                            x       y       z     vdW  Elec       q    Type
REMARK                         _______ _______ _______ _____ _____    ______ ____
ROOT
ATOM      1  N   UNL     1       3.194   5.666  18.708  0.00  0.00    +0.000 N 
ATOM      2  C   UNL     1       3.944   5.939  17.569  0.00  0.00    +0.000 A 
ATOM      3  N   UNL     1       3.856   7.216  17.251  0.00  0.00    +0.000 NA
ATOM      4  C   UNL     1       3.021   7.776  18.165  0.00  0.00    +0.000 A 
ATOM      5  C   UNL     1       2.515   9.076  18.205  0.00  0.00    +0.000 A 
ATOM      6  C   UNL     1       1.567   9.411  19.203  0.00  0.00    +0.000 A 
ATOM      7  C   UNL     1       0.926  10.648  19.283  0.00  0.00    +0.000 A 
ATOM      8  N   UNL     1       1.226  11.645  18.320  0.00  0.00    +0.000 N 
ATOM      9  N   UNL     1       0.010  10.922  20.233  0.00  0.00    +0.000 NA
ATOM     10  C   UNL     1      -0.246   9.962  21.122  0.00  0.00    +0.000 A 
ATOM     11  N   UNL     1       0.328   8.758  21.158  0.00  0.00    +0.000 NA
ATOM     12  C   UNL     1       1.222   8.495  20.201  0.00  0.00    +0.000 A 
ATOM     13  C   UNL     1       1.805   7.236  20.196  0.00  0.00    +0.000 A 
ATOM     14  C   UNL     1       2.642   6.859  19.134  0.00  0.00    +0.000 A 
ATOM     15  H   UNL     1       0.913  11.340  17.406  0.00  0.00    +0.000 HD
ENDROOT
BRANCH   8  16
ATOM     16  C   UNL     1       1.063  13.023  18.537  0.00  0.00    +0.000 A 
ATOM     17  C   UNL     1      -0.210  13.610  18.505  0.00  0.00    +0.000 A 
ATOM     18  C   UNL     1      -0.373  14.985  18.653  0.00  0.00    +0.000 A 
ATOM     19  C   UNL     1       0.739  15.798  18.858  0.00  0.00    +0.000 A 
ATOM     20  C   UNL     1       0.588  17.288  18.904  0.00  0.00    +0.000 C 
ATOM     21  C   UNL     1       2.004  15.211  18.995  0.00  0.00    +0.000 A 
ATOM     22  C   UNL     1       2.163  13.831  18.848  0.00  0.00    +0.000 A 
ENDBRANCH   8  16
BRANCH   2  23
ATOM     23  C   UNL     1       4.667   4.924  16.720  0.00  0.00    +0.000 C 
ATOM     24  C   UNL     1       5.167   5.595  15.438  0.00  0.00    +0.000 C 
ATOM     25  C   UNL     1       5.860   4.319  17.473  0.00  0.00    +0.000 C 
ENDBRANCH   2  23
BRANCH   1  26
ATOM     26  C   UNL     1       2.947   4.341  19.255  0.00  0.00    +0.000 C 
BRANCH  26  27
ATOM     27  C   UNL     1       1.616   3.648  18.916  0.00  0.00    +0.000 C 
BRANCH  27  29
ATOM     28  C   UNL     1       3.216   1.813  18.230  0.00  0.00    +0.000 C 
ATOM     29  C   UNL     1       1.766   2.176  18.514  0.00  0.00    +0.000 C 
ENDBRANCH  27  29
ENDBRANCH  26  27
ENDBRANCH   1  26
TORSDOF 5
ENDMDL
MODEL 7
REMARK VINA RESULT:      -7.3      2.272      4.128
REMARK  Name = 
REMARK  9 active torsions:
REMARK  status: ('A' for Active; 'I' for Inactive)
REMARK    1  A    between atoms: C_1  and  C_2
REMARK    2  A    between atoms: C_2  and  C_3
REMARK    3  A    between atoms: C_3  and  C_4
REMARK    4  A    between atoms: C_4  and  N_5
REMARK    5  A    between atoms: C_6  and  C_7
REMARK    6  A    between atoms: C_7  and  C_8
REMARK    7  A    between atoms: C_7  and  C_9
REMARK    8  A    between atoms: N_15  and  C_16
REMARK    9  A    between atoms: C_19  and  C_20
REMARK                            x       y       z     vdW  Elec       q    Type
REMARK                         _______ _______ _______ _____ _____    ______ ____
ROOT
ATOM      1  N   UNL     1       3.602   5.018  18.334  0.00  0.00    +0.000 N 
ATOM      2  C   UNL     1       3.264   4.229  19.428  0.00  0.00    +0.000 A 
ATOM      3  N   UNL     1       2.461   4.884  20.243  0.00  0.00    +0.000 NA
ATOM      4  C   UNL     1       2.295   6.118  19.697  0.00  0.00    +0.000 A 
ATOM      5  C   UNL     1       1.627   7.225  20.224  0.00  0.00    +0.000 A 
ATOM      6  C   UNL     1       1.673   8.452  19.520  0.00  0.00    +0.000 A 
ATOM      7  C   UNL     1       1.123   9.643  19.994  0.00  0.00    +0.000 A 
ATOM      8  N   UNL     1       0.472   9.649  21.255  0.00  0.00    +0.000 N 
ATOM      9  N   UNL     1       1.208  10.799  19.306  0.00  0.00    +0.000 NA
ATOM     10  C   UNL     1       1.825  10.755  18.126  0.00  0.00    +0.000 A 
ATOM     11  N   UNL     1       2.358   9.669  17.563  0.00  0.00    +0.000 NA
ATOM     12  C   UNL     1       2.281   8.535  18.264  0.00  0.00    +0.000 A 
ATOM     13  C   UNL     1       2.861   7.401  17.715  0.00  0.00    +0.000 A 
ATOM     14  C   UNL     1       2.932   6.219  18.469  0.00  0.00    +0.000 A 
ATOM     15  H   UNL     1       1.147   9.459  21.987  0.00  0.00    +0.000 HD
ENDROOT
BRANCH   8  16
ATOM     16  C   UNL     1      -0.512  10.578  21.628  0.00  0.00    +0.000 A 
ATOM     17  C   UNL     1      -0.930  10.685  22.962  0.00  0.00    +0.000 A 
ATOM     18  C   UNL     1      -1.951  11.557  23.330  0.00  0.00    +0.000 A 
ATOM     19  C   UNL     1      -2.561  12.358  22.366  0.00  0.00    +0.000 A 
ATOM     20  C   UNL     1      -3.736  13.215  22.728  0.00  0.00    +0.000 C 
ATOM     21  C   UNL     1      -2.081  12.335  21.050  0.00  0.00    +0.000 A 
ATOM     22  C   UNL     1      -1.055  11.461  20.686  0.00  0.00    +0.000 A 
ENDBRANCH   8  16
BRANCH   2  23
ATOM     23  C   UNL     1       3.817   2.861  19.738  0.00  0.00    +0.000 C 
ATOM     24  C   UNL     1       3.336   2.417  21.122  0.00  0.00    +0.000 C 
ATOM     25  C   UNL     1       3.369   1.831  18.693  0.00  0.00    +0.000 C 
ENDBRANCH   2  23
BRANCH   1  26
ATOM     26  C   UNL     1       4.581   4.670  17.315  0.00  0.00    +0.000 C 
BRANCH  26  27
ATOM     27  C   UNL     1       6.054   5.035  17.565  0.00  0.00    +0.000 C 
BRANCH  27  29
ATOM     28  C   UNL     1       7.607   7.016  17.807  0.00  0.00    +0.000 C 
ATOM     29  C   UNL     1       6.455   6.410  17.018  0.00  0.00    +0.000 C 
ENDBRANCH  27  29
ENDBRANCH  26  27
ENDBRANCH   1  26
TORSDOF 5
ENDMDL
MODEL 8
REMARK VINA RESULT:      -7.2      2.049      3.995
REMARK  Name = 
REMARK  9 active torsions:
REMARK  status: ('A' for Active; 'I' for Inactive)
REMARK    1  A    between atoms: C_1  and  C_2
REMARK    2  A    between atoms: C_2  and  C_3
REMARK    3  A    between atoms: C_3  and  C_4
REMARK    4  A    between atoms: C_4  and  N_5
REMARK    5  A    between atoms: C_6  and  C_7
REMARK    6  A    between atoms: C_7  and  C_8
REMARK    7  A    between atoms: C_7  and  C_9
REMARK    8  A    between atoms: N_15  and  C_16
REMARK    9  A    between atoms: C_19  and  C_20
REMARK                            x       y       z     vdW  Elec       q    Type
REMARK                         _______ _______ _______ _____ _____    ______ ____
ROOT
ATOM      1  N   UNL     1       3.734   4.832  18.038  0.00  0.00    +0.000 N 
ATOM      2  C   UNL     1       3.471   4.030  19.143  0.00  0.00    +0.000 A 
ATOM      3  N   UNL     1       2.704   4.666  20.006  0.00  0.00    +0.000 NA
ATOM      4  C   UNL     1       2.488   5.900  19.481  0.00  0.00    +0.000 A 
ATOM      5  C   UNL     1       1.833   6.992  20.053  0.00  0.00    +0.000 A 
ATOM      6  C   UNL     1       1.820   8.225  19.357  0.00  0.00    +0.000 A 
ATOM      7  C   UNL     1       1.278   9.404  19.871  0.00  0.00    +0.000 A 
ATOM      8  N   UNL     1       0.699   9.390  21.166  0.00  0.00    +0.000 N 
ATOM      9  N   UNL     1       1.306  10.565  19.189  0.00  0.00    +0.000 NA
ATOM     10  C   UNL     1       1.857  10.541  17.976  0.00  0.00    +0.000 A 
ATOM     11  N   UNL     1       2.375   9.468  17.375  0.00  0.00    +0.000 NA
ATOM     12  C   UNL     1       2.355   8.327  18.070  0.00  0.00    +0.000 A 
ATOM     13  C   UNL     1       2.922   7.206  17.481  0.00  0.00    +0.000 A 
ATOM     14  C   UNL     1       3.053   6.021  18.220  0.00  0.00    +0.000 A 
ATOM     15  H   UNL     1       1.416   9.205  21.858  0.00  0.00    +0.000 HD
ENDROOT
BRANCH   8  16
ATOM     16  C   UNL     1      -0.277  10.300  21.602  0.00  0.00    +0.000 A 
ATOM     17  C   UNL     1      -0.870  11.201  20.707  0.00  0.00    +0.000 A 
ATOM     18  C   UNL     1      -1.791  12.150  21.143  0.00  0.00    +0.000 A 
ATOM     19  C   UNL     1      -2.153  12.200  22.487  0.00  0.00    +0.000 A 
ATOM     20  C   UNL     1      -3.053  13.288  22.988  0.00  0.00    +0.000 C 
ATOM     21  C   UNL     1      -1.646  11.238  23.371  0.00  0.00    +0.000 A 
ATOM     22  C   UNL     1      -0.724  10.287  22.929  0.00  0.00    +0.000 A 
ENDBRANCH   8  16
BRANCH   2  23
ATOM     23  C   UNL     1       4.062   2.668  19.410  0.00  0.00    +0.000 C 
ATOM     24  C   UNL     1       3.811   2.281  20.870  0.00  0.00    +0.000 C 
ATOM     25  C   UNL     1       3.446   1.605  18.491  0.00  0.00    +0.000 C 
ENDBRANCH   2  23
BRANCH   1  26
ATOM     26  C   UNL     1       4.660   4.507  16.963  0.00  0.00    +0.000 C 
BRANCH  26  27
ATOM     27  C   UNL     1       5.959   5.322  16.850  0.00  0.00    +0.000 C 
BRANCH  27  29
ATOM     28  C   UNL     1       6.327   4.166  14.631  0.00  0.00    +0.000 C 
ATOM     29  C   UNL     1       6.987   4.722  15.883  0.00  0.00    +0.000 C 
ENDBRANCH  27  29
ENDBRANCH  26  27
ENDBRANCH   1  26
TORSDOF 5
ENDMDL
MODEL 9
REMARK VINA RESULT:      -7.2      2.533      4.311
REMARK  Name = 
REMARK  9 active torsions:
REMARK  status: ('A' for Active; 'I' for Inactive)
REMARK    1  A    between atoms: C_1  and  C_2
REMARK    2  A    between atoms: C_2  and  C_3
REMARK    3  A    between atoms: C_3  and  C_4
REMARK    4  A    between atoms: C_4  and  N_5
REMARK    5  A    between atoms: C_6  and  C_7
REMARK    6  A    between atoms: C_7  and  C_8
REMARK    7  A    between atoms: C_7  and  C_9
REMARK    8  A    between atoms: N_15  and  C_16
REMARK    9  A    between atoms: C_19  and  C_20
REMARK                            x       y       z     vdW  Elec       q    Type
REMARK                         _______ _______ _______ _____ _____    ______ ____
ROOT
ATOM      1  N   UNL     1       2.811   5.306  18.718  0.00  0.00    +0.000 N 
ATOM      2  C   UNL     1       2.531   4.586  19.874  0.00  0.00    +0.000 A 
ATOM      3  N   UNL     1       1.892   5.339  20.748  0.00  0.00    +0.000 NA
ATOM      4  C   UNL     1       1.780   6.567  20.176  0.00  0.00    +0.000 A 
ATOM      5  C   UNL     1       1.283   7.748  20.731  0.00  0.00    +0.000 A 
ATOM      6  C   UNL     1       1.362   8.944  19.977  0.00  0.00    +0.000 A 
ATOM      7  C   UNL     1       0.983  10.196  20.463  0.00  0.00    +0.000 A 
ATOM      8  N   UNL     1       0.487  10.301  21.788  0.00  0.00    +0.000 N 
ATOM      9  N   UNL     1       1.095  11.318  19.724  0.00  0.00    +0.000 NA
ATOM     10  C   UNL     1       1.564  11.181  18.484  0.00  0.00    +0.000 A 
ATOM     11  N   UNL     1       1.925  10.032  17.908  0.00  0.00    +0.000 NA
ATOM     12  C   UNL     1       1.824   8.931  18.658  0.00  0.00    +0.000 A 
ATOM     13  C   UNL     1       2.229   7.731  18.093  0.00  0.00    +0.000 A 
ATOM     14  C   UNL     1       2.276   6.570  18.881  0.00  0.00    +0.000 A 
ATOM     15  H   UNL     1       1.222  10.068  22.446  0.00  0.00    +0.000 HD
ENDROOT
BRANCH   8  16
ATOM     16  C   UNL     1      -0.356  11.332  22.233  0.00  0.00    +0.000 A 
ATOM     17  C   UNL     1      -0.080  12.671  21.923  0.00  0.00    +0.000 A 
ATOM     18  C   UNL     1      -0.874  13.703  22.415  0.00  0.00    +0.000 A 
ATOM     19  C   UNL     1      -1.977  13.410  23.214  0.00  0.00    +0.000 A 
ATOM     20  C   UNL     1      -2.770  14.515  23.843  0.00  0.00    +0.000 C 
ATOM     21  C   UNL     1      -2.322  12.072  23.445  0.00  0.00    +0.000 A 
ATOM     22  C   UNL     1      -1.525  11.040  22.947  0.00  0.00    +0.000 A 
ENDBRANCH   8  16
BRANCH   2  23
ATOM     23  C   UNL     1       2.987   3.179  20.173  0.00  0.00    +0.000 C 
ATOM     24  C   UNL     1       2.592   2.810  21.606  0.00  0.00    +0.000 C 
ATOM     25  C   UNL     1       2.359   2.173  19.200  0.00  0.00    +0.000 C 
ENDBRANCH   2  23
BRANCH   1  26
ATOM     26  C   UNL     1       3.628   4.836  17.610  0.00  0.00    +0.000 C 
BRANCH  26  27
ATOM     27  C   UNL     1       5.018   5.464  17.411  0.00  0.00    +0.000 C 
BRANCH  27  29
ATOM     28  C   UNL     1       5.751   5.315  14.995  0.00  0.00    +0.000 C 
ATOM     29  C   UNL     1       5.178   6.212  16.082  0.00  0.00    +0.000 C 
ENDBRANCH  27  29
ENDBRANCH  26  27
ENDBRANCH   1  26
TORSDOF 5
ENDMDL
