MODEL 1
REMARK VINA RESULT:      -6.9      0.000      0.000
REMARK  Name = 
REMARK  7 active torsions:
REMARK  status: ('A' for Active; 'I' for Inactive)
REMARK    1  A    between atoms: C_1  and  O_2
REMARK    2  A    between atoms: O_2  and  C_3
REMARK    3  A    between atoms: C_3  and  C_4
REMARK    4  A    between atoms: C_4  and  N_5
REMARK    5  A    between atoms: N_5  and  C_6
REMARK    6  A    between atoms: N_11  and  C_12
REMARK    7  A    between atoms: C_12  and  C_13
REMARK                            x       y       z     vdW  Elec       q    Type
REMARK                         _______ _______ _______ _____ _____    ______ ____
ROOT
ATOM      1  C   UNL     1       5.290   6.616  17.088  0.00  0.00    +0.000 C 
ENDROOT
BRANCH   1   2
ATOM      2  C   UNL     1       4.081   6.180  17.887  0.00  0.00    +0.000 A 
ATOM      3  C   UNL     1       3.296   7.076  18.622  0.00  0.00    +0.000 A 
ATOM      4  C   UNL     1       2.342   6.612  19.540  0.00  0.00    +0.000 A 
ATOM      5 CL   UNL     1       1.440   7.780  20.441  0.00  0.00    +0.000 Cl
ATOM      6  C   UNL     1       2.161   5.241  19.748  0.00  0.00    +0.000 A 
ATOM      7  C   UNL     1       2.909   4.341  18.985  0.00  0.00    +0.000 A 
ATOM      8  C   UNL     1       3.844   4.800  18.055  0.00  0.00    +0.000 A 
ATOM      9  O   UNL     1       2.811   2.980  19.121  0.00  0.00    +0.000 OA
ATOM     10  C   UNL     1       2.317   2.635  20.420  0.00  0.00    +0.000 C 
ATOM     11  C   UNL     1       1.063   3.424  20.752  0.00  0.00    +0.000 C 
ATOM     12  O   UNL     1       1.295   4.836  20.732  0.00  0.00    +0.000 OA
ENDBRANCH   1   2
BRANCH   1  19
ATOM     13  N   UNL     1       6.409   4.933  14.698  0.00  0.00    +0.000 N 
ATOM     14  C   UNL     1       5.044   4.427  14.542  0.00  0.00    +0.000 C 
ATOM     15  C   UNL     1       6.889   4.920  15.986  0.00  0.00    +0.000 A 
ATOM     16  N   UNL     1       7.895   4.213  16.469  0.00  0.00    +0.000 NA
ATOM     17  N   UNL     1       7.975   4.498  17.809  0.00  0.00    +0.000 NA
ATOM     18  N   UNL     1       7.070   5.397  18.156  0.00  0.00    +0.000 NA
ATOM     19  N   UNL     1       6.401   5.693  17.020  0.00  0.00    +0.000 N 
BRANCH  13  20
ATOM     20  C   UNL     1       7.386   4.395  13.699  0.00  0.00    +0.000 C 
BRANCH  20  21
ATOM     21  C   UNL     1       6.786   4.159  12.303  0.00  0.00    +0.000 C 
BRANCH  21  23
ATOM     22  C   UNL     1       5.597   2.255  11.581  0.00  0.00    +0.000 C 
ATOM     23  O   UNL     1       6.868   2.780  11.934  0.00  0.00    +0.000 OA
ENDBRANCH  21  23
ENDBRANCH  20  21
ENDBRANCH  13  20
ENDBRANCH   1  19
TORSDOF 5
ENDMDL
MODEL 2
REMARK VINA RESULT:      -6.8      3.612      5.290
REMARK  Name = 
REMARK  7 active torsions:
REMARK  status: ('A' for Active; 'I' for Inactive)
REMARK    1  A    between atoms: C_1  and  O_2
REMARK    2  A    between atoms: O_2  and  C_3
REMARK    3  A    between atoms: C_3  and  C_4
REMARK    4  A    between atoms: C_4  and  N_5
REMARK    5  A    between atoms: N_5  and  C_6
REMARK    6  A    between atoms: N_11  and  C_12
REMARK    7  A    between atoms: C_12  and  C_13
REMARK                            x       y       z     vdW  Elec       q    Type
REMARK                         _______ _______ _______ _____ _____    ______ ____
ROOT
ATOM      1  C   UNL     1       2.831   5.781  19.977  0.00  0.00    +0.000 C 
ENDROOT
BRANCH   1   2
ATOM      2  C   UNL     1       1.990   7.039  19.923  0.00  0.00    +0.000 A 
ATOM      3  C   UNL     1       2.144   8.010  18.927  0.00  0.00    +0.000 A 
ATOM      4  C   UNL     1       1.529   9.266  19.044  0.00  0.00    +0.000 A 
ATOM      5 CL   UNL     1       1.799  10.428  17.793  0.00  0.00    +0.000 Cl
ATOM      6  C   UNL     1       0.754   9.577  20.166  0.00  0.00    +0.000 A 
ATOM      7  C   UNL     1       0.560   8.597  21.142  0.00  0.00    +0.000 A 
ATOM      8  C   UNL     1       1.153   7.339  21.017  0.00  0.00    +0.000 A 
ATOM      9  O   UNL     1      -0.174   8.809  22.282  0.00  0.00    +0.000 OA
ATOM     10  C   UNL     1      -0.231  10.204  22.596  0.00  0.00    +0.000 C 
ATOM     11  C   UNL     1      -0.645  11.018  21.384  0.00  0.00    +0.000 C 
ATOM     12  O   UNL     1       0.262  10.852  20.289  0.00  0.00    +0.000 OA
ENDBRANCH   1   2
BRANCH   1  19
ATOM     13  N   UNL     1       4.825   5.172  17.642  0.00  0.00    +0.000 N 
ATOM     14  C   UNL     1       4.829   6.615  17.398  0.00  0.00    +0.000 C 
ATOM     15  C   UNL     1       3.579   4.613  17.804  0.00  0.00    +0.000 A 
ATOM     16  N   UNL     1       2.981   3.728  17.027  0.00  0.00    +0.000 NA
ATOM     17  N   UNL     1       1.739   3.501  17.565  0.00  0.00    +0.000 NA
ATOM     18  N   UNL     1       1.572   4.194  18.678  0.00  0.00    +0.000 NA
ATOM     19  N   UNL     1       2.726   4.872  18.857  0.00  0.00    +0.000 N 
BRANCH  13  20
ATOM     20  C   UNL     1       5.708   4.387  16.724  0.00  0.00    +0.000 C 
BRANCH  20  21
ATOM     21  C   UNL     1       7.211   4.567  16.996  0.00  0.00    +0.000 C 
BRANCH  21  23
ATOM     22  C   UNL     1       7.984   5.650  18.942  0.00  0.00    +0.000 C 
ATOM     23  O   UNL     1       7.501   4.434  18.389  0.00  0.00    +0.000 OA
ENDBRANCH  21  23
ENDBRANCH  20  21
ENDBRANCH  13  20
ENDBRANCH   1  19
TORSDOF 5
ENDMDL
MODEL 3
REMARK VINA RESULT:      -6.7      3.480      4.828
REMARK  Name = 
REMARK  7 active torsions:
REMARK  status: ('A' for Active; 'I' for Inactive)
REMARK    1  A    between atoms: C_1  and  O_2
REMARK    2  A    between atoms: O_2  and  C_3
REMARK    3  A    between atoms: C_3  and  C_4
REMARK    4  A    between atoms: C_4  and  N_5
REMARK    5  A    between atoms: N_5  and  C_6
REMARK    6  A    between atoms: N_11  and  C_12
REMARK    7  A    between atoms: C_12  and  C_13
REMARK                            x       y       z     vdW  Elec       q    Type
REMARK                         _______ _______ _______ _____ _____    ______ ____
ROOT
ATOM      1  C   UNL     1       2.857   5.704  19.883  0.00  0.00    +0.000 C 
ENDROOT
BRANCH   1   2
ATOM      2  C   UNL     1       2.048   6.982  19.842  0.00  0.00    +0.000 A 
ATOM      3  C   UNL     1       2.244   7.971  18.871  0.00  0.00    +0.000 A 
ATOM      4  C   UNL     1       1.657   9.239  19.005  0.00  0.00    +0.000 A 
ATOM      5 CL   UNL     1       1.978  10.421  17.786  0.00  0.00    +0.000 Cl
ATOM      6  C   UNL     1       0.870   9.544  20.120  0.00  0.00    +0.000 A 
ATOM      7  C   UNL     1       0.634   8.548  21.070  0.00  0.00    +0.000 A 
ATOM      8  C   UNL     1       1.199   7.279  20.928  0.00  0.00    +0.000 A 
ATOM      9  O   UNL     1      -0.116   8.753  22.200  0.00  0.00    +0.000 OA
ATOM     10  C   UNL     1      -0.144  10.141  22.545  0.00  0.00    +0.000 C 
ATOM     11  C   UNL     1      -0.516  10.992  21.344  0.00  0.00    +0.000 C 
ATOM     12  O   UNL     1       0.407  10.828  20.262  0.00  0.00    +0.000 OA
ENDBRANCH   1   2
BRANCH   1  19
ATOM     13  N   UNL     1       4.739   4.943  17.500  0.00  0.00    +0.000 N 
ATOM     14  C   UNL     1       4.802   6.378  17.218  0.00  0.00    +0.000 C 
ATOM     15  C   UNL     1       3.475   4.448  17.717  0.00  0.00    +0.000 A 
ATOM     16  N   UNL     1       2.809   3.573  16.984  0.00  0.00    +0.000 NA
ATOM     17  N   UNL     1       1.578   3.419  17.569  0.00  0.00    +0.000 NA
ATOM     18  N   UNL     1       1.481   4.146  18.669  0.00  0.00    +0.000 NA
ATOM     19  N   UNL     1       2.672   4.773  18.791  0.00  0.00    +0.000 N 
BRANCH  13  20
ATOM     20  C   UNL     1       5.552   4.094  16.573  0.00  0.00    +0.000 C 
BRANCH  20  21
ATOM     21  C   UNL     1       6.804   4.795  16.019  0.00  0.00    +0.000 C 
BRANCH  21  23
ATOM     22  C   UNL     1       6.302   4.155  13.807  0.00  0.00    +0.000 C 
ATOM     23  O   UNL     1       6.594   5.238  14.677  0.00  0.00    +0.000 OA
ENDBRANCH  21  23
ENDBRANCH  20  21
ENDBRANCH  13  20
ENDBRANCH   1  19
TORSDOF 5
ENDMDL
MODEL 4
REMARK VINA RESULT:      -6.6      1.130      1.197
REMARK  Name = 
REMARK  7 active torsions:
REMARK  status: ('A' for Active; 'I' for Inactive)
REMARK    1  A    between atoms: C_1  and  O_2
REMARK    2  A    between atoms: O_2  and  C_3
REMARK    3  A    between atoms: C_3  and  C_4
REMARK    4  A    between atoms: C_4  and  N_5
REMARK    5  A    between atoms: N_5  and  C_6
REMARK    6  A    between atoms: N_11  and  C_12
REMARK    7  A    between atoms: C_12  and  C_13
REMARK                            x       y       z     vdW  Elec       q    Type
REMARK                         _______ _______ _______ _____ _____    ______ ____
ROOT
ATOM      1  C   UNL     1       4.080   6.759  16.617  0.00  0.00    +0.000 C 
ENDROOT
BRANCH   1   2
ATOM      2  C   UNL     1       3.349   6.151  17.795  0.00  0.00    +0.000 A 
ATOM      3  C   UNL     1       2.690   6.925  18.758  0.00  0.00    +0.000 A 
ATOM      4  C   UNL     1       2.238   6.351  19.956  0.00  0.00    +0.000 A 
ATOM      5 CL   UNL     1       1.470   7.378  21.114  0.00  0.00    +0.000 Cl
ATOM      6  C   UNL     1       2.446   4.993  20.218  0.00  0.00    +0.000 A 
ATOM      7  C   UNL     1       3.063   4.206  19.243  0.00  0.00    +0.000 A 
ATOM      8  C   UNL     1       3.494   4.770  18.040  0.00  0.00    +0.000 A 
ATOM      9  O   UNL     1       3.320   2.869  19.410  0.00  0.00    +0.000 OA
ATOM     10  C   UNL     1       3.393   2.537  20.800  0.00  0.00    +0.000 C 
ATOM     11  C   UNL     1       2.190   3.077  21.553  0.00  0.00    +0.000 C 
ATOM     12  O   UNL     1       2.085   4.501  21.447  0.00  0.00    +0.000 OA
ENDBRANCH   1   2
BRANCH   1  19
ATOM     13  N   UNL     1       5.954   4.842  15.000  0.00  0.00    +0.000 N 
ATOM     14  C   UNL     1       5.144   3.751  15.544  0.00  0.00    +0.000 C 
ATOM     15  C   UNL     1       6.361   5.778  15.922  0.00  0.00    +0.000 A 
ATOM     16  N   UNL     1       7.594   6.053  16.307  0.00  0.00    +0.000 NA
ATOM     17  N   UNL     1       7.503   7.025  17.271  0.00  0.00    +0.000 NA
ATOM     18  N   UNL     1       6.245   7.386  17.462  0.00  0.00    +0.000 NA
ATOM     19  N   UNL     1       5.521   6.635  16.603  0.00  0.00    +0.000 N 
BRANCH  13  20
ATOM     20  C   UNL     1       7.052   4.401  14.084  0.00  0.00    +0.000 C 
BRANCH  20  21
ATOM     21  C   UNL     1       6.606   4.199  12.626  0.00  0.00    +0.000 C 
BRANCH  21  23
ATOM     22  C   UNL     1       4.724   3.247  11.572  0.00  0.00    +0.000 C 
ATOM     23  O   UNL     1       5.782   3.039  12.497  0.00  0.00    +0.000 OA
ENDBRANCH  21  23
ENDBRANCH  20  21
ENDBRANCH  13  20
ENDBRANCH   1  19
TORSDOF 5
ENDMDL
MODEL 5
REMARK VINA RESULT:      -6.5      2.239      3.193
REMARK  Name = 
REMARK  7 active torsions:
REMARK  status: ('A' for Active; 'I' for Inactive)
REMARK    1  A    between atoms: C_1  and  O_2
REMARK    2  A    between atoms: O_2  and  C_3
REMARK    3  A    between atoms: C_3  and  C_4
REMARK    4  A    between atoms: C_4  and  N_5
REMARK    5  A    between atoms: N_5  and  C_6
REMARK    6  A    between atoms: N_11  and  C_12
REMARK    7  A    between atoms: C_12  and  C_13
REMARK                            x       y       z     vdW  Elec       q    Type
REMARK                         _______ _______ _______ _____ _____    ______ ____
ROOT
ATOM      1  C   UNL     1       4.013   7.022  16.452  0.00  0.00    +0.000 C 
ENDROOT
BRANCH   1   2
ATOM      2  C   UNL     1       3.384   7.246  17.810  0.00  0.00    +0.000 A 
ATOM      3  C   UNL     1       3.268   6.231  18.768  0.00  0.00    +0.000 A 
ATOM      4  C   UNL     1       2.467   6.404  19.908  0.00  0.00    +0.000 A 
ATOM      5 CL   UNL     1       2.342   5.091  21.024  0.00  0.00    +0.000 Cl
ATOM      6  C   UNL     1       1.758   7.594  20.106  0.00  0.00    +0.000 A 
ATOM      7  C   UNL     1       1.905   8.626  19.177  0.00  0.00    +0.000 A 
ATOM      8  C   UNL     1       2.719   8.465  18.054  0.00  0.00    +0.000 A 
ATOM      9  O   UNL     1       1.245   9.825  19.278  0.00  0.00    +0.000 OA
ATOM     10  C   UNL     1       0.058   9.685  20.065  0.00  0.00    +0.000 C 
ATOM     11  C   UNL     1       0.355   8.982  21.378  0.00  0.00    +0.000 C 
ATOM     12  O   UNL     1       0.904   7.676  21.176  0.00  0.00    +0.000 OA
ENDBRANCH   1   2
BRANCH   1  19
ATOM     13  N   UNL     1       5.597   4.557  15.350  0.00  0.00    +0.000 N 
ATOM     14  C   UNL     1       4.724   3.741  16.195  0.00  0.00    +0.000 C 
ATOM     15  C   UNL     1       6.146   5.655  15.971  0.00  0.00    +0.000 A 
ATOM     16  N   UNL     1       7.421   5.890  16.225  0.00  0.00    +0.000 NA
ATOM     17  N   UNL     1       7.480   7.086  16.894  0.00  0.00    +0.000 NA
ATOM     18  N   UNL     1       6.275   7.616  17.022  0.00  0.00    +0.000 NA
ATOM     19  N   UNL     1       5.433   6.746  16.423  0.00  0.00    +0.000 N 
BRANCH  13  20
ATOM     20  C   UNL     1       6.592   3.775  14.550  0.00  0.00    +0.000 C 
BRANCH  20  21
ATOM     21  C   UNL     1       6.248   3.670  13.055  0.00  0.00    +0.000 C 
BRANCH  21  23
ATOM     22  C   UNL     1       4.450   3.270  11.582  0.00  0.00    +0.000 C 
ATOM     23  O   UNL     1       4.841   3.800  12.841  0.00  0.00    +0.000 OA
ENDBRANCH  21  23
ENDBRANCH  20  21
ENDBRANCH  13  20
ENDBRANCH   1  19
TORSDOF 5
ENDMDL
MODEL 6
REMARK VINA RESULT:      -6.5     10.791     13.082
REMARK  Name = 
REMARK  7 active torsions:
REMARK  status: ('A' for Active; 'I' for Inactive)
REMARK    1  A    between atoms: C_1  and  O_2
REMARK    2  A    between atoms: O_2  and  C_3
REMARK    3  A    between atoms: C_3  and  C_4
REMARK    4  A    between atoms: C_4  and  N_5
REMARK    5  A    between atoms: N_5  and  C_6
REMARK    6  A    between atoms: N_11  and  C_12
REMARK    7  A    between atoms: C_12  and  C_13
REMARK                            x       y       z     vdW  Elec       q    Type
REMARK                         _______ _______ _______ _____ _____    ______ ____
ROOT
ATOM      1  C   UNL     1      -4.597  13.689  22.601  0.00  0.00    +0.000 C 
ENDROOT
BRANCH   1   2
ATOM      2  C   UNL     1      -3.309  13.073  22.098  0.00  0.00    +0.000 A 
ATOM      3  C   UNL     1      -2.956  13.059  20.743  0.00  0.00    +0.000 A 
ATOM      4  C   UNL     1      -1.888  12.273  20.285  0.00  0.00    +0.000 A 
ATOM      5 CL   UNL     1      -1.538  12.275  18.593  0.00  0.00    +0.000 Cl
ATOM      6  C   UNL     1      -1.158  11.477  21.175  0.00  0.00    +0.000 A 
ATOM      7  C   UNL     1      -1.476  11.521  22.534  0.00  0.00    +0.000 A 
ATOM      8  C   UNL     1      -2.525  12.320  22.995  0.00  0.00    +0.000 A 
ATOM      9  O   UNL     1      -0.826  10.771  23.481  0.00  0.00    +0.000 OA
ATOM     10  C   UNL     1      -0.224   9.617  22.887  0.00  0.00    +0.000 C 
ATOM     11  C   UNL     1       0.598   9.998  21.669  0.00  0.00    +0.000 C 
ATOM     12  O   UNL     1      -0.194  10.643  20.666  0.00  0.00    +0.000 OA
ENDBRANCH   1   2
BRANCH   1  19
ATOM     13  N   UNL     1      -6.551  12.479  20.475  0.00  0.00    +0.000 N 
ATOM     14  C   UNL     1      -6.768  13.857  20.033  0.00  0.00    +0.000 C 
ATOM     15  C   UNL     1      -6.621  12.287  21.835  0.00  0.00    +0.000 A 
ATOM     16  N   UNL     1      -7.505  11.572  22.508  0.00  0.00    +0.000 NA
ATOM     17  N   UNL     1      -7.200  11.711  23.838  0.00  0.00    +0.000 NA
ATOM     18  N   UNL     1      -6.123  12.461  24.001  0.00  0.00    +0.000 NA
ATOM     19  N   UNL     1      -5.732  12.805  22.754  0.00  0.00    +0.000 N 
BRANCH  13  20
ATOM     20  C   UNL     1      -7.310  11.451  19.695  0.00  0.00    +0.000 C 
BRANCH  20  21
ATOM     21  C   UNL     1      -6.869  11.329  18.227  0.00  0.00    +0.000 C 
BRANCH  21  23
ATOM     22  C   UNL     1      -4.819  11.699  17.123  0.00  0.00    +0.000 C 
ATOM     23  O   UNL     1      -5.491  10.961  18.133  0.00  0.00    +0.000 OA
ENDBRANCH  21  23
ENDBRANCH  20  21
ENDBRANCH  13  20
ENDBRANCH   1  19
TORSDOF 5
ENDMDL
MODEL 7
REMARK VINA RESULT:      -6.4      4.839      8.604
REMARK  Name = 
REMARK  7 active torsions:
REMARK  status: ('A' for Active; 'I' for Inactive)
REMARK    1  A    between atoms: C_1  and  O_2
REMARK    2  A    between atoms: O_2  and  C_3
REMARK    3  A    between atoms: C_3  and  C_4
REMARK    4  A    between atoms: C_4  and  N_5
REMARK    5  A    between atoms: N_5  and  C_6
REMARK    6  A    between atoms: N_11  and  C_12
REMARK    7  A    between atoms: C_12  and  C_13
REMARK                            x       y       z     vdW  Elec       q    Type
REMARK                         _______ _______ _______ _____ _____    ______ ____
ROOT
ATOM      1  C   UNL     1       2.262   7.156  19.668  0.00  0.00    +0.000 C 
ENDROOT
BRANCH   1   2
ATOM      2  C   UNL     1       2.849   6.244  18.612  0.00  0.00    +0.000 A 
ATOM      3  C   UNL     1       2.382   4.942  18.392  0.00  0.00    +0.000 A 
ATOM      4  C   UNL     1       3.100   4.046  17.585  0.00  0.00    +0.000 A 
ATOM      5 CL   UNL     1       2.482   2.444  17.394  0.00  0.00    +0.000 Cl
ATOM      6  C   UNL     1       4.306   4.433  16.990  0.00  0.00    +0.000 A 
ATOM      7  C   UNL     1       4.753   5.744  17.168  0.00  0.00    +0.000 A 
ATOM      8  C   UNL     1       4.029   6.644  17.953  0.00  0.00    +0.000 A 
ATOM      9  O   UNL     1       5.926   6.215  16.634  0.00  0.00    +0.000 OA
ATOM     10  C   UNL     1       6.834   5.139  16.378  0.00  0.00    +0.000 C 
ATOM     11  C   UNL     1       6.154   4.027  15.598  0.00  0.00    +0.000 C 
ATOM     12  O   UNL     1       5.026   3.492  16.300  0.00  0.00    +0.000 OA
ENDBRANCH   1   2
BRANCH   1  19
ATOM     13  N   UNL     1       0.672   9.364  21.215  0.00  0.00    +0.000 N 
ATOM     14  C   UNL     1      -0.233   8.288  21.624  0.00  0.00    +0.000 C 
ATOM     15  C   UNL     1       0.983   9.384  19.875  0.00  0.00    +0.000 A 
ATOM     16  N   UNL     1       0.681  10.314  18.987  0.00  0.00    +0.000 NA
ATOM     17  N   UNL     1       1.161   9.881  17.778  0.00  0.00    +0.000 NA
ATOM     18  N   UNL     1       1.789   8.724  17.904  0.00  0.00    +0.000 NA
ATOM     19  N   UNL     1       1.711   8.414  19.217  0.00  0.00    +0.000 N 
BRANCH  13  20
ATOM     20  C   UNL     1       0.315  10.712  21.757  0.00  0.00    +0.000 C 
BRANCH  20  21
ATOM     21  C   UNL     1      -0.806  10.687  22.810  0.00  0.00    +0.000 C 
BRANCH  21  23
ATOM     22  C   UNL     1      -2.570  12.174  23.295  0.00  0.00    +0.000 C 
ATOM     23  O   UNL     1      -1.162  12.010  23.214  0.00  0.00    +0.000 OA
ENDBRANCH  21  23
ENDBRANCH  20  21
ENDBRANCH  13  20
ENDBRANCH   1  19
TORSDOF 5
ENDMDL
MODEL 8
REMARK VINA RESULT:      -6.4      3.552      4.936
REMARK  Name = 
REMARK  7 active torsions:
REMARK  status: ('A' for Active; 'I' for Inactive)
REMARK    1  A    between atoms: C_1  and  O_2
REMARK    2  A    between atoms: O_2  and  C_3
REMARK    3  A    between atoms: C_3  and  C_4
REMARK    4  A    between atoms: C_4  and  N_5
REMARK    5  A    between atoms: N_5  and  C_6
REMARK    6  A    between atoms: N_11  and  C_12
REMARK    7  A    between atoms: C_12  and  C_13
REMARK                            x       y       z     vdW  Elec       q    Type
REMARK                         _______ _______ _______ _____ _____    ______ ____
ROOT
ATOM      1  C   UNL     1       3.032   6.068  19.957  0.00  0.00    +0.000 C 
ENDROOT
BRANCH   1   2
ATOM      2  C   UNL     1       2.199   7.324  20.093  0.00  0.00    +0.000 A 
ATOM      3  C   UNL     1       1.520   7.658  21.271  0.00  0.00    +0.000 A 
ATOM      4  C   UNL     1       0.568   8.688  21.286  0.00  0.00    +0.000 A 
ATOM      5 CL   UNL     1      -0.258   9.015  22.769  0.00  0.00    +0.000 Cl
ATOM      6  C   UNL     1       0.268   9.398  20.119  0.00  0.00    +0.000 A 
ATOM      7  C   UNL     1       0.973   9.100  18.951  0.00  0.00    +0.000 A 
ATOM      8  C   UNL     1       1.937   8.090  18.938  0.00  0.00    +0.000 A 
ATOM      9  O   UNL     1       0.745   9.733  17.755  0.00  0.00    +0.000 OA
ATOM     10  C   UNL     1      -0.577  10.281  17.716  0.00  0.00    +0.000 C 
ATOM     11  C   UNL     1      -0.863  11.101  18.961  0.00  0.00    +0.000 C 
ATOM     12  O   UNL     1      -0.747  10.321  20.157  0.00  0.00    +0.000 OA
ENDBRANCH   1   2
BRANCH   1  19
ATOM     13  N   UNL     1       4.636   5.261  17.392  0.00  0.00    +0.000 N 
ATOM     14  C   UNL     1       4.745   6.696  17.127  0.00  0.00    +0.000 C 
ATOM     15  C   UNL     1       3.374   4.825  17.724  0.00  0.00    +0.000 A 
ATOM     16  N   UNL     1       2.598   3.999  17.046  0.00  0.00    +0.000 NA
ATOM     17  N   UNL     1       1.422   3.895  17.744  0.00  0.00    +0.000 NA
ATOM     18  N   UNL     1       1.468   4.605  18.859  0.00  0.00    +0.000 NA
ATOM     19  N   UNL     1       2.696   5.170  18.875  0.00  0.00    +0.000 N 
BRANCH  13  20
ATOM     20  C   UNL     1       5.312   4.391  16.379  0.00  0.00    +0.000 C 
BRANCH  20  21
ATOM     21  C   UNL     1       6.846   4.382  16.487  0.00  0.00    +0.000 C 
BRANCH  21  23
ATOM     22  C   UNL     1       6.536   4.659  14.166  0.00  0.00    +0.000 C 
ATOM     23  O   UNL     1       7.451   4.760  15.248  0.00  0.00    +0.000 OA
ENDBRANCH  21  23
ENDBRANCH  20  21
ENDBRANCH  13  20
ENDBRANCH   1  19
TORSDOF 5
ENDMDL
MODEL 9
REMARK VINA RESULT:      -6.4      3.436      5.086
REMARK  Name = 
REMARK  7 active torsions:
REMARK  status: ('A' for Active; 'I' for Inactive)
REMARK    1  A    between atoms: C_1  and  O_2
REMARK    2  A    between atoms: O_2  and  C_3
REMARK    3  A    between atoms: C_3  and  C_4
REMARK    4  A    between atoms: C_4  and  N_5
REMARK    5  A    between atoms: N_5  and  C_6
REMARK    6  A    between atoms: N_11  and  C_12
REMARK    7  A    between atoms: C_12  and  C_13
REMARK                            x       y       z     vdW  Elec       q    Type
REMARK                         _______ _______ _______ _____ _____    ______ ____
ROOT
ATOM      1  C   UNL     1       2.784   5.475  18.060  0.00  0.00    +0.000 C 
ENDROOT
BRANCH   1   2
ATOM      2  C   UNL     1       2.492   6.800  18.731  0.00  0.00    +0.000 A 
ATOM      3  C   UNL     1       1.961   6.893  20.023  0.00  0.00    +0.000 A 
ATOM      4  C   UNL     1       1.476   8.114  20.516  0.00  0.00    +0.000 A 
ATOM      5 CL   UNL     1       0.798   8.142  22.105  0.00  0.00    +0.000 Cl
ATOM      6  C   UNL     1       1.504   9.265  19.721  0.00  0.00    +0.000 A 
ATOM      7  C   UNL     1       2.073   9.188  18.448  0.00  0.00    +0.000 A 
ATOM      8  C   UNL     1       2.577   7.979  17.963  0.00  0.00    +0.000 A 
ATOM      9  O   UNL     1       2.139  10.257  17.590  0.00  0.00    +0.000 OA
ATOM     10  C   UNL     1       1.130  11.222  17.906  0.00  0.00    +0.000 C 
ATOM     11  C   UNL     1       1.146  11.561  19.386  0.00  0.00    +0.000 C 
ATOM     12  O   UNL     1       0.921  10.408  20.204  0.00  0.00    +0.000 OA
ENDBRANCH   1   2
BRANCH   1  19
ATOM     13  N   UNL     1       5.819   5.563  17.301  0.00  0.00    +0.000 N 
ATOM     14  C   UNL     1       5.380   5.364  15.919  0.00  0.00    +0.000 C 
ATOM     15  C   UNL     1       5.243   4.719  18.221  0.00  0.00    +0.000 A 
ATOM     16  N   UNL     1       5.836   3.794  18.955  0.00  0.00    +0.000 NA
ATOM     17  N   UNL     1       4.854   3.180  19.691  0.00  0.00    +0.000 NA
ATOM     18  N   UNL     1       3.674   3.731  19.460  0.00  0.00    +0.000 NA
ATOM     19  N   UNL     1       3.907   4.716  18.564  0.00  0.00    +0.000 N 
BRANCH  13  20
ATOM     20  C   UNL     1       7.302   5.692  17.467  0.00  0.00    +0.000 C 
BRANCH  20  21
ATOM     21  C   UNL     1       7.742   6.985  18.175  0.00  0.00    +0.000 C 
BRANCH  21  23
ATOM     22  C   UNL     1       8.187   9.282  17.886  0.00  0.00    +0.000 C 
ATOM     23  O   UNL     1       7.641   8.110  17.299  0.00  0.00    +0.000 OA
ENDBRANCH  21  23
ENDBRANCH  20  21
ENDBRANCH  13  20
ENDBRANCH   1  19
TORSDOF 5
ENDMDL
