MODEL 1
REMARK VINA RESULT:      -8.7      0.000      0.000
REMARK  Name = 
REMARK  4 active torsions:
REMARK  status: ('A' for Active; 'I' for Inactive)
REMARK    1  A    between atoms: C_4  and  C_5
REMARK    2  A    between atoms: C_10  and  N_11
REMARK    3  A    between atoms: N_11  and  C_12
REMARK    4  A    between atoms: C_12  and  N_13
REMARK                            x       y       z     vdW  Elec       q    Type
REMARK                         _______ _______ _______ _____ _____    ______ ____
ROOT
ATOM      1  C   UNL     1       3.485   5.003  17.836  0.00  0.00    +0.000 A 
ATOM      2  C   UNL     1       4.195   4.058  17.002  0.00  0.00    +0.000 A 
ATOM      3  C   UNL     1       5.132   4.426  16.061  0.00  0.00    +0.000 A 
ATOM      4  C   UNL     1       5.307   5.779  15.856  0.00  0.00    +0.000 A 
ATOM      5  C   UNL     1       4.588   6.753  16.604  0.00  0.00    +0.000 A 
ATOM      6  C   UNL     1       3.699   6.447  17.647  0.00  0.00    +0.000 A 
ENDROOT
BRANCH   1  10
ATOM      7  C   UNL     1       1.096   2.969  20.818  0.00  0.00    +0.000 A 
ATOM      8  C   UNL     1       0.733   2.866  19.454  0.00  0.00    +0.000 A 
ATOM      9  C   UNL     1       1.497   3.539  18.503  0.00  0.00    +0.000 A 
ATOM     10  C   UNL     1       2.605   4.365  18.861  0.00  0.00    +0.000 A 
ATOM     11  C   UNL     1       2.837   4.549  20.218  0.00  0.00    +0.000 A 
ATOM     12  C   UNL     1       2.127   3.819  21.169  0.00  0.00    +0.000 A 
ENDBRANCH   1  10
BRANCH   6  13
ATOM     13  N   UNL     1       3.129   7.512  18.435  0.00  0.00    +0.000 N 
ATOM     14  H   UNL     1       3.841   7.910  19.053  0.00  0.00    +0.000 HD
BRANCH  13  15
ATOM     15  C   UNL     1       2.039   8.606  17.991  0.00  0.00    +0.000 C 
BRANCH  15  16
ATOM     16  N   UNL     1       1.120   9.352  19.010  0.00  0.00    +0.000 N 
ATOM     17  N   UNL     1       0.425  10.332  18.378  0.00  0.00    +0.000 NA
ATOM     18  N   UNL     1      -0.260  11.040  19.250  0.00  0.00    +0.000 NA
ATOM     19  C   UNL     1      -0.086  10.518  20.483  0.00  0.00    +0.000 A 
ATOM     20  C   UNL     1      -0.753  10.973  21.656  0.00  0.00    +0.000 A 
ATOM     21  C   UNL     1      -0.608  10.338  22.871  0.00  0.00    +0.000 A 
ATOM     22  C   UNL     1       0.324   9.304  22.937  0.00  0.00    +0.000 A 
ATOM     23  C   UNL     1       1.074   8.858  21.763  0.00  0.00    +0.000 A 
ATOM     24  C   UNL     1       0.820   9.432  20.451  0.00  0.00    +0.000 A 
ENDBRANCH  15  16
ENDBRANCH  13  15
ENDBRANCH   6  13
TORSDOF 4
ENDMDL
MODEL 2
REMARK VINA RESULT:      -8.6      0.560      1.146
REMARK  Name = 
REMARK  4 active torsions:
REMARK  status: ('A' for Active; 'I' for Inactive)
REMARK    1  A    between atoms: C_4  and  C_5
REMARK    2  A    between atoms: C_10  and  N_11
REMARK    3  A    between atoms: N_11  and  C_12
REMARK    4  A    between atoms: C_12  and  N_13
REMARK                            x       y       z     vdW  Elec       q    Type
REMARK                         _______ _______ _______ _____ _____    ______ ____
ROOT
ATOM      1  C   UNL     1       3.679   4.932  17.633  0.00  0.00    +0.000 A 
ATOM      2  C   UNL     1       4.379   3.972  16.809  0.00  0.00    +0.000 A 
ATOM      3  C   UNL     1       5.310   4.321  15.854  0.00  0.00    +0.000 A 
ATOM      4  C   UNL     1       5.487   5.670  15.627  0.00  0.00    +0.000 A 
ATOM      5  C   UNL     1       4.778   6.659  16.365  0.00  0.00    +0.000 A 
ATOM      6  C   UNL     1       3.897   6.372  17.420  0.00  0.00    +0.000 A 
ENDROOT
BRANCH   1  10
ATOM      7  C   UNL     1       0.983   3.320  20.611  0.00  0.00    +0.000 A 
ATOM      8  C   UNL     1       2.088   4.099  21.029  0.00  0.00    +0.000 A 
ATOM      9  C   UNL     1       2.962   4.598  20.065  0.00  0.00    +0.000 A 
ATOM     10  C   UNL     1       2.805   4.313  18.675  0.00  0.00    +0.000 A 
ATOM     11  C   UNL     1       1.791   3.430  18.327  0.00  0.00    +0.000 A 
ATOM     12  C   UNL     1       0.870   2.990  19.275  0.00  0.00    +0.000 A 
ENDBRANCH   1  10
BRANCH   6  13
ATOM     13  N   UNL     1       3.337   7.452  18.195  0.00  0.00    +0.000 N 
ATOM     14  H   UNL     1       4.087   8.017  18.601  0.00  0.00    +0.000 HD
BRANCH  13  15
ATOM     15  C   UNL     1       2.027   8.327  17.882  0.00  0.00    +0.000 C 
BRANCH  15  16
ATOM     16  N   UNL     1       1.392   9.310  18.919  0.00  0.00    +0.000 N 
ATOM     17  N   UNL     1       1.491  10.586  18.469  0.00  0.00    +0.000 NA
ATOM     18  N   UNL     1       1.067  11.427  19.388  0.00  0.00    +0.000 NA
ATOM     19  C   UNL     1       0.620  10.731  20.456  0.00  0.00    +0.000 A 
ATOM     20  C   UNL     1       0.003  11.312  21.600  0.00  0.00    +0.000 A 
ATOM     21  C   UNL     1      -0.520  10.543  22.617  0.00  0.00    +0.000 A 
ATOM     22  C   UNL     1      -0.305   9.169  22.545  0.00  0.00    +0.000 A 
ATOM     23  C   UNL     1       0.385   8.549  21.414  0.00  0.00    +0.000 A 
ATOM     24  C   UNL     1       0.813   9.342  20.273  0.00  0.00    +0.000 A 
ENDBRANCH  15  16
ENDBRANCH  13  15
ENDBRANCH   6  13
TORSDOF 4
ENDMDL
MODEL 3
REMARK VINA RESULT:      -8.4      3.151      8.080
REMARK  Name = 
REMARK  4 active torsions:
REMARK  status: ('A' for Active; 'I' for Inactive)
REMARK    1  A    between atoms: C_4  and  C_5
REMARK    2  A    between atoms: C_10  and  N_11
REMARK    3  A    between atoms: N_11  and  C_12
REMARK    4  A    between atoms: C_12  and  N_13
REMARK                            x       y       z     vdW  Elec       q    Type
REMARK                         _______ _______ _______ _____ _____    ______ ____
ROOT
ATOM      1  C   UNL     1       2.533   5.282  19.874  0.00  0.00    +0.000 A 
ATOM      2  C   UNL     1       1.852   4.826  21.066  0.00  0.00    +0.000 A 
ATOM      3  C   UNL     1       2.054   3.585  21.631  0.00  0.00    +0.000 A 
ATOM      4  C   UNL     1       2.878   2.718  20.945  0.00  0.00    +0.000 A 
ATOM      5  C   UNL     1       3.524   3.092  19.733  0.00  0.00    +0.000 A 
ATOM      6  C   UNL     1       3.444   4.372  19.161  0.00  0.00    +0.000 A 
ENDROOT
BRANCH   1  10
ATOM      7  C   UNL     1       1.452   9.331  18.792  0.00  0.00    +0.000 A 
ATOM      8  C   UNL     1       2.104   8.512  17.839  0.00  0.00    +0.000 A 
ATOM      9  C   UNL     1       2.465   7.216  18.203  0.00  0.00    +0.000 A 
ATOM     10  C   UNL     1       2.240   6.703  19.516  0.00  0.00    +0.000 A 
ATOM     11  C   UNL     1       1.727   7.587  20.456  0.00  0.00    +0.000 A 
ATOM     12  C   UNL     1       1.295   8.857  20.080  0.00  0.00    +0.000 A 
ENDBRANCH   1  10
BRANCH   6  13
ATOM     13  N   UNL     1       4.249   4.689  18.007  0.00  0.00    +0.000 N 
ATOM     14  H   UNL     1       4.871   5.474  18.219  0.00  0.00    +0.000 HD
BRANCH  13  15
ATOM     15  C   UNL     1       4.897   3.681  16.937  0.00  0.00    +0.000 C 
BRANCH  15  16
ATOM     16  N   UNL     1       5.858   4.152  15.799  0.00  0.00    +0.000 N 
ATOM     17  N   UNL     1       6.765   5.033  16.291  0.00  0.00    +0.000 NA
ATOM     18  N   UNL     1       7.500   5.522  15.316  0.00  0.00    +0.000 NA
ATOM     19  C   UNL     1       7.143   4.939  14.152  0.00  0.00    +0.000 A 
ATOM     20  C   UNL     1       7.792   5.157  12.904  0.00  0.00    +0.000 A 
ATOM     21  C   UNL     1       7.444   4.459  11.768  0.00  0.00    +0.000 A 
ATOM     22  C   UNL     1       6.337   3.617  11.857  0.00  0.00    +0.000 A 
ATOM     23  C   UNL     1       5.609   3.423  13.110  0.00  0.00    +0.000 A 
ATOM     24  C   UNL     1       6.060   4.049  14.342  0.00  0.00    +0.000 A 
ENDBRANCH  15  16
ENDBRANCH  13  15
ENDBRANCH   6  13
TORSDOF 4
ENDMDL
MODEL 4
REMARK VINA RESULT:      -8.3      0.981      1.620
REMARK  Name = 
REMARK  4 active torsions:
REMARK  status: ('A' for Active; 'I' for Inactive)
REMARK    1  A    between atoms: C_4  and  C_5
REMARK    2  A    between atoms: C_10  and  N_11
REMARK    3  A    between atoms: N_11  and  C_12
REMARK    4  A    between atoms: C_12  and  N_13
REMARK                            x       y       z     vdW  Elec       q    Type
REMARK                         _______ _______ _______ _____ _____    ______ ____
ROOT
ATOM      1  C   UNL     1       3.730   5.018  17.542  0.00  0.00    +0.000 A 
ATOM      2  C   UNL     1       4.344   3.953  16.782  0.00  0.00    +0.000 A 
ATOM      3  C   UNL     1       5.305   4.162  15.815  0.00  0.00    +0.000 A 
ATOM      4  C   UNL     1       5.600   5.475  15.509  0.00  0.00    +0.000 A 
ATOM      5  C   UNL     1       4.979   6.564  16.182  0.00  0.00    +0.000 A 
ATOM      6  C   UNL     1       4.074   6.419  17.245  0.00  0.00    +0.000 A 
ENDROOT
BRANCH   1  10
ATOM      7  C   UNL     1       1.184   3.437  20.665  0.00  0.00    +0.000 A 
ATOM      8  C   UNL     1       0.788   3.296  19.313  0.00  0.00    +0.000 A 
ATOM      9  C   UNL     1       1.604   3.825  18.316  0.00  0.00    +0.000 A 
ATOM     10  C   UNL     1       2.803   4.542  18.613  0.00  0.00    +0.000 A 
ATOM     11  C   UNL     1       3.076   4.777  19.954  0.00  0.00    +0.000 A 
ATOM     12  C   UNL     1       2.307   4.187  20.954  0.00  0.00    +0.000 A 
ENDBRANCH   1  10
BRANCH   6  13
ATOM     13  N   UNL     1       3.609   7.588  17.951  0.00  0.00    +0.000 N 
ATOM     14  H   UNL     1       4.317   8.325  17.913  0.00  0.00    +0.000 HD
BRANCH  13  15
ATOM     15  C   UNL     1       2.120   8.188  18.012  0.00  0.00    +0.000 C 
BRANCH  15  16
ATOM     16  N   UNL     1       1.476   8.733  19.327  0.00  0.00    +0.000 N 
ATOM     17  N   UNL     1       1.789   7.923  20.369  0.00  0.00    +0.000 NA
ATOM     18  N   UNL     1       1.154   8.310  21.454  0.00  0.00    +0.000 NA
ATOM     19  C   UNL     1       0.442   9.424  21.181  0.00  0.00    +0.000 A 
ATOM     20  C   UNL     1      -0.293  10.172  22.143  0.00  0.00    +0.000 A 
ATOM     21  C   UNL     1      -0.922  11.356  21.823  0.00  0.00    +0.000 A 
ATOM     22  C   UNL     1      -0.920  11.730  20.481  0.00  0.00    +0.000 A 
ATOM     23  C   UNL     1      -0.229  10.947  19.458  0.00  0.00    +0.000 A 
ATOM     24  C   UNL     1       0.553   9.774  19.815  0.00  0.00    +0.000 A 
ENDBRANCH  15  16
ENDBRANCH  13  15
ENDBRANCH   6  13
TORSDOF 4
ENDMDL
MODEL 5
REMARK VINA RESULT:      -8.3      1.384      3.523
REMARK  Name = 
REMARK  4 active torsions:
REMARK  status: ('A' for Active; 'I' for Inactive)
REMARK    1  A    between atoms: C_4  and  C_5
REMARK    2  A    between atoms: C_10  and  N_11
REMARK    3  A    between atoms: N_11  and  C_12
REMARK    4  A    between atoms: C_12  and  N_13
REMARK                            x       y       z     vdW  Elec       q    Type
REMARK                         _______ _______ _______ _____ _____    ______ ____
ROOT
ATOM      1  C   UNL     1       3.083   4.357  18.896  0.00  0.00    +0.000 A 
ATOM      2  C   UNL     1       2.850   3.029  18.376  0.00  0.00    +0.000 A 
ATOM      3  C   UNL     1       1.721   2.287  18.655  0.00  0.00    +0.000 A 
ATOM      4  C   UNL     1       0.834   2.828  19.562  0.00  0.00    +0.000 A 
ATOM      5  C   UNL     1       1.045   4.105  20.154  0.00  0.00    +0.000 A 
ATOM      6  C   UNL     1       2.117   4.954  19.834  0.00  0.00    +0.000 A 
ENDROOT
BRANCH   1  10
ATOM      7  C   UNL     1       6.610   6.440  17.496  0.00  0.00    +0.000 A 
ATOM      8  C   UNL     1       5.453   6.415  16.680  0.00  0.00    +0.000 A 
ATOM      9  C   UNL     1       4.328   5.726  17.131  0.00  0.00    +0.000 A 
ATOM     10  C   UNL     1       4.318   5.008  18.365  0.00  0.00    +0.000 A 
ATOM     11  C   UNL     1       5.518   4.943  19.062  0.00  0.00    +0.000 A 
ATOM     12  C   UNL     1       6.621   5.691  18.657  0.00  0.00    +0.000 A 
ENDBRANCH   1  10
BRANCH   6  13
ATOM     13  N   UNL     1       2.163   6.285  20.386  0.00  0.00    +0.000 N 
ATOM     14  H   UNL     1       2.782   6.305  21.200  0.00  0.00    +0.000 HD
BRANCH  13  15
ATOM     15  C   UNL     1       2.151   7.689  19.605  0.00  0.00    +0.000 C 
BRANCH  15  16
ATOM     16  N   UNL     1       1.243   8.889  20.024  0.00  0.00    +0.000 N 
ATOM     17  N   UNL     1       1.134   9.769  18.998  0.00  0.00    +0.000 NA
ATOM     18  N   UNL     1       0.469  10.837  19.383  0.00  0.00    +0.000 NA
ATOM     19  C   UNL     1       0.067  10.676  20.662  0.00  0.00    +0.000 A 
ATOM     20  C   UNL     1      -0.757  11.593  21.374  0.00  0.00    +0.000 A 
ATOM     21  C   UNL     1      -1.215  11.326  22.647  0.00  0.00    +0.000 A 
ATOM     22  C   UNL     1      -0.731  10.176  23.264  0.00  0.00    +0.000 A 
ATOM     23  C   UNL     1       0.170   9.248  22.582  0.00  0.00    +0.000 A 
ATOM     24  C   UNL     1       0.542   9.453  21.192  0.00  0.00    +0.000 A 
ENDBRANCH  15  16
ENDBRANCH  13  15
ENDBRANCH   6  13
TORSDOF 4
ENDMDL
MODEL 6
REMARK VINA RESULT:      -8.3      1.053      1.938
REMARK  Name = 
REMARK  4 active torsions:
REMARK  status: ('A' for Active; 'I' for Inactive)
REMARK    1  A    between atoms: C_4  and  C_5
REMARK    2  A    between atoms: C_10  and  N_11
REMARK    3  A    between atoms: N_11  and  C_12
REMARK    4  A    between atoms: C_12  and  N_13
REMARK                            x       y       z     vdW  Elec       q    Type
REMARK                         _______ _______ _______ _____ _____    ______ ____
ROOT
ATOM      1  C   UNL     1       3.857   4.960  17.424  0.00  0.00    +0.000 A 
ATOM      2  C   UNL     1       4.485   3.923  16.636  0.00  0.00    +0.000 A 
ATOM      3  C   UNL     1       5.433   4.170  15.666  0.00  0.00    +0.000 A 
ATOM      4  C   UNL     1       5.702   5.494  15.387  0.00  0.00    +0.000 A 
ATOM      5  C   UNL     1       5.067   6.557  16.087  0.00  0.00    +0.000 A 
ATOM      6  C   UNL     1       4.172   6.373  17.154  0.00  0.00    +0.000 A 
ENDROOT
BRANCH   1  10
ATOM      7  C   UNL     1       1.090   3.673  20.493  0.00  0.00    +0.000 A 
ATOM      8  C   UNL     1       2.336   4.225  20.874  0.00  0.00    +0.000 A 
ATOM      9  C   UNL     1       3.229   4.619  19.879  0.00  0.00    +0.000 A 
ATOM     10  C   UNL     1       2.947   4.444  18.491  0.00  0.00    +0.000 A 
ATOM     11  C   UNL     1       1.775   3.771  18.168  0.00  0.00    +0.000 A 
ATOM     12  C   UNL     1       0.846   3.444  19.153  0.00  0.00    +0.000 A 
ENDBRANCH   1  10
BRANCH   6  13
ATOM     13  N   UNL     1       3.692   7.518  17.888  0.00  0.00    +0.000 N 
ATOM     14  H   UNL     1       4.392   8.263  17.873  0.00  0.00    +0.000 HD
BRANCH  13  15
ATOM     15  C   UNL     1       2.196   8.100  17.958  0.00  0.00    +0.000 C 
BRANCH  15  16
ATOM     16  N   UNL     1       1.563   8.666  19.269  0.00  0.00    +0.000 N 
ATOM     17  N   UNL     1       1.844   7.845  20.312  0.00  0.00    +0.000 NA
ATOM     18  N   UNL     1       1.217   8.252  21.394  0.00  0.00    +0.000 NA
ATOM     19  C   UNL     1       0.543   9.389  21.118  0.00  0.00    +0.000 A 
ATOM     20  C   UNL     1      -0.173  10.160  22.077  0.00  0.00    +0.000 A 
ATOM     21  C   UNL     1      -0.761  11.364  21.755  0.00  0.00    +0.000 A 
ATOM     22  C   UNL     1      -0.740  11.738  20.413  0.00  0.00    +0.000 A 
ATOM     23  C   UNL     1      -0.070  10.934  19.392  0.00  0.00    +0.000 A 
ATOM     24  C   UNL     1       0.672   9.736  19.753  0.00  0.00    +0.000 A 
ENDBRANCH  15  16
ENDBRANCH  13  15
ENDBRANCH   6  13
TORSDOF 4
ENDMDL
MODEL 7
REMARK VINA RESULT:      -8.3      1.869      4.059
REMARK  Name = 
REMARK  4 active torsions:
REMARK  status: ('A' for Active; 'I' for Inactive)
REMARK    1  A    between atoms: C_4  and  C_5
REMARK    2  A    between atoms: C_10  and  N_11
REMARK    3  A    between atoms: N_11  and  C_12
REMARK    4  A    between atoms: C_12  and  N_13
REMARK                            x       y       z     vdW  Elec       q    Type
REMARK                         _______ _______ _______ _____ _____    ______ ____
ROOT
ATOM      1  C   UNL     1       3.033   4.698  19.104  0.00  0.00    +0.000 A 
ATOM      2  C   UNL     1       2.778   3.423  18.471  0.00  0.00    +0.000 A 
ATOM      3  C   UNL     1       1.664   2.653  18.729  0.00  0.00    +0.000 A 
ATOM      4  C   UNL     1       0.818   3.100  19.722  0.00  0.00    +0.000 A 
ATOM      5  C   UNL     1       1.054   4.316  20.422  0.00  0.00    +0.000 A 
ATOM      6  C   UNL     1       2.109   5.197  20.136  0.00  0.00    +0.000 A 
ENDROOT
BRANCH   1  10
ATOM      7  C   UNL     1       6.561   6.561  17.424  0.00  0.00    +0.000 A 
ATOM      8  C   UNL     1       6.680   5.797  18.610  0.00  0.00    +0.000 A 
ATOM      9  C   UNL     1       5.536   5.216  19.154  0.00  0.00    +0.000 A 
ATOM     10  C   UNL     1       4.242   5.403  18.582  0.00  0.00    +0.000 A 
ATOM     11  C   UNL     1       4.153   6.274  17.503  0.00  0.00    +0.000 A 
ATOM     12  C   UNL     1       5.300   6.795  16.910  0.00  0.00    +0.000 A 
ENDBRANCH   1  10
BRANCH   6  13
ATOM     13  N   UNL     1       2.178   6.471  20.810  0.00  0.00    +0.000 N 
ATOM     14  H   UNL     1       2.993   6.496  21.428  0.00  0.00    +0.000 HD
BRANCH  13  15
ATOM     15  C   UNL     1       1.818   7.925  20.230  0.00  0.00    +0.000 C 
BRANCH  15  16
ATOM     16  N   UNL     1       1.054   9.006  21.059  0.00  0.00    +0.000 N 
ATOM     17  N   UNL     1       1.355   8.881  22.376  0.00  0.00    +0.000 NA
ATOM     18  N   UNL     1       0.625   9.710  23.091  0.00  0.00    +0.000 NA
ATOM     19  C   UNL     1      -0.144  10.452  22.266  0.00  0.00    +0.000 A 
ATOM     20  C   UNL     1      -0.990  11.517  22.688  0.00  0.00    +0.000 A 
ATOM     21  C   UNL     1      -1.678  12.303  21.789  0.00  0.00    +0.000 A 
ATOM     22  C   UNL     1      -1.615  11.931  20.447  0.00  0.00    +0.000 A 
ATOM     23  C   UNL     1      -0.807  10.801  19.991  0.00  0.00    +0.000 A 
ATOM     24  C   UNL     1       0.031  10.058  20.919  0.00  0.00    +0.000 A 
ENDBRANCH  15  16
ENDBRANCH  13  15
ENDBRANCH   6  13
TORSDOF 4
ENDMDL
MODEL 8
REMARK VINA RESULT:      -8.3      3.599      7.165
REMARK  Name = 
REMARK  4 active torsions:
REMARK  status: ('A' for Active; 'I' for Inactive)
REMARK    1  A    between atoms: C_4  and  C_5
REMARK    2  A    between atoms: C_10  and  N_11
REMARK    3  A    between atoms: N_11  and  C_12
REMARK    4  A    between atoms: C_12  and  N_13
REMARK                            x       y       z     vdW  Elec       q    Type
REMARK                         _______ _______ _______ _____ _____    ______ ____
ROOT
ATOM      1  C   UNL     1       2.690   4.334  18.944  0.00  0.00    +0.000 A 
ATOM      2  C   UNL     1       1.503   3.632  18.510  0.00  0.00    +0.000 A 
ATOM      3  C   UNL     1       1.405   2.258  18.458  0.00  0.00    +0.000 A 
ATOM      4  C   UNL     1       2.550   1.544  18.746  0.00  0.00    +0.000 A 
ATOM      5  C   UNL     1       3.765   2.185  19.118  0.00  0.00    +0.000 A 
ATOM      6  C   UNL     1       3.902   3.572  19.290  0.00  0.00    +0.000 A 
ENDROOT
BRANCH   1  10
ATOM      7  C   UNL     1       1.966   8.597  19.125  0.00  0.00    +0.000 A 
ATOM      8  C   UNL     1       2.553   8.044  17.961  0.00  0.00    +0.000 A 
ATOM      9  C   UNL     1       2.800   6.674  17.919  0.00  0.00    +0.000 A 
ATOM     10  C   UNL     1       2.523   5.816  19.026  0.00  0.00    +0.000 A 
ATOM     11  C   UNL     1       2.080   6.423  20.194  0.00  0.00    +0.000 A 
ATOM     12  C   UNL     1       1.760   7.778  20.218  0.00  0.00    +0.000 A 
ENDBRANCH   1  10
BRANCH   6  13
ATOM     13  N   UNL     1       5.138   4.108  19.804  0.00  0.00    +0.000 N 
ATOM     14  H   UNL     1       5.707   3.357  20.203  0.00  0.00    +0.000 HD
BRANCH  13  15
ATOM     15  C   UNL     1       6.043   5.287  19.194  0.00  0.00    +0.000 C 
BRANCH  15  16
ATOM     16  N   UNL     1       6.494   5.327  17.699  0.00  0.00    +0.000 N 
ATOM     17  N   UNL     1       7.401   6.319  17.513  0.00  0.00    +0.000 NA
ATOM     18  N   UNL     1       7.695   6.434  16.236  0.00  0.00    +0.000 NA
ATOM     19  C   UNL     1       7.034   5.485  15.539  0.00  0.00    +0.000 A 
ATOM     20  C   UNL     1       7.187   5.252  14.143  0.00  0.00    +0.000 A 
ATOM     21  C   UNL     1       6.558   4.205  13.504  0.00  0.00    +0.000 A 
ATOM     22  C   UNL     1       5.658   3.455  14.257  0.00  0.00    +0.000 A 
ATOM     23  C   UNL     1       5.430   3.712  15.678  0.00  0.00    +0.000 A 
ATOM     24  C   UNL     1       6.196   4.724  16.387  0.00  0.00    +0.000 A 
ENDBRANCH  15  16
ENDBRANCH  13  15
ENDBRANCH   6  13
TORSDOF 4
ENDMDL
MODEL 9
REMARK VINA RESULT:      -8.3      1.405      3.688
REMARK  Name = 
REMARK  4 active torsions:
REMARK  status: ('A' for Active; 'I' for Inactive)
REMARK    1  A    between atoms: C_4  and  C_5
REMARK    2  A    between atoms: C_10  and  N_11
REMARK    3  A    between atoms: N_11  and  C_12
REMARK    4  A    between atoms: C_12  and  N_13
REMARK                            x       y       z     vdW  Elec       q    Type
REMARK                         _______ _______ _______ _____ _____    ______ ____
ROOT
ATOM      1  C   UNL     1       3.323   4.453  19.121  0.00  0.00    +0.000 A 
ATOM      2  C   UNL     1       3.199   3.066  18.728  0.00  0.00    +0.000 A 
ATOM      3  C   UNL     1       2.151   2.256  19.110  0.00  0.00    +0.000 A 
ATOM      4  C   UNL     1       1.242   2.796  19.996  0.00  0.00    +0.000 A 
ATOM      5  C   UNL     1       1.350   4.135  20.465  0.00  0.00    +0.000 A 
ATOM      6  C   UNL     1       2.331   5.043  20.035  0.00  0.00    +0.000 A 
ENDROOT
BRANCH   1  10
ATOM      7  C   UNL     1       6.723   6.294  17.176  0.00  0.00    +0.000 A 
ATOM      8  C   UNL     1       6.862   5.813  18.500  0.00  0.00    +0.000 A 
ATOM      9  C   UNL     1       5.757   5.238  19.125  0.00  0.00    +0.000 A 
ATOM     10  C   UNL     1       4.479   5.160  18.492  0.00  0.00    +0.000 A 
ATOM     11  C   UNL     1       4.356   5.771  17.251  0.00  0.00    +0.000 A 
ATOM     12  C   UNL     1       5.472   6.278  16.590  0.00  0.00    +0.000 A 
ENDBRANCH   1  10
BRANCH   6  13
ATOM     13  N   UNL     1       2.269   6.418  20.466  0.00  0.00    +0.000 N 
ATOM     14  H   UNL     1       2.911   6.569  21.247  0.00  0.00    +0.000 HD
BRANCH  13  15
ATOM     15  C   UNL     1       2.097   7.737  19.565  0.00  0.00    +0.000 C 
BRANCH  15  16
ATOM     16  N   UNL     1       1.219   8.955  19.998  0.00  0.00    +0.000 N 
ATOM     17  N   UNL     1       1.162   9.867  18.996  0.00  0.00    +0.000 NA
ATOM     18  N   UNL     1       0.523  10.945  19.396  0.00  0.00    +0.000 NA
ATOM     19  C   UNL     1       0.087  10.761  20.660  0.00  0.00    +0.000 A 
ATOM     20  C   UNL     1      -0.724  11.684  21.380  0.00  0.00    +0.000 A 
ATOM     21  C   UNL     1      -1.220  11.398  22.634  0.00  0.00    +0.000 A 
ATOM     22  C   UNL     1      -0.788  10.215  23.229  0.00  0.00    +0.000 A 
ATOM     23  C   UNL     1       0.099   9.277  22.541  0.00  0.00    +0.000 A 
ATOM     24  C   UNL     1       0.509   9.509  21.165  0.00  0.00    +0.000 A 
ENDBRANCH  15  16
ENDBRANCH  13  15
ENDBRANCH   6  13
TORSDOF 4
ENDMDL
