MODEL 1
REMARK VINA RESULT:      -7.2      0.000      0.000
REMARK  Name = 
REMARK  11 active torsions:
REMARK  status: ('A' for Active; 'I' for Inactive)
REMARK    1  A    between atoms: C_1  and  C_2
REMARK    2  A    between atoms: C_2  and  C_3
REMARK    3  A    between atoms: C_3  and  C_4
REMARK    4  A    between atoms: C_4  and  N_5
REMARK    5  A    between atoms: N_8  and  C_9
REMARK    6  A    between atoms: C_12  and  N_13
REMARK    7  A    between atoms: N_13  and  C_14
REMARK    8  A    between atoms: C_20  and  O_21
REMARK    9  A    between atoms: O_21  and  C_22
REMARK   10  A    between atoms: C_23  and  O_24
REMARK   11  A    between atoms: O_24  and  C_25
REMARK                            x       y       z     vdW  Elec       q    Type
REMARK                         _______ _______ _______ _____ _____    ______ ____
ROOT
ATOM      1  C   UNL     1       1.427   8.185  20.350  0.00  0.00    +0.000 A 
ATOM      2  C   UNL     1       1.166   6.985  21.029  0.00  0.00    +0.000 A 
ATOM      3  C   UNL     1       1.424   5.709  20.461  0.00  0.00    +0.000 A 
ATOM      4  C   UNL     1       1.953   5.577  19.189  0.00  0.00    +0.000 A 
ATOM      5  C   UNL     1       2.289   6.788  18.531  0.00  0.00    +0.000 A 
ATOM      6  C   UNL     1       2.013   8.067  19.090  0.00  0.00    +0.000 A 
ENDROOT
BRANCH   1  10
ATOM      7  N   UNL     1       0.142  11.617  20.968  0.00  0.00    +0.000 N 
ATOM      8  C   UNL     1       0.197  10.375  20.328  0.00  0.00    +0.000 C 
ATOM      9  O   UNL     1      -0.525  10.150  19.357  0.00  0.00    +0.000 OA
ATOM     10  N   UNL     1       1.086   9.475  20.873  0.00  0.00    +0.000 N 
ATOM     11  H   UNL     1       1.027  11.964  21.312  0.00  0.00    +0.000 HD
ATOM     12  H   UNL     1       1.358   9.653  21.847  0.00  0.00    +0.000 HD
BRANCH   7  13
ATOM     13  C   UNL     1      -0.764  12.604  20.361  0.00  0.00    +0.000 C 
BRANCH  13  14
ATOM     14  C   UNL     1      -2.194  12.750  20.910  0.00  0.00    +0.000 C 
BRANCH  14  16
ATOM     15  C   UNL     1      -2.605  11.984  23.297  0.00  0.00    +0.000 C 
ATOM     16  C   UNL     1      -2.284  13.166  22.382  0.00  0.00    +0.000 C 
ENDBRANCH  14  16
ENDBRANCH  13  14
ENDBRANCH   7  13
ENDBRANCH   1  10
BRANCH   4  17
ATOM     17  N   UNL     1       2.291   4.335  18.584  0.00  0.00    +0.000 N 
ATOM     18  H   UNL     1       1.978   3.569  19.190  0.00  0.00    +0.000 HD
BRANCH  17  19
ATOM     19  C   UNL     1       3.478   3.751  18.026  0.00  0.00    +0.000 A 
ATOM     20  N   UNL     1       3.754   2.676  18.780  0.00  0.00    +0.000 NA
ATOM     21  C   UNL     1       4.799   2.855  19.583  0.00  0.00    +0.000 A 
ATOM     22  N   UNL     1       5.582   3.934  19.586  0.00  0.00    +0.000 NA
ATOM     23  C   UNL     1       5.511   4.675  18.474  0.00  0.00    +0.000 A 
ATOM     24  C   UNL     1       6.524   5.580  18.240  0.00  0.00    +0.000 A 
ATOM     25  C   UNL     1       6.882   5.983  16.943  0.00  0.00    +0.000 A 
ATOM     26  C   UNL     1       6.183   5.431  15.863  0.00  0.00    +0.000 A 
ATOM     27  C   UNL     1       4.984   4.727  16.148  0.00  0.00    +0.000 A 
ATOM     28  C   UNL     1       4.554   4.475  17.503  0.00  0.00    +0.000 A 
BRANCH  25  29
ATOM     29  O   UNL     1       7.939   6.827  16.718  0.00  0.00    +0.000 OA
ATOM     30  C   UNL     1       7.992   8.017  17.499  0.00  0.00    +0.000 C 
ENDBRANCH  25  29
BRANCH  26  31
ATOM     31  O   UNL     1       6.553   5.436  14.538  0.00  0.00    +0.000 OA
ATOM     32  C   UNL     1       6.406   4.254  13.747  0.00  0.00    +0.000 C 
ENDBRANCH  26  31
ENDBRANCH  17  19
ENDBRANCH   4  17
TORSDOF 8
ENDMDL
MODEL 2
REMARK VINA RESULT:      -7.2      2.926     10.154
REMARK  Name = 
REMARK  11 active torsions:
REMARK  status: ('A' for Active; 'I' for Inactive)
REMARK    1  A    between atoms: C_1  and  C_2
REMARK    2  A    between atoms: C_2  and  C_3
REMARK    3  A    between atoms: C_3  and  C_4
REMARK    4  A    between atoms: C_4  and  N_5
REMARK    5  A    between atoms: N_8  and  C_9
REMARK    6  A    between atoms: C_12  and  N_13
REMARK    7  A    between atoms: N_13  and  C_14
REMARK    8  A    between atoms: C_20  and  O_21
REMARK    9  A    between atoms: O_21  and  C_22
REMARK   10  A    between atoms: C_23  and  O_24
REMARK   11  A    between atoms: O_24  and  C_25
REMARK                            x       y       z     vdW  Elec       q    Type
REMARK                         _______ _______ _______ _____ _____    ______ ____
ROOT
ATOM      1  C   UNL     1       2.308   7.585  19.444  0.00  0.00    +0.000 A 
ATOM      2  C   UNL     1       2.439   8.239  18.210  0.00  0.00    +0.000 A 
ATOM      3  C   UNL     1       1.663   9.375  17.856  0.00  0.00    +0.000 A 
ATOM      4  C   UNL     1       0.722   9.906  18.722  0.00  0.00    +0.000 A 
ATOM      5  C   UNL     1       0.642   9.294  19.999  0.00  0.00    +0.000 A 
ATOM      6  C   UNL     1       1.403   8.144  20.347  0.00  0.00    +0.000 A 
ENDROOT
BRANCH   1  10
ATOM      7  N   UNL     1       3.867   4.213  19.553  0.00  0.00    +0.000 N 
ATOM      8  C   UNL     1       3.266   5.317  18.941  0.00  0.00    +0.000 C 
ATOM      9  O   UNL     1       3.007   5.291  17.739  0.00  0.00    +0.000 OA
ATOM     10  N   UNL     1       3.016   6.384  19.777  0.00  0.00    +0.000 N 
ATOM     11  H   UNL     1       3.560   4.022  20.496  0.00  0.00    +0.000 HD
ATOM     12  H   UNL     1       3.573   6.413  20.639  0.00  0.00    +0.000 HD
BRANCH   7  13
ATOM     13  C   UNL     1       4.089   3.048  18.681  0.00  0.00    +0.000 C 
BRANCH  13  14
ATOM     14  C   UNL     1       3.120   1.856  18.759  0.00  0.00    +0.000 C 
BRANCH  14  16
ATOM     15  C   UNL     1       0.666   2.517  18.774  0.00  0.00    +0.000 C 
ATOM     16  C   UNL     1       1.870   2.091  19.615  0.00  0.00    +0.000 C 
ENDBRANCH  14  16
ENDBRANCH  13  14
ENDBRANCH   7  13
ENDBRANCH   1  10
BRANCH   4  17
ATOM     17  N   UNL     1      -0.044  11.075  18.456  0.00  0.00    +0.000 N 
ATOM     18  H   UNL     1       0.277  11.496  17.579  0.00  0.00    +0.000 HD
BRANCH  17  19
ATOM     19  C   UNL     1      -0.409  12.255  19.188  0.00  0.00    +0.000 A 
ATOM     20  N   UNL     1       0.722  12.957  19.351  0.00  0.00    +0.000 NA
ATOM     21  C   UNL     1       1.191  12.913  20.595  0.00  0.00    +0.000 A 
ATOM     22  N   UNL     1       0.569  12.335  21.624  0.00  0.00    +0.000 NA
ATOM     23  C   UNL     1      -0.741  12.132  21.438  0.00  0.00    +0.000 A 
ATOM     24  C   UNL     1      -1.515  11.884  22.551  0.00  0.00    +0.000 A 
ATOM     25  C   UNL     1      -2.881  12.207  22.598  0.00  0.00    +0.000 A 
ATOM     26  C   UNL     1      -3.458  12.808  21.473  0.00  0.00    +0.000 A 
ATOM     27  C   UNL     1      -2.710  12.795  20.267  0.00  0.00    +0.000 A 
ATOM     28  C   UNL     1      -1.356  12.296  20.217  0.00  0.00    +0.000 A 
BRANCH  25  29
ATOM     29  O   UNL     1      -3.625  12.023  23.735  0.00  0.00    +0.000 OA
ATOM     30  C   UNL     1      -3.749  13.139  24.613  0.00  0.00    +0.000 C 
ENDBRANCH  25  29
BRANCH  26  31
ATOM     31  O   UNL     1      -4.659  13.475  21.406  0.00  0.00    +0.000 OA
ATOM     32  C   UNL     1      -5.858  12.763  21.086  0.00  0.00    +0.000 C 
ENDBRANCH  26  31
ENDBRANCH  17  19
ENDBRANCH   4  17
TORSDOF 8
ENDMDL
MODEL 3
REMARK VINA RESULT:      -7.2      3.035     10.171
REMARK  Name = 
REMARK  11 active torsions:
REMARK  status: ('A' for Active; 'I' for Inactive)
REMARK    1  A    between atoms: C_1  and  C_2
REMARK    2  A    between atoms: C_2  and  C_3
REMARK    3  A    between atoms: C_3  and  C_4
REMARK    4  A    between atoms: C_4  and  N_5
REMARK    5  A    between atoms: N_8  and  C_9
REMARK    6  A    between atoms: C_12  and  N_13
REMARK    7  A    between atoms: N_13  and  C_14
REMARK    8  A    between atoms: C_20  and  O_21
REMARK    9  A    between atoms: O_21  and  C_22
REMARK   10  A    between atoms: C_23  and  O_24
REMARK   11  A    between atoms: O_24  and  C_25
REMARK                            x       y       z     vdW  Elec       q    Type
REMARK                         _______ _______ _______ _____ _____    ______ ____
ROOT
ATOM      1  C   UNL     1       2.729   7.166  18.659  0.00  0.00    +0.000 A 
ATOM      2  C   UNL     1       2.493   8.161  17.698  0.00  0.00    +0.000 A 
ATOM      3  C   UNL     1       1.685   9.301  17.953  0.00  0.00    +0.000 A 
ATOM      4  C   UNL     1       1.078   9.496  19.182  0.00  0.00    +0.000 A 
ATOM      5  C   UNL     1       1.377   8.533  20.179  0.00  0.00    +0.000 A 
ATOM      6  C   UNL     1       2.168   7.380  19.919  0.00  0.00    +0.000 A 
ENDROOT
BRANCH   1  10
ATOM      7  N   UNL     1       5.181   4.586  17.592  0.00  0.00    +0.000 N 
ATOM      8  C   UNL     1       4.745   5.881  17.888  0.00  0.00    +0.000 C 
ATOM      9  O   UNL     1       5.493   6.841  17.707  0.00  0.00    +0.000 OA
ATOM     10  N   UNL     1       3.463   5.966  18.386  0.00  0.00    +0.000 N 
ATOM     11  H   UNL     1       4.476   3.970  17.212  0.00  0.00    +0.000 HD
ATOM     12  H   UNL     1       3.089   5.104  18.800  0.00  0.00    +0.000 HD
BRANCH   7  13
ATOM     13  C   UNL     1       6.529   4.489  17.008  0.00  0.00    +0.000 C 
BRANCH  13  14
ATOM     14  C   UNL     1       6.691   3.949  15.577  0.00  0.00    +0.000 C 
BRANCH  14  16
ATOM     15  C   UNL     1       5.795   3.770  13.207  0.00  0.00    +0.000 C 
ATOM     16  C   UNL     1       5.609   4.397  14.588  0.00  0.00    +0.000 C 
ENDBRANCH  14  16
ENDBRANCH  13  14
ENDBRANCH   7  13
ENDBRANCH   1  10
BRANCH   4  17
ATOM     17  N   UNL     1       0.308  10.642  19.524  0.00  0.00    +0.000 N 
ATOM     18  H   UNL     1      -0.411  10.374  20.204  0.00  0.00    +0.000 HD
BRANCH  17  19
ATOM     19  C   UNL     1      -0.394  11.664  18.800  0.00  0.00    +0.000 A 
ATOM     20  N   UNL     1      -0.105  12.821  19.413  0.00  0.00    +0.000 NA
ATOM     21  C   UNL     1      -1.120  13.303  20.126  0.00  0.00    +0.000 A 
ATOM     22  N   UNL     1      -2.345  12.777  20.160  0.00  0.00    +0.000 NA
ATOM     23  C   UNL     1      -2.627  11.960  19.138  0.00  0.00    +0.000 A 
ATOM     24  C   UNL     1      -3.952  11.667  18.899  0.00  0.00    +0.000 A 
ATOM     25  C   UNL     1      -4.423  11.331  17.619  0.00  0.00    +0.000 A 
ATOM     26  C   UNL     1      -3.506  11.305  16.562  0.00  0.00    +0.000 A 
ATOM     27  C   UNL     1      -2.126  11.340  16.890  0.00  0.00    +0.000 A 
ATOM     28  C   UNL     1      -1.671  11.519  18.249  0.00  0.00    +0.000 A 
BRANCH  25  29
ATOM     29  O   UNL     1      -5.756  11.113  17.377  0.00  0.00    +0.000 OA
ATOM     30  C   UNL     1      -6.683  11.930  18.086  0.00  0.00    +0.000 C 
ENDBRANCH  25  29
BRANCH  26  31
ATOM     31  O   UNL     1      -3.784  11.310  15.215  0.00  0.00    +0.000 OA
ATOM     32  C   UNL     1      -3.452  10.176  14.409  0.00  0.00    +0.000 C 
ENDBRANCH  26  31
ENDBRANCH  17  19
ENDBRANCH   4  17
TORSDOF 8
ENDMDL
MODEL 4
REMARK VINA RESULT:      -7.1      0.970      1.252
REMARK  Name = 
REMARK  11 active torsions:
REMARK  status: ('A' for Active; 'I' for Inactive)
REMARK    1  A    between atoms: C_1  and  C_2
REMARK    2  A    between atoms: C_2  and  C_3
REMARK    3  A    between atoms: C_3  and  C_4
REMARK    4  A    between atoms: C_4  and  N_5
REMARK    5  A    between atoms: N_8  and  C_9
REMARK    6  A    between atoms: C_12  and  N_13
REMARK    7  A    between atoms: N_13  and  C_14
REMARK    8  A    between atoms: C_20  and  O_21
REMARK    9  A    between atoms: O_21  and  C_22
REMARK   10  A    between atoms: C_23  and  O_24
REMARK   11  A    between atoms: O_24  and  C_25
REMARK                            x       y       z     vdW  Elec       q    Type
REMARK                         _______ _______ _______ _____ _____    ______ ____
ROOT
ATOM      1  C   UNL     1       1.419   8.196  20.418  0.00  0.00    +0.000 A 
ATOM      2  C   UNL     1       1.240   6.991  21.114  0.00  0.00    +0.000 A 
ATOM      3  C   UNL     1       1.501   5.721  20.533  0.00  0.00    +0.000 A 
ATOM      4  C   UNL     1       1.951   5.602  19.229  0.00  0.00    +0.000 A 
ATOM      5  C   UNL     1       2.206   6.820  18.549  0.00  0.00    +0.000 A 
ATOM      6  C   UNL     1       1.926   8.091  19.122  0.00  0.00    +0.000 A 
ENDROOT
BRANCH   1  10
ATOM      7  N   UNL     1      -0.154  11.102  22.119  0.00  0.00    +0.000 N 
ATOM      8  C   UNL     1       0.052   9.746  21.847  0.00  0.00    +0.000 C 
ATOM      9  O   UNL     1      -0.646   8.894  22.395  0.00  0.00    +0.000 OA
ATOM     10  N   UNL     1       1.071   9.476  20.959  0.00  0.00    +0.000 N 
ATOM     11  H   UNL     1      -0.026  11.723  21.332  0.00  0.00    +0.000 HD
ATOM     12  H   UNL     1       1.773  10.218  20.850  0.00  0.00    +0.000 HD
BRANCH   7  13
ATOM     13  C   UNL     1      -1.275  11.403  23.023  0.00  0.00    +0.000 C 
BRANCH  13  14
ATOM     14  C   UNL     1      -1.731  12.862  23.195  0.00  0.00    +0.000 C 
BRANCH  14  16
ATOM     15  C   UNL     1      -0.200  14.780  22.536  0.00  0.00    +0.000 C 
ATOM     16  C   UNL     1      -1.293  13.815  22.077  0.00  0.00    +0.000 C 
ENDBRANCH  14  16
ENDBRANCH  13  14
ENDBRANCH   7  13
ENDBRANCH   1  10
BRANCH   4  17
ATOM     17  N   UNL     1       2.289   4.368  18.606  0.00  0.00    +0.000 N 
ATOM     18  H   UNL     1       1.994   3.594  19.210  0.00  0.00    +0.000 HD
BRANCH  17  19
ATOM     19  C   UNL     1       3.470   3.800  18.021  0.00  0.00    +0.000 A 
ATOM     20  N   UNL     1       3.740   2.692  18.726  0.00  0.00    +0.000 NA
ATOM     21  C   UNL     1       4.788   2.829  19.534  0.00  0.00    +0.000 A 
ATOM     22  N   UNL     1       5.579   3.902  19.582  0.00  0.00    +0.000 NA
ATOM     23  C   UNL     1       5.511   4.690  18.503  0.00  0.00    +0.000 A 
ATOM     24  C   UNL     1       6.530   5.597  18.306  0.00  0.00    +0.000 A 
ATOM     25  C   UNL     1       6.888   6.052  17.026  0.00  0.00    +0.000 A 
ATOM     26  C   UNL     1       6.182   5.552  15.925  0.00  0.00    +0.000 A 
ATOM     27  C   UNL     1       4.980   4.845  16.182  0.00  0.00    +0.000 A 
ATOM     28  C   UNL     1       4.551   4.538  17.526  0.00  0.00    +0.000 A 
BRANCH  25  29
ATOM     29  O   UNL     1       7.950   6.898  16.835  0.00  0.00    +0.000 OA
ATOM     30  C   UNL     1       7.916   8.145  17.523  0.00  0.00    +0.000 C 
ENDBRANCH  25  29
BRANCH  26  31
ATOM     31  O   UNL     1       6.550   5.612  14.601  0.00  0.00    +0.000 OA
ATOM     32  C   UNL     1       6.710   4.408  13.846  0.00  0.00    +0.000 C 
ENDBRANCH  26  31
ENDBRANCH  17  19
ENDBRANCH   4  17
TORSDOF 8
ENDMDL
MODEL 5
REMARK VINA RESULT:      -7.0      3.016     10.254
REMARK  Name = 
REMARK  11 active torsions:
REMARK  status: ('A' for Active; 'I' for Inactive)
REMARK    1  A    between atoms: C_1  and  C_2
REMARK    2  A    between atoms: C_2  and  C_3
REMARK    3  A    between atoms: C_3  and  C_4
REMARK    4  A    between atoms: C_4  and  N_5
REMARK    5  A    between atoms: N_8  and  C_9
REMARK    6  A    between atoms: C_12  and  N_13
REMARK    7  A    between atoms: N_13  and  C_14
REMARK    8  A    between atoms: C_20  and  O_21
REMARK    9  A    between atoms: O_21  and  C_22
REMARK   10  A    between atoms: C_23  and  O_24
REMARK   11  A    between atoms: O_24  and  C_25
REMARK                            x       y       z     vdW  Elec       q    Type
REMARK                         _______ _______ _______ _____ _____    ______ ____
ROOT
ATOM      1  C   UNL     1       2.328   7.752  19.035  0.00  0.00    +0.000 A 
ATOM      2  C   UNL     1       1.516   8.202  20.087  0.00  0.00    +0.000 A 
ATOM      3  C   UNL     1       0.693   9.355  19.984  0.00  0.00    +0.000 A 
ATOM      4  C   UNL     1       0.646  10.109  18.824  0.00  0.00    +0.000 A 
ATOM      5  C   UNL     1       1.406   9.613  17.734  0.00  0.00    +0.000 A 
ATOM      6  C   UNL     1       2.247   8.471  17.842  0.00  0.00    +0.000 A 
ENDROOT
BRANCH   1  10
ATOM      7  N   UNL     1       4.063   4.467  18.945  0.00  0.00    +0.000 N 
ATOM      8  C   UNL     1       3.106   5.411  18.559  0.00  0.00    +0.000 C 
ATOM      9  O   UNL     1       2.242   5.113  17.737  0.00  0.00    +0.000 OA
ATOM     10  N   UNL     1       3.232   6.647  19.156  0.00  0.00    +0.000 N 
ATOM     11  H   UNL     1       4.340   4.505  19.916  0.00  0.00    +0.000 HD
ATOM     12  H   UNL     1       4.161   6.863  19.538  0.00  0.00    +0.000 HD
BRANCH   7  13
ATOM     13  C   UNL     1       3.904   3.128  18.355  0.00  0.00    +0.000 C 
BRANCH  13  14
ATOM     14  C   UNL     1       3.278   2.004  19.199  0.00  0.00    +0.000 C 
BRANCH  14  16
ATOM     15  C   UNL     1       1.268   2.798  20.536  0.00  0.00    +0.000 C 
ATOM     16  C   UNL     1       1.749   2.042  19.297  0.00  0.00    +0.000 C 
ENDBRANCH  14  16
ENDBRANCH  13  14
ENDBRANCH   7  13
ENDBRANCH   1  10
BRANCH   4  17
ATOM     17  N   UNL     1      -0.199  11.237  18.633  0.00  0.00    +0.000 N 
ATOM     18  H   UNL     1       0.032  11.683  17.740  0.00  0.00    +0.000 HD
BRANCH  17  19
ATOM     19  C   UNL     1      -0.569  12.388  19.406  0.00  0.00    +0.000 A 
ATOM     20  N   UNL     1       0.558  13.094  19.587  0.00  0.00    +0.000 NA
ATOM     21  C   UNL     1       1.033  13.011  20.827  0.00  0.00    +0.000 A 
ATOM     22  N   UNL     1       0.420  12.394  21.839  0.00  0.00    +0.000 NA
ATOM     23  C   UNL     1      -0.888  12.187  21.652  0.00  0.00    +0.000 A 
ATOM     24  C   UNL     1      -1.655  11.896  22.760  0.00  0.00    +0.000 A 
ATOM     25  C   UNL     1      -3.023  12.206  22.824  0.00  0.00    +0.000 A 
ATOM     26  C   UNL     1      -3.610  12.839  21.722  0.00  0.00    +0.000 A 
ATOM     27  C   UNL     1      -2.869  12.874  20.513  0.00  0.00    +0.000 A 
ATOM     28  C   UNL     1      -1.511  12.387  20.440  0.00  0.00    +0.000 A 
BRANCH  25  29
ATOM     29  O   UNL     1      -3.761  11.978  23.958  0.00  0.00    +0.000 OA
ATOM     30  C   UNL     1      -3.860  13.051  24.890  0.00  0.00    +0.000 C 
ENDBRANCH  25  29
BRANCH  26  31
ATOM     31  O   UNL     1      -4.817  13.499  21.684  0.00  0.00    +0.000 OA
ATOM     32  C   UNL     1      -4.853  14.922  21.547  0.00  0.00    +0.000 C 
ENDBRANCH  26  31
ENDBRANCH  17  19
ENDBRANCH   4  17
TORSDOF 8
ENDMDL
MODEL 6
REMARK VINA RESULT:      -7.0      0.791      1.354
REMARK  Name = 
REMARK  11 active torsions:
REMARK  status: ('A' for Active; 'I' for Inactive)
REMARK    1  A    between atoms: C_1  and  C_2
REMARK    2  A    between atoms: C_2  and  C_3
REMARK    3  A    between atoms: C_3  and  C_4
REMARK    4  A    between atoms: C_4  and  N_5
REMARK    5  A    between atoms: N_8  and  C_9
REMARK    6  A    between atoms: C_12  and  N_13
REMARK    7  A    between atoms: N_13  and  C_14
REMARK    8  A    between atoms: C_20  and  O_21
REMARK    9  A    between atoms: O_21  and  C_22
REMARK   10  A    between atoms: C_23  and  O_24
REMARK   11  A    between atoms: O_24  and  C_25
REMARK                            x       y       z     vdW  Elec       q    Type
REMARK                         _______ _______ _______ _____ _____    ______ ____
ROOT
ATOM      1  C   UNL     1       1.459   8.078  20.654  0.00  0.00    +0.000 A 
ATOM      2  C   UNL     1       1.190   6.826  21.227  0.00  0.00    +0.000 A 
ATOM      3  C   UNL     1       1.408   5.603  20.537  0.00  0.00    +0.000 A 
ATOM      4  C   UNL     1       1.904   5.580  19.245  0.00  0.00    +0.000 A 
ATOM      5  C   UNL     1       2.249   6.840  18.693  0.00  0.00    +0.000 A 
ATOM      6  C   UNL     1       2.012   8.066  19.374  0.00  0.00    +0.000 A 
ENDROOT
BRANCH   1  10
ATOM      7  N   UNL     1       0.205  11.433  21.647  0.00  0.00    +0.000 N 
ATOM      8  C   UNL     1       0.210  10.243  20.913  0.00  0.00    +0.000 C 
ATOM      9  O   UNL     1      -0.598  10.078  20.001  0.00  0.00    +0.000 OA
ATOM     10  N   UNL     1       1.156   9.320  21.302  0.00  0.00    +0.000 N 
ATOM     11  H   UNL     1       1.115  11.769  21.930  0.00  0.00    +0.000 HD
ATOM     12  H   UNL     1       1.518   9.431  22.257  0.00  0.00    +0.000 HD
BRANCH   7  13
ATOM     13  C   UNL     1      -0.765  12.447  21.204  0.00  0.00    +0.000 C 
BRANCH  13  14
ATOM     14  C   UNL     1      -0.261  13.841  20.794  0.00  0.00    +0.000 C 
BRANCH  14  16
ATOM     15  C   UNL     1      -0.353  13.390  18.296  0.00  0.00    +0.000 C 
ATOM     16  C   UNL     1      -0.753  14.334  19.429  0.00  0.00    +0.000 C 
ENDBRANCH  14  16
ENDBRANCH  13  14
ENDBRANCH   7  13
ENDBRANCH   1  10
BRANCH   4  17
ATOM     17  N   UNL     1       2.202   4.393  18.520  0.00  0.00    +0.000 N 
ATOM     18  H   UNL     1       1.867   3.582  19.050  0.00  0.00    +0.000 HD
BRANCH  17  19
ATOM     19  C   UNL     1       3.369   3.830  17.903  0.00  0.00    +0.000 A 
ATOM     20  N   UNL     1       3.629   2.692  18.563  0.00  0.00    +0.000 NA
ATOM     21  C   UNL     1       4.686   2.782  19.365  0.00  0.00    +0.000 A 
ATOM     22  N   UNL     1       5.494   3.840  19.446  0.00  0.00    +0.000 NA
ATOM     23  C   UNL     1       5.428   4.670  18.399  0.00  0.00    +0.000 A 
ATOM     24  C   UNL     1       6.459   5.568  18.227  0.00  0.00    +0.000 A 
ATOM     25  C   UNL     1       6.812   6.067  16.962  0.00  0.00    +0.000 A 
ATOM     26  C   UNL     1       6.090   5.620  15.850  0.00  0.00    +0.000 A 
ATOM     27  C   UNL     1       4.879   4.921  16.091  0.00  0.00    +0.000 A 
ATOM     28  C   UNL     1       4.457   4.570  17.426  0.00  0.00    +0.000 A 
BRANCH  25  29
ATOM     29  O   UNL     1       7.886   6.903  16.793  0.00  0.00    +0.000 OA
ATOM     30  C   UNL     1       7.913   8.088  17.583  0.00  0.00    +0.000 C 
ENDBRANCH  25  29
BRANCH  26  31
ATOM     31  O   UNL     1       6.447   5.724  14.525  0.00  0.00    +0.000 OA
ATOM     32  C   UNL     1       7.140   4.651  13.882  0.00  0.00    +0.000 C 
ENDBRANCH  26  31
ENDBRANCH  17  19
ENDBRANCH   4  17
TORSDOF 8
ENDMDL
MODEL 7
REMARK VINA RESULT:      -7.0      3.779     10.023
REMARK  Name = 
REMARK  11 active torsions:
REMARK  status: ('A' for Active; 'I' for Inactive)
REMARK    1  A    between atoms: C_1  and  C_2
REMARK    2  A    between atoms: C_2  and  C_3
REMARK    3  A    between atoms: C_3  and  C_4
REMARK    4  A    between atoms: C_4  and  N_5
REMARK    5  A    between atoms: N_8  and  C_9
REMARK    6  A    between atoms: C_12  and  N_13
REMARK    7  A    between atoms: N_13  and  C_14
REMARK    8  A    between atoms: C_20  and  O_21
REMARK    9  A    between atoms: O_21  and  C_22
REMARK   10  A    between atoms: C_23  and  O_24
REMARK   11  A    between atoms: O_24  and  C_25
REMARK                            x       y       z     vdW  Elec       q    Type
REMARK                         _______ _______ _______ _____ _____    ______ ____
ROOT
ATOM      1  C   UNL     1       1.841   7.864  20.262  0.00  0.00    +0.000 A 
ATOM      2  C   UNL     1       1.337   8.330  21.487  0.00  0.00    +0.000 A 
ATOM      3  C   UNL     1       0.686   9.585  21.623  0.00  0.00    +0.000 A 
ATOM      4  C   UNL     1       0.509  10.429  20.540  0.00  0.00    +0.000 A 
ATOM      5  C   UNL     1       0.947   9.928  19.288  0.00  0.00    +0.000 A 
ATOM      6  C   UNL     1       1.618   8.681  19.153  0.00  0.00    +0.000 A 
ENDROOT
BRANCH   1  10
ATOM      7  N   UNL     1       3.077   4.360  20.270  0.00  0.00    +0.000 N 
ATOM      8  C   UNL     1       2.111   5.368  20.346  0.00  0.00    +0.000 C 
ATOM      9  O   UNL     1       0.939   5.082  20.584  0.00  0.00    +0.000 OA
ATOM     10  N   UNL     1       2.581   6.645  20.129  0.00  0.00    +0.000 N 
ATOM     11  H   UNL     1       3.987   4.606  20.636  0.00  0.00    +0.000 HD
ATOM     12  H   UNL     1       3.470   6.710  19.618  0.00  0.00    +0.000 HD
BRANCH   7  13
ATOM     13  C   UNL     1       2.595   2.999  20.555  0.00  0.00    +0.000 C 
BRANCH  13  14
ATOM     14  C   UNL     1       1.629   2.321  19.568  0.00  0.00    +0.000 C 
BRANCH  14  16
ATOM     15  C   UNL     1       3.594   1.667  18.096  0.00  0.00    +0.000 C 
ATOM     16  C   UNL     1       2.156   2.185  18.135  0.00  0.00    +0.000 C 
ENDBRANCH  14  16
ENDBRANCH  13  14
ENDBRANCH   7  13
ENDBRANCH   1  10
BRANCH   4  17
ATOM     17  N   UNL     1      -0.186  11.669  20.593  0.00  0.00    +0.000 N 
ATOM     18  H   UNL     1      -0.854  11.647  21.370  0.00  0.00    +0.000 HD
BRANCH  17  19
ATOM     19  C   UNL     1      -0.908  12.485  19.659  0.00  0.00    +0.000 A 
ATOM     20  N   UNL     1      -0.847  13.738  20.133  0.00  0.00    +0.000 NA
ATOM     21  C   UNL     1      -1.998  14.157  20.652  0.00  0.00    +0.000 A 
ATOM     22  N   UNL     1      -3.143  13.473  20.620  0.00  0.00    +0.000 NA
ATOM     23  C   UNL     1      -3.185  12.504  19.698  0.00  0.00    +0.000 A 
ATOM     24  C   UNL     1      -4.421  12.001  19.353  0.00  0.00    +0.000 A 
ATOM     25  C   UNL     1      -4.675  11.446  18.088  0.00  0.00    +0.000 A 
ATOM     26  C   UNL     1      -3.631  11.419  17.156  0.00  0.00    +0.000 A 
ATOM     27  C   UNL     1      -2.321  11.688  17.629  0.00  0.00    +0.000 A 
ATOM     28  C   UNL     1      -2.074  12.095  18.993  0.00  0.00    +0.000 A 
BRANCH  25  29
ATOM     29  O   UNL     1      -5.927  11.016  17.730  0.00  0.00    +0.000 OA
ATOM     30  C   UNL     1      -6.819  10.671  18.786  0.00  0.00    +0.000 C 
ENDBRANCH  25  29
BRANCH  26  31
ATOM     31  O   UNL     1      -3.729  11.219  15.798  0.00  0.00    +0.000 OA
ATOM     32  C   UNL     1      -3.086  10.096  15.190  0.00  0.00    +0.000 C 
ENDBRANCH  26  31
ENDBRANCH  17  19
ENDBRANCH   4  17
TORSDOF 8
ENDMDL
MODEL 8
REMARK VINA RESULT:      -6.9      2.800     10.171
REMARK  Name = 
REMARK  11 active torsions:
REMARK  status: ('A' for Active; 'I' for Inactive)
REMARK    1  A    between atoms: C_1  and  C_2
REMARK    2  A    between atoms: C_2  and  C_3
REMARK    3  A    between atoms: C_3  and  C_4
REMARK    4  A    between atoms: C_4  and  N_5
REMARK    5  A    between atoms: N_8  and  C_9
REMARK    6  A    between atoms: C_12  and  N_13
REMARK    7  A    between atoms: N_13  and  C_14
REMARK    8  A    between atoms: C_20  and  O_21
REMARK    9  A    between atoms: O_21  and  C_22
REMARK   10  A    between atoms: C_23  and  O_24
REMARK   11  A    between atoms: O_24  and  C_25
REMARK                            x       y       z     vdW  Elec       q    Type
REMARK                         _______ _______ _______ _____ _____    ______ ____
ROOT
ATOM      1  C   UNL     1       3.018   6.748  18.457  0.00  0.00    +0.000 A 
ATOM      2  C   UNL     1       2.457   6.909  19.733  0.00  0.00    +0.000 A 
ATOM      3  C   UNL     1       1.676   8.040  20.093  0.00  0.00    +0.000 A 
ATOM      4  C   UNL     1       1.423   9.060  19.191  0.00  0.00    +0.000 A 
ATOM      5  C   UNL     1       1.924   8.863  17.879  0.00  0.00    +0.000 A 
ATOM      6  C   UNL     1       2.722   7.742  17.523  0.00  0.00    +0.000 A 
ENDROOT
BRANCH   1  10
ATOM      7  N   UNL     1       5.547   4.466  16.973  0.00  0.00    +0.000 N 
ATOM      8  C   UNL     1       4.944   5.701  17.232  0.00  0.00    +0.000 C 
ATOM      9  O   UNL     1       5.375   6.721  16.696  0.00  0.00    +0.000 OA
ATOM     10  N   UNL     1       3.883   5.660  18.110  0.00  0.00    +0.000 N 
ATOM     11  H   UNL     1       4.915   3.679  16.927  0.00  0.00    +0.000 HD
ATOM     12  H   UNL     1       3.849   4.841  18.729  0.00  0.00    +0.000 HD
BRANCH   7  13
ATOM     13  C   UNL     1       6.646   4.489  15.996  0.00  0.00    +0.000 C 
BRANCH  13  14
ATOM     14  C   UNL     1       6.350   4.896  14.542  0.00  0.00    +0.000 C 
BRANCH  14  16
ATOM     15  C   UNL     1       6.827   3.930  12.241  0.00  0.00    +0.000 C 
ATOM     16  C   UNL     1       6.113   3.729  13.577  0.00  0.00    +0.000 C 
ENDBRANCH  14  16
ENDBRANCH  13  14
ENDBRANCH   7  13
ENDBRANCH   1  10
BRANCH   4  17
ATOM     17  N   UNL     1       0.602  10.189  19.466  0.00  0.00    +0.000 N 
ATOM     18  H   UNL     1      -0.187   9.897  20.050  0.00  0.00    +0.000 HD
BRANCH  17  19
ATOM     19  C   UNL     1      -0.024  11.219  18.687  0.00  0.00    +0.000 A 
ATOM     20  N   UNL     1       0.640  12.351  18.962  0.00  0.00    +0.000 NA
ATOM     21  C   UNL     1      -0.048  13.186  19.737  0.00  0.00    +0.000 A 
ATOM     22  N   UNL     1      -1.310  13.001  20.125  0.00  0.00    +0.000 NA
ATOM     23  C   UNL     1      -1.995  12.123  19.384  0.00  0.00    +0.000 A 
ATOM     24  C   UNL     1      -3.370  12.139  19.480  0.00  0.00    +0.000 A 
ATOM     25  C   UNL     1      -4.198  11.724  18.424  0.00  0.00    +0.000 A 
ATOM     26  C   UNL     1      -3.591  11.291  17.239  0.00  0.00    +0.000 A 
ATOM     27  C   UNL     1      -2.197  11.030  17.273  0.00  0.00    +0.000 A 
ATOM     28  C   UNL     1      -1.399  11.312  18.443  0.00  0.00    +0.000 A 
BRANCH  25  29
ATOM     29  O   UNL     1      -5.564  11.813  18.502  0.00  0.00    +0.000 OA
ATOM     30  C   UNL     1      -6.280  10.599  18.709  0.00  0.00    +0.000 C 
ENDBRANCH  25  29
BRANCH  26  31
ATOM     31  O   UNL     1      -4.180  11.141  16.005  0.00  0.00    +0.000 OA
ATOM     32  C   UNL     1      -3.576  10.300  15.018  0.00  0.00    +0.000 C 
ENDBRANCH  26  31
ENDBRANCH  17  19
ENDBRANCH   4  17
TORSDOF 8
ENDMDL
MODEL 9
REMARK VINA RESULT:      -6.8      2.182      9.308
REMARK  Name = 
REMARK  11 active torsions:
REMARK  status: ('A' for Active; 'I' for Inactive)
REMARK    1  A    between atoms: C_1  and  C_2
REMARK    2  A    between atoms: C_2  and  C_3
REMARK    3  A    between atoms: C_3  and  C_4
REMARK    4  A    between atoms: C_4  and  N_5
REMARK    5  A    between atoms: N_8  and  C_9
REMARK    6  A    between atoms: C_12  and  N_13
REMARK    7  A    between atoms: N_13  and  C_14
REMARK    8  A    between atoms: C_20  and  O_21
REMARK    9  A    between atoms: O_21  and  C_22
REMARK   10  A    between atoms: C_23  and  O_24
REMARK   11  A    between atoms: O_24  and  C_25
REMARK                            x       y       z     vdW  Elec       q    Type
REMARK                         _______ _______ _______ _____ _____    ______ ____
ROOT
ATOM      1  C   UNL     1       3.687   5.221  17.760  0.00  0.00    +0.000 A 
ATOM      2  C   UNL     1       3.415   4.696  19.032  0.00  0.00    +0.000 A 
ATOM      3  C   UNL     1       2.796   5.455  20.061  0.00  0.00    +0.000 A 
ATOM      4  C   UNL     1       2.421   6.773  19.861  0.00  0.00    +0.000 A 
ATOM      5  C   UNL     1       2.625   7.281  18.553  0.00  0.00    +0.000 A 
ATOM      6  C   UNL     1       3.263   6.530  17.528  0.00  0.00    +0.000 A 
ENDROOT
BRANCH   1  10
ATOM      7  N   UNL     1       5.740   4.116  14.866  0.00  0.00    +0.000 N 
ATOM      8  C   UNL     1       5.286   5.018  15.832  0.00  0.00    +0.000 C 
ATOM      9  O   UNL     1       5.690   6.180  15.830  0.00  0.00    +0.000 OA
ATOM     10  N   UNL     1       4.395   4.497  16.745  0.00  0.00    +0.000 N 
ATOM     11  H   UNL     1       5.053   3.451  14.540  0.00  0.00    +0.000 HD
ATOM     12  H   UNL     1       4.409   3.475  16.846  0.00  0.00    +0.000 HD
BRANCH   7  13
ATOM     13  C   UNL     1       6.650   4.676  13.854  0.00  0.00    +0.000 C 
BRANCH  13  14
ATOM     14  C   UNL     1       6.817   3.949  12.509  0.00  0.00    +0.000 C 
BRANCH  14  16
ATOM     15  C   UNL     1       4.492   3.479  11.598  0.00  0.00    +0.000 C 
ATOM     16  C   UNL     1       5.758   2.881  12.212  0.00  0.00    +0.000 C 
ENDBRANCH  14  16
ENDBRANCH  13  14
ENDBRANCH   7  13
ENDBRANCH   1  10
BRANCH   4  17
ATOM     17  N   UNL     1       1.744   7.570  20.825  0.00  0.00    +0.000 N 
ATOM     18  H   UNL     1       0.751   7.318  20.833  0.00  0.00    +0.000 HD
BRANCH  17  19
ATOM     19  C   UNL     1       1.654   8.972  21.120  0.00  0.00    +0.000 A 
ATOM     20  N   UNL     1       1.660   9.072  22.458  0.00  0.00    +0.000 NA
ATOM     21  C   UNL     1       0.469   9.379  22.965  0.00  0.00    +0.000 A 
ATOM     22  N   UNL     1      -0.614   9.674  22.244  0.00  0.00    +0.000 NA
ATOM     23  C   UNL     1      -0.358  10.030  20.979  0.00  0.00    +0.000 A 
ATOM     24  C   UNL     1      -1.352  10.686  20.285  0.00  0.00    +0.000 A 
ATOM     25  C   UNL     1      -1.069  11.576  19.237  0.00  0.00    +0.000 A 
ATOM     26  C   UNL     1       0.273  11.801  18.905  0.00  0.00    +0.000 A 
ATOM     27  C   UNL     1       1.240  10.915  19.445  0.00  0.00    +0.000 A 
ATOM     28  C   UNL     1       0.884   9.892  20.401  0.00  0.00    +0.000 A 
BRANCH  25  29
ATOM     29  O   UNL     1      -2.060  12.279  18.601  0.00  0.00    +0.000 OA
ATOM     30  C   UNL     1      -3.354  12.253  19.197  0.00  0.00    +0.000 C 
ENDBRANCH  25  29
BRANCH  26  31
ATOM     31  O   UNL     1       0.785  12.832  18.151  0.00  0.00    +0.000 OA
ATOM     32  C   UNL     1       2.197  13.053  18.104  0.00  0.00    +0.000 C 
ENDBRANCH  26  31
ENDBRANCH  17  19
ENDBRANCH   4  17
TORSDOF 8
ENDMDL
