MODEL 1
REMARK VINA RESULT:      -8.4      0.000      0.000
REMARK  Name = 
REMARK  5 active torsions:
REMARK  status: ('A' for Active; 'I' for Inactive)
REMARK    1  A    between atoms: C_1  and  C_2
REMARK    2  A    between atoms: C_10  and  C_11
REMARK    3  A    between atoms: C_11  and  C_12
REMARK    4  A    between atoms: C_11  and  N_18
REMARK    5  A    between atoms: N_21  and  C_22
REMARK                            x       y       z     vdW  Elec       q    Type
REMARK                         _______ _______ _______ _____ _____    ______ ____
ROOT
ATOM      1  C   UNL     1       2.547   5.684  18.642  0.00  0.00    +0.000 C 
ENDROOT
BRANCH   1  11
ATOM      2  C   UNL     1       2.541   3.097  16.759  0.00  0.00    +0.000 C 
ATOM      3  C   UNL     1       3.684   4.001  17.059  0.00  0.00    +0.000 A 
ATOM      4  N   UNL     1       4.933   3.705  16.588  0.00  0.00    +0.000 N 
ATOM      5  C   UNL     1       5.879   4.406  17.288  0.00  0.00    +0.000 A 
ATOM      6  C   UNL     1       7.271   4.241  17.282  0.00  0.00    +0.000 A 
ATOM      7  C   UNL     1       8.025   5.010  18.162  0.00  0.00    +0.000 A 
ATOM      8  C   UNL     1       7.397   5.916  19.009  0.00  0.00    +0.000 A 
ATOM      9  C   UNL     1       5.997   6.090  18.985  0.00  0.00    +0.000 A 
ATOM     10  C   UNL     1       5.199   5.316  18.106  0.00  0.00    +0.000 A 
ATOM     11  C   UNL     1       3.766   5.116  17.906  0.00  0.00    +0.000 A 
ATOM     12  H   UNL     1       5.152   2.944  15.960  0.00  0.00    +0.000 HD
ENDBRANCH   1  11
BRANCH   1  13
ATOM     13  C   UNL     1       2.133   4.711  19.755  0.00  0.00    +0.000 A 
ATOM     14  C   UNL     1       0.958   3.953  19.633  0.00  0.00    +0.000 A 
ATOM     15  C   UNL     1       0.624   3.042  20.622  0.00  0.00    +0.000 A 
ATOM     16  N   UNL     1       1.383   2.811  21.711  0.00  0.00    +0.000 NA
ATOM     17  C   UNL     1       2.537   3.498  21.803  0.00  0.00    +0.000 A 
ATOM     18  C   UNL     1       2.950   4.421  20.860  0.00  0.00    +0.000 A 
ENDBRANCH   1  13
BRANCH   1  19
ATOM     19  N   UNL     1       2.597   7.096  18.999  0.00  0.00    +0.000 NA
ATOM     20  C   UNL     1       2.870   8.162  18.067  0.00  0.00    +0.000 C 
ATOM     21  C   UNL     1       1.636   9.005  17.749  0.00  0.00    +0.000 C 
ATOM     22  N   UNL     1       0.884   9.483  18.931  0.00  0.00    +0.000 N 
ATOM     23  C   UNL     1       0.868   8.601  20.129  0.00  0.00    +0.000 C 
ATOM     24  C   UNL     1       2.035   7.587  20.246  0.00  0.00    +0.000 C 
BRANCH  22  25
ATOM     25  C   UNL     1      -0.347  10.134  18.638  0.00  0.00    +0.000 A 
ATOM     26  C   UNL     1      -1.178   9.722  17.576  0.00  0.00    +0.000 A 
ATOM     27  C   UNL     1      -2.423  10.313  17.326  0.00  0.00    +0.000 A 
ATOM     28  C   UNL     1      -2.843  11.370  18.112  0.00  0.00    +0.000 A 
ATOM     29  F   UNL     1      -4.041  11.926  17.883  0.00  0.00    +0.000 F 
ATOM     30  C   UNL     1      -2.039  11.850  19.131  0.00  0.00    +0.000 A 
ATOM     31  C   UNL     1      -0.801  11.240  19.383  0.00  0.00    +0.000 A 
ENDBRANCH  22  25
ENDBRANCH   1  19
TORSDOF 4
ENDMDL
MODEL 2
REMARK VINA RESULT:      -8.0      0.127      1.226
REMARK  Name = 
REMARK  5 active torsions:
REMARK  status: ('A' for Active; 'I' for Inactive)
REMARK    1  A    between atoms: C_1  and  C_2
REMARK    2  A    between atoms: C_10  and  C_11
REMARK    3  A    between atoms: C_11  and  C_12
REMARK    4  A    between atoms: C_11  and  N_18
REMARK    5  A    between atoms: N_21  and  C_22
REMARK                            x       y       z     vdW  Elec       q    Type
REMARK                         _______ _______ _______ _____ _____    ______ ____
ROOT
ATOM      1  C   UNL     1       2.556   5.668  18.605  0.00  0.00    +0.000 C 
ENDROOT
BRANCH   1  11
ATOM      2  C   UNL     1       2.562   3.202  16.565  0.00  0.00    +0.000 C 
ATOM      3  C   UNL     1       3.703   4.086  16.927  0.00  0.00    +0.000 A 
ATOM      4  N   UNL     1       4.955   3.821  16.445  0.00  0.00    +0.000 N 
ATOM      5  C   UNL     1       5.896   4.478  17.192  0.00  0.00    +0.000 A 
ATOM      6  C   UNL     1       7.289   4.314  17.182  0.00  0.00    +0.000 A 
ATOM      7  C   UNL     1       8.037   5.027  18.112  0.00  0.00    +0.000 A 
ATOM      8  C   UNL     1       7.404   5.879  19.010  0.00  0.00    +0.000 A 
ATOM      9  C   UNL     1       6.005   6.053  18.989  0.00  0.00    +0.000 A 
ATOM     10  C   UNL     1       5.211   5.335  18.060  0.00  0.00    +0.000 A 
ATOM     11  C   UNL     1       3.779   5.147  17.841  0.00  0.00    +0.000 A 
ATOM     12  H   UNL     1       5.177   3.100  15.772  0.00  0.00    +0.000 HD
ENDBRANCH   1  11
BRANCH   1  13
ATOM     13  C   UNL     1       2.160   4.645  19.679  0.00  0.00    +0.000 A 
ATOM     14  C   UNL     1       2.923   4.514  20.849  0.00  0.00    +0.000 A 
ATOM     15  C   UNL     1       2.524   3.623  21.832  0.00  0.00    +0.000 A 
ATOM     16  N   UNL     1       1.410   2.869  21.748  0.00  0.00    +0.000 NA
ATOM     17  C   UNL     1       0.649   3.033  20.650  0.00  0.00    +0.000 A 
ATOM     18  C   UNL     1       0.968   3.903  19.625  0.00  0.00    +0.000 A 
ENDBRANCH   1  13
BRANCH   1  19
ATOM     19  N   UNL     1       2.589   7.064  19.018  0.00  0.00    +0.000 NA
ATOM     20  C   UNL     1       2.863   8.170  18.133  0.00  0.00    +0.000 C 
ATOM     21  C   UNL     1       1.625   9.013  17.835  0.00  0.00    +0.000 C 
ATOM     22  N   UNL     1       0.854   9.437  19.026  0.00  0.00    +0.000 N 
ATOM     23  C   UNL     1       0.833   8.507  20.188  0.00  0.00    +0.000 C 
ATOM     24  C   UNL     1       2.008   7.499  20.278  0.00  0.00    +0.000 C 
BRANCH  22  25
ATOM     25  C   UNL     1      -0.380  10.088  18.745  0.00  0.00    +0.000 A 
ATOM     26  C   UNL     1      -0.915  11.078  19.594  0.00  0.00    +0.000 A 
ATOM     27  C   UNL     1      -2.092  11.771  19.289  0.00  0.00    +0.000 A 
ATOM     28  C   UNL     1      -2.789  11.450  18.138  0.00  0.00    +0.000 A 
ATOM     29  F   UNL     1      -3.908  12.124  17.836  0.00  0.00    +0.000 F 
ATOM     30  C   UNL     1      -2.337  10.447  17.300  0.00  0.00    +0.000 A 
ATOM     31  C   UNL     1      -1.148   9.769  17.608  0.00  0.00    +0.000 A 
ENDBRANCH  22  25
ENDBRANCH   1  19
TORSDOF 4
ENDMDL
MODEL 3
REMARK VINA RESULT:      -7.5      5.508      8.881
REMARK  Name = 
REMARK  5 active torsions:
REMARK  status: ('A' for Active; 'I' for Inactive)
REMARK    1  A    between atoms: C_1  and  C_2
REMARK    2  A    between atoms: C_10  and  C_11
REMARK    3  A    between atoms: C_11  and  C_12
REMARK    4  A    between atoms: C_11  and  N_18
REMARK    5  A    between atoms: N_21  and  C_22
REMARK                            x       y       z     vdW  Elec       q    Type
REMARK                         _______ _______ _______ _____ _____    ______ ____
ROOT
ATOM      1  C   UNL     1       0.628  12.085  20.392  0.00  0.00    +0.000 C 
ENDROOT
BRANCH   1  11
ATOM      2  C   UNL     1       1.804  10.145  18.136  0.00  0.00    +0.000 C 
ATOM      3  C   UNL     1       0.379  10.342  18.513  0.00  0.00    +0.000 A 
ATOM      4  N   UNL     1      -0.611   9.728  17.796  0.00  0.00    +0.000 N 
ATOM      5  C   UNL     1      -1.814  10.338  18.034  0.00  0.00    +0.000 A 
ATOM      6  C   UNL     1      -3.027  10.173  17.352  0.00  0.00    +0.000 A 
ATOM      7  C   UNL     1      -4.096  10.985  17.715  0.00  0.00    +0.000 A 
ATOM      8  C   UNL     1      -3.947  11.920  18.732  0.00  0.00    +0.000 A 
ATOM      9  C   UNL     1      -2.727  12.055  19.427  0.00  0.00    +0.000 A 
ATOM     10  C   UNL     1      -1.615  11.249  19.078  0.00  0.00    +0.000 A 
ATOM     11  C   UNL     1      -0.204  11.203  19.453  0.00  0.00    +0.000 A 
ATOM     12  H   UNL     1      -0.460   9.059  17.053  0.00  0.00    +0.000 HD
ENDBRANCH   1  11
BRANCH   1  13
ATOM     13  C   UNL     1       0.976  13.396  19.674  0.00  0.00    +0.000 A 
ATOM     14  C   UNL     1      -0.042  14.263  19.248  0.00  0.00    +0.000 A 
ATOM     15  C   UNL     1       0.290  15.467  18.647  0.00  0.00    +0.000 A 
ATOM     16  N   UNL     1       1.558  15.884  18.461  0.00  0.00    +0.000 NA
ATOM     17  C   UNL     1       2.534  15.078  18.918  0.00  0.00    +0.000 A 
ATOM     18  C   UNL     1       2.293  13.864  19.534  0.00  0.00    +0.000 A 
ENDBRANCH   1  13
BRANCH   1  19
ATOM     19  N   UNL     1       0.159  12.201  21.766  0.00  0.00    +0.000 NA
ATOM     20  C   UNL     1      -0.165  13.449  22.414  0.00  0.00    +0.000 C 
ATOM     21  C   UNL     1      -1.666  13.638  22.624  0.00  0.00    +0.000 C 
ATOM     22  N   UNL     1      -2.359  12.492  23.255  0.00  0.00    +0.000 N 
ATOM     23  C   UNL     1      -1.837  11.132  22.952  0.00  0.00    +0.000 C 
ATOM     24  C   UNL     1      -0.358  11.054  22.494  0.00  0.00    +0.000 C 
BRANCH  22  25
ATOM     25  C   UNL     1      -3.777  12.602  23.309  0.00  0.00    +0.000 A 
ATOM     26  C   UNL     1      -4.512  12.251  24.460  0.00  0.00    +0.000 A 
ATOM     27  C   UNL     1      -5.899  12.422  24.545  0.00  0.00    +0.000 A 
ATOM     28  C   UNL     1      -6.591  12.909  23.450  0.00  0.00    +0.000 A 
ATOM     29  F   UNL     1      -7.916  13.088  23.535  0.00  0.00    +0.000 F 
ATOM     30  C   UNL     1      -5.924  13.215  22.277  0.00  0.00    +0.000 A 
ATOM     31  C   UNL     1      -4.532  13.054  22.208  0.00  0.00    +0.000 A 
ENDBRANCH  22  25
ENDBRANCH   1  19
TORSDOF 4
ENDMDL
MODEL 4
REMARK VINA RESULT:      -7.5      3.841      7.671
REMARK  Name = 
REMARK  5 active torsions:
REMARK  status: ('A' for Active; 'I' for Inactive)
REMARK    1  A    between atoms: C_1  and  C_2
REMARK    2  A    between atoms: C_10  and  C_11
REMARK    3  A    between atoms: C_11  and  C_12
REMARK    4  A    between atoms: C_11  and  N_18
REMARK    5  A    between atoms: N_21  and  C_22
REMARK                            x       y       z     vdW  Elec       q    Type
REMARK                         _______ _______ _______ _____ _____    ______ ____
ROOT
ATOM      1  C   UNL     1       4.155   5.409  19.042  0.00  0.00    +0.000 C 
ENDROOT
BRANCH   1  11
ATOM      2  C   UNL     1       2.217   4.644  21.471  0.00  0.00    +0.000 C 
ATOM      3  C   UNL     1       2.342   5.959  20.786  0.00  0.00    +0.000 A 
ATOM      4  N   UNL     1       1.498   6.984  21.114  0.00  0.00    +0.000 N 
ATOM      5  C   UNL     1       1.504   7.933  20.126  0.00  0.00    +0.000 A 
ATOM      6  C   UNL     1       0.637   9.021  19.954  0.00  0.00    +0.000 A 
ATOM      7  C   UNL     1       0.779   9.795  18.808  0.00  0.00    +0.000 A 
ATOM      8  C   UNL     1       1.763   9.487  17.877  0.00  0.00    +0.000 A 
ATOM      9  C   UNL     1       2.646   8.405  18.076  0.00  0.00    +0.000 A 
ATOM     10  C   UNL     1       2.524   7.591  19.230  0.00  0.00    +0.000 A 
ATOM     11  C   UNL     1       3.131   6.346  19.694  0.00  0.00    +0.000 A 
ATOM     12  H   UNL     1       0.822   6.962  21.865  0.00  0.00    +0.000 HD
ENDBRANCH   1  11
BRANCH   1  13
ATOM     13  C   UNL     1       3.423   4.195  18.453  0.00  0.00    +0.000 A 
ATOM     14  C   UNL     1       3.912   2.898  18.670  0.00  0.00    +0.000 A 
ATOM     15  C   UNL     1       3.212   1.809  18.175  0.00  0.00    +0.000 A 
ATOM     16  N   UNL     1       2.049   1.913  17.502  0.00  0.00    +0.000 NA
ATOM     17  C   UNL     1       1.552   3.153  17.340  0.00  0.00    +0.000 A 
ATOM     18  C   UNL     1       2.180   4.293  17.805  0.00  0.00    +0.000 A 
ENDBRANCH   1  13
BRANCH   1  19
ATOM     19  N   UNL     1       5.166   6.031  18.198  0.00  0.00    +0.000 NA
ATOM     20  C   UNL     1       6.538   5.592  18.112  0.00  0.00    +0.000 C 
ATOM     21  C   UNL     1       6.860   4.901  16.788  0.00  0.00    +0.000 C 
ATOM     22  N   UNL     1       6.440   5.642  15.577  0.00  0.00    +0.000 N 
ATOM     23  C   UNL     1       5.207   6.469  15.680  0.00  0.00    +0.000 C 
ATOM     24  C   UNL     1       4.805   6.922  17.107  0.00  0.00    +0.000 C 
BRANCH  22  25
ATOM     25  C   UNL     1       6.597   4.933  14.353  0.00  0.00    +0.000 A 
ATOM     26  C   UNL     1       7.621   5.241  13.435  0.00  0.00    +0.000 A 
ATOM     27  C   UNL     1       7.825   4.503  12.263  0.00  0.00    +0.000 A 
ATOM     28  C   UNL     1       6.967   3.460  11.960  0.00  0.00    +0.000 A 
ATOM     29  F   UNL     1       7.170   2.743  10.846  0.00  0.00    +0.000 F 
ATOM     30  C   UNL     1       5.912   3.153  12.800  0.00  0.00    +0.000 A 
ATOM     31  C   UNL     1       5.726   3.889  13.980  0.00  0.00    +0.000 A 
ENDBRANCH  22  25
ENDBRANCH   1  19
TORSDOF 4
ENDMDL
MODEL 5
REMARK VINA RESULT:      -7.4      2.185      3.329
REMARK  Name = 
REMARK  5 active torsions:
REMARK  status: ('A' for Active; 'I' for Inactive)
REMARK    1  A    between atoms: C_1  and  C_2
REMARK    2  A    between atoms: C_10  and  C_11
REMARK    3  A    between atoms: C_11  and  C_12
REMARK    4  A    between atoms: C_11  and  N_18
REMARK    5  A    between atoms: N_21  and  C_22
REMARK                            x       y       z     vdW  Elec       q    Type
REMARK                         _______ _______ _______ _____ _____    ______ ____
ROOT
ATOM      1  C   UNL     1       3.890   5.190  17.087  0.00  0.00    +0.000 C 
ENDROOT
BRANCH   1  11
ATOM      2  C   UNL     1       6.854   5.973  18.004  0.00  0.00    +0.000 C 
ATOM      3  C   UNL     1       6.452   5.157  16.826  0.00  0.00    +0.000 A 
ATOM      4  N   UNL     1       7.395   4.734  15.931  0.00  0.00    +0.000 N 
ATOM      5  C   UNL     1       6.797   4.367  14.755  0.00  0.00    +0.000 A 
ATOM      6  C   UNL     1       7.398   4.088  13.519  0.00  0.00    +0.000 A 
ATOM      7  C   UNL     1       6.569   3.834  12.431  0.00  0.00    +0.000 A 
ATOM      8  C   UNL     1       5.189   3.854  12.588  0.00  0.00    +0.000 A 
ATOM      9  C   UNL     1       4.599   4.111  13.844  0.00  0.00    +0.000 A 
ATOM     10  C   UNL     1       5.414   4.381  14.971  0.00  0.00    +0.000 A 
ATOM     11  C   UNL     1       5.179   4.818  16.345  0.00  0.00    +0.000 A 
ATOM     12  H   UNL     1       8.393   4.857  16.038  0.00  0.00    +0.000 HD
ENDBRANCH   1  11
BRANCH   1  13
ATOM     13  C   UNL     1       3.267   3.920  17.684  0.00  0.00    +0.000 A 
ATOM     14  C   UNL     1       4.083   2.934  18.258  0.00  0.00    +0.000 A 
ATOM     15  C   UNL     1       3.503   1.817  18.838  0.00  0.00    +0.000 A 
ATOM     16  N   UNL     1       2.172   1.620  18.911  0.00  0.00    +0.000 NA
ATOM     17  C   UNL     1       1.387   2.591  18.408  0.00  0.00    +0.000 A 
ATOM     18  C   UNL     1       1.881   3.739  17.818  0.00  0.00    +0.000 A 
ENDBRANCH   1  13
BRANCH   1  19
ATOM     19  N   UNL     1       3.951   6.355  17.959  0.00  0.00    +0.000 NA
ATOM     20  C   UNL     1       4.167   7.706  17.501  0.00  0.00    +0.000 C 
ATOM     21  C   UNL     1       2.914   8.574  17.592  0.00  0.00    +0.000 C 
ATOM     22  N   UNL     1       2.221   8.539  18.900  0.00  0.00    +0.000 N 
ATOM     23  C   UNL     1       2.274   7.262  19.663  0.00  0.00    +0.000 C 
ATOM     24  C   UNL     1       3.452   6.312  19.325  0.00  0.00    +0.000 C 
BRANCH  22  25
ATOM     25  C   UNL     1       0.973   9.220  18.939  0.00  0.00    +0.000 A 
ATOM     26  C   UNL     1       0.430   9.721  20.140  0.00  0.00    +0.000 A 
ATOM     27  C   UNL     1      -0.764  10.452  20.175  0.00  0.00    +0.000 A 
ATOM     28  C   UNL     1      -1.468  10.658  19.003  0.00  0.00    +0.000 A 
ATOM     29  F   UNL     1      -2.603  11.372  19.033  0.00  0.00    +0.000 F 
ATOM     30  C   UNL     1      -1.008  10.139  17.806  0.00  0.00    +0.000 A 
ATOM     31  C   UNL     1       0.198   9.421  17.780  0.00  0.00    +0.000 A 
ENDBRANCH  22  25
ENDBRANCH   1  19
TORSDOF 4
ENDMDL
MODEL 6
REMARK VINA RESULT:      -7.4      3.458      9.063
REMARK  Name = 
REMARK  5 active torsions:
REMARK  status: ('A' for Active; 'I' for Inactive)
REMARK    1  A    between atoms: C_1  and  C_2
REMARK    2  A    between atoms: C_10  and  C_11
REMARK    3  A    between atoms: C_11  and  C_12
REMARK    4  A    between atoms: C_11  and  N_18
REMARK    5  A    between atoms: N_21  and  C_22
REMARK                            x       y       z     vdW  Elec       q    Type
REMARK                         _______ _______ _______ _____ _____    ______ ____
ROOT
ATOM      1  C   UNL     1      -0.918  11.315  19.673  0.00  0.00    +0.000 C 
ENDROOT
BRANCH   1  11
ATOM      2  C   UNL     1      -3.693  12.686  20.480  0.00  0.00    +0.000 C 
ATOM      3  C   UNL     1      -2.363  13.338  20.340  0.00  0.00    +0.000 A 
ATOM      4  N   UNL     1      -2.250  14.695  20.463  0.00  0.00    +0.000 N 
ATOM      5  C   UNL     1      -1.068  15.121  19.916  0.00  0.00    +0.000 A 
ATOM      6  C   UNL     1      -0.658  16.432  19.635  0.00  0.00    +0.000 A 
ATOM      7  C   UNL     1       0.555  16.610  18.978  0.00  0.00    +0.000 A 
ATOM      8  C   UNL     1       1.325  15.508  18.626  0.00  0.00    +0.000 A 
ATOM      9  C   UNL     1       0.911  14.197  18.939  0.00  0.00    +0.000 A 
ATOM     10  C   UNL     1      -0.323  13.979  19.601  0.00  0.00    +0.000 A 
ATOM     11  C   UNL     1      -1.126  12.809  19.947  0.00  0.00    +0.000 A 
ATOM     12  H   UNL     1      -2.999  15.319  20.733  0.00  0.00    +0.000 HD
ENDBRANCH   1  11
BRANCH   1  13
ATOM     13  C   UNL     1      -1.683  10.925  18.400  0.00  0.00    +0.000 A 
ATOM     14  C   UNL     1      -2.436   9.743  18.359  0.00  0.00    +0.000 A 
ATOM     15  C   UNL     1      -3.162   9.431  17.221  0.00  0.00    +0.000 A 
ATOM     16  N   UNL     1      -3.214  10.219  16.129  0.00  0.00    +0.000 NA
ATOM     17  C   UNL     1      -2.535  11.379  16.187  0.00  0.00    +0.000 A 
ATOM     18  C   UNL     1      -1.790  11.772  17.284  0.00  0.00    +0.000 A 
ENDBRANCH   1  13
BRANCH   1  19
ATOM     19  N   UNL     1       0.444  10.811  19.792  0.00  0.00    +0.000 NA
ATOM     20  C   UNL     1       1.000  10.240  20.994  0.00  0.00    +0.000 C 
ATOM     21  C   UNL     1       1.194   8.728  20.900  0.00  0.00    +0.000 C 
ATOM     22  N   UNL     1       1.905   8.262  19.688  0.00  0.00    +0.000 N 
ATOM     23  C   UNL     1       1.702   9.044  18.439  0.00  0.00    +0.000 C 
ATOM     24  C   UNL     1       1.253  10.517  18.620  0.00  0.00    +0.000 C 
BRANCH  22  25
ATOM     25  C   UNL     1       1.949   6.850  19.522  0.00  0.00    +0.000 A 
ATOM     26  C   UNL     1       1.662   5.962  20.578  0.00  0.00    +0.000 A 
ATOM     27  C   UNL     1       1.636   4.572  20.404  0.00  0.00    +0.000 A 
ATOM     28  C   UNL     1       1.947   4.038  19.166  0.00  0.00    +0.000 A 
ATOM     29  F   UNL     1       1.908   2.709  18.994  0.00  0.00    +0.000 F 
ATOM     30  C   UNL     1       2.291   4.864  18.111  0.00  0.00    +0.000 A 
ATOM     31  C   UNL     1       2.299   6.255  18.293  0.00  0.00    +0.000 A 
ENDBRANCH  22  25
ENDBRANCH   1  19
TORSDOF 4
ENDMDL
MODEL 7
REMARK VINA RESULT:      -7.4      2.121      3.046
REMARK  Name = 
REMARK  5 active torsions:
REMARK  status: ('A' for Active; 'I' for Inactive)
REMARK    1  A    between atoms: C_1  and  C_2
REMARK    2  A    between atoms: C_10  and  C_11
REMARK    3  A    between atoms: C_11  and  C_12
REMARK    4  A    between atoms: C_11  and  N_18
REMARK    5  A    between atoms: N_21  and  C_22
REMARK                            x       y       z     vdW  Elec       q    Type
REMARK                         _______ _______ _______ _____ _____    ______ ____
ROOT
ATOM      1  C   UNL     1       3.830   5.201  17.218  0.00  0.00    +0.000 C 
ENDROOT
BRANCH   1  11
ATOM      2  C   UNL     1       6.799   5.858  18.214  0.00  0.00    +0.000 C 
ATOM      3  C   UNL     1       6.394   5.087  17.007  0.00  0.00    +0.000 A 
ATOM      4  N   UNL     1       7.341   4.657  16.120  0.00  0.00    +0.000 N 
ATOM      5  C   UNL     1       6.756   4.341  14.923  0.00  0.00    +0.000 A 
ATOM      6  C   UNL     1       7.373   4.074  13.692  0.00  0.00    +0.000 A 
ATOM      7  C   UNL     1       6.559   3.877  12.582  0.00  0.00    +0.000 A 
ATOM      8  C   UNL     1       5.177   3.939  12.712  0.00  0.00    +0.000 A 
ATOM      9  C   UNL     1       4.570   4.183  13.962  0.00  0.00    +0.000 A 
ATOM     10  C   UNL     1       5.371   4.396  15.112  0.00  0.00    +0.000 A 
ATOM     11  C   UNL     1       5.121   4.804  16.492  0.00  0.00    +0.000 A 
ATOM     12  H   UNL     1       8.340   4.743  16.250  0.00  0.00    +0.000 HD
ENDBRANCH   1  11
BRANCH   1  13
ATOM     13  C   UNL     1       3.202   3.949  17.847  0.00  0.00    +0.000 A 
ATOM     14  C   UNL     1       1.808   3.826  17.940  0.00  0.00    +0.000 A 
ATOM     15  C   UNL     1       1.255   2.669  18.464  0.00  0.00    +0.000 A 
ATOM     16  N   UNL     1       1.984   1.615  18.880  0.00  0.00    +0.000 NA
ATOM     17  C   UNL     1       3.319   1.710  18.741  0.00  0.00    +0.000 A 
ATOM     18  C   UNL     1       3.954   2.824  18.224  0.00  0.00    +0.000 A 
ENDBRANCH   1  13
BRANCH   1  19
ATOM     19  N   UNL     1       3.890   6.390  18.058  0.00  0.00    +0.000 NA
ATOM     20  C   UNL     1       4.136   7.723  17.566  0.00  0.00    +0.000 C 
ATOM     21  C   UNL     1       2.893   8.610  17.605  0.00  0.00    +0.000 C 
ATOM     22  N   UNL     1       2.174   8.623  18.899  0.00  0.00    +0.000 N 
ATOM     23  C   UNL     1       2.193   7.369  19.699  0.00  0.00    +0.000 C 
ATOM     24  C   UNL     1       3.363   6.393  19.413  0.00  0.00    +0.000 C 
BRANCH  22  25
ATOM     25  C   UNL     1       0.935   9.323  18.893  0.00  0.00    +0.000 A 
ATOM     26  C   UNL     1       0.161   9.464  17.723  0.00  0.00    +0.000 A 
ATOM     27  C   UNL     1      -1.092  10.091  17.725  0.00  0.00    +0.000 A 
ATOM     28  C   UNL     1      -1.577  10.635  18.900  0.00  0.00    +0.000 A 
ATOM     29  F   UNL     1      -2.782  11.221  18.906  0.00  0.00    +0.000 F 
ATOM     30  C   UNL     1      -0.831  10.573  20.063  0.00  0.00    +0.000 A 
ATOM     31  C   UNL     1       0.417   9.929  20.054  0.00  0.00    +0.000 A 
ENDBRANCH  22  25
ENDBRANCH   1  19
TORSDOF 4
ENDMDL
MODEL 8
REMARK VINA RESULT:      -7.3      3.414      9.140
REMARK  Name = 
REMARK  5 active torsions:
REMARK  status: ('A' for Active; 'I' for Inactive)
REMARK    1  A    between atoms: C_1  and  C_2
REMARK    2  A    between atoms: C_10  and  C_11
REMARK    3  A    between atoms: C_11  and  C_12
REMARK    4  A    between atoms: C_11  and  N_18
REMARK    5  A    between atoms: N_21  and  C_22
REMARK                            x       y       z     vdW  Elec       q    Type
REMARK                         _______ _______ _______ _____ _____    ______ ____
ROOT
ATOM      1  C   UNL     1      -0.456  10.685  20.315  0.00  0.00    +0.000 C 
ENDROOT
BRANCH   1  11
ATOM      2  C   UNL     1       1.884  12.858  20.525  0.00  0.00    +0.000 C 
ATOM      3  C   UNL     1       0.495  12.962  21.050  0.00  0.00    +0.000 A 
ATOM      4  N   UNL     1       0.128  14.042  21.804  0.00  0.00    +0.000 N 
ATOM      5  C   UNL     1      -1.015  13.761  22.505  0.00  0.00    +0.000 A 
ATOM      6  C   UNL     1      -1.603  14.492  23.546  0.00  0.00    +0.000 A 
ATOM      7  C   UNL     1      -2.717  13.950  24.179  0.00  0.00    +0.000 A 
ATOM      8  C   UNL     1      -3.220  12.721  23.769  0.00  0.00    +0.000 A 
ATOM      9  C   UNL     1      -2.633  12.009  22.702  0.00  0.00    +0.000 A 
ATOM     10  C   UNL     1      -1.492  12.530  22.041  0.00  0.00    +0.000 A 
ATOM     11  C   UNL     1      -0.557  12.036  21.034  0.00  0.00    +0.000 A 
ATOM     12  H   UNL     1       0.707  14.853  21.979  0.00  0.00    +0.000 HD
ENDBRANCH   1  11
BRANCH   1  13
ATOM     13  C   UNL     1      -1.168  10.782  18.958  0.00  0.00    +0.000 A 
ATOM     14  C   UNL     1      -1.921   9.702  18.474  0.00  0.00    +0.000 A 
ATOM     15  C   UNL     1      -2.600   9.824  17.272  0.00  0.00    +0.000 A 
ATOM     16  N   UNL     1      -2.604  10.947  16.527  0.00  0.00    +0.000 NA
ATOM     17  C   UNL     1      -1.925  12.001  17.017  0.00  0.00    +0.000 A 
ATOM     18  C   UNL     1      -1.227  11.970  18.210  0.00  0.00    +0.000 A 
ENDBRANCH   1  13
BRANCH   1  19
ATOM     19  N   UNL     1       0.849  10.038  20.319  0.00  0.00    +0.000 NA
ATOM     20  C   UNL     1       1.381   9.283  21.428  0.00  0.00    +0.000 C 
ATOM     21  C   UNL     1       1.412   7.779  21.164  0.00  0.00    +0.000 C 
ATOM     22  N   UNL     1       2.030   7.382  19.879  0.00  0.00    +0.000 N 
ATOM     23  C   UNL     1       1.869   8.314  18.731  0.00  0.00    +0.000 C 
ATOM     24  C   UNL     1       1.583   9.796  19.088  0.00  0.00    +0.000 C 
BRANCH  22  25
ATOM     25  C   UNL     1       1.921   5.999  19.561  0.00  0.00    +0.000 A 
ATOM     26  C   UNL     1       1.508   5.042  20.510  0.00  0.00    +0.000 A 
ATOM     27  C   UNL     1       1.332   3.691  20.185  0.00  0.00    +0.000 A 
ATOM     28  C   UNL     1       1.615   3.260  18.901  0.00  0.00    +0.000 A 
ATOM     29  F   UNL     1       1.432   1.971  18.585  0.00  0.00    +0.000 F 
ATOM     30  C   UNL     1       2.078   4.149  17.948  0.00  0.00    +0.000 A 
ATOM     31  C   UNL     1       2.236   5.503  18.280  0.00  0.00    +0.000 A 
ENDBRANCH  22  25
ENDBRANCH   1  19
TORSDOF 4
ENDMDL
MODEL 9
REMARK VINA RESULT:      -7.2      1.420      2.152
REMARK  Name = 
REMARK  5 active torsions:
REMARK  status: ('A' for Active; 'I' for Inactive)
REMARK    1  A    between atoms: C_1  and  C_2
REMARK    2  A    between atoms: C_10  and  C_11
REMARK    3  A    between atoms: C_11  and  C_12
REMARK    4  A    between atoms: C_11  and  N_18
REMARK    5  A    between atoms: N_21  and  C_22
REMARK                            x       y       z     vdW  Elec       q    Type
REMARK                         _______ _______ _______ _____ _____    ______ ____
ROOT
ATOM      1  C   UNL     1       3.038   5.541  17.909  0.00  0.00    +0.000 C 
ENDROOT
BRANCH   1  11
ATOM      2  C   UNL     1       5.632   5.278  19.764  0.00  0.00    +0.000 C 
ATOM      3  C   UNL     1       5.455   4.783  18.372  0.00  0.00    +0.000 A 
ATOM      4  N   UNL     1       6.510   4.223  17.705  0.00  0.00    +0.000 N 
ATOM      5  C   UNL     1       6.262   4.211  16.358  0.00  0.00    +0.000 A 
ATOM      6  C   UNL     1       7.150   3.934  15.309  0.00  0.00    +0.000 A 
ATOM      7  C   UNL     1       6.690   4.085  14.005  0.00  0.00    +0.000 A 
ATOM      8  C   UNL     1       5.382   4.493  13.771  0.00  0.00    +0.000 A 
ATOM      9  C   UNL     1       4.492   4.743  14.837  0.00  0.00    +0.000 A 
ATOM     10  C   UNL     1       4.931   4.605  16.178  0.00  0.00    +0.000 A 
ATOM     11  C   UNL     1       4.370   4.905  17.493  0.00  0.00    +0.000 A 
ATOM     12  H   UNL     1       7.416   4.029  18.110  0.00  0.00    +0.000 HD
ENDBRANCH   1  11
BRANCH   1  13
ATOM     13  C   UNL     1       2.206   4.507  18.681  0.00  0.00    +0.000 A 
ATOM     14  C   UNL     1       1.573   3.456  18.001  0.00  0.00    +0.000 A 
ATOM     15  C   UNL     1       0.868   2.501  18.717  0.00  0.00    +0.000 A 
ATOM     16  N   UNL     1       0.767   2.501  20.061  0.00  0.00    +0.000 NA
ATOM     17  C   UNL     1       1.418   3.478  20.718  0.00  0.00    +0.000 A 
ATOM     18  C   UNL     1       2.149   4.466  20.085  0.00  0.00    +0.000 A 
ENDBRANCH   1  13
BRANCH   1  19
ATOM     19  N   UNL     1       3.102   6.880  18.479  0.00  0.00    +0.000 NA
ATOM     20  C   UNL     1       3.337   8.081  17.715  0.00  0.00    +0.000 C 
ATOM     21  C   UNL     1       2.092   8.954  17.582  0.00  0.00    +0.000 C 
ATOM     22  N   UNL     1       1.387   9.237  18.852  0.00  0.00    +0.000 N 
ATOM     23  C   UNL     1       1.419   8.179  19.898  0.00  0.00    +0.000 C 
ATOM     24  C   UNL     1       2.590   7.167  19.809  0.00  0.00    +0.000 C 
BRANCH  22  25
ATOM     25  C   UNL     1       0.145   9.918  18.713  0.00  0.00    +0.000 A 
ATOM     26  C   UNL     1      -0.719   9.686  17.623  0.00  0.00    +0.000 A 
ATOM     27  C   UNL     1      -1.973  10.300  17.516  0.00  0.00    +0.000 A 
ATOM     28  C   UNL     1      -2.370  11.204  18.484  0.00  0.00    +0.000 A 
ATOM     29  F   UNL     1      -3.577  11.781  18.391  0.00  0.00    +0.000 F 
ATOM     30  C   UNL     1      -1.536  11.510  19.544  0.00  0.00    +0.000 A 
ATOM     31  C   UNL     1      -0.288  10.877  19.650  0.00  0.00    +0.000 A 
ENDBRANCH  22  25
ENDBRANCH   1  19
TORSDOF 4
ENDMDL
