MODEL 1
REMARK VINA RESULT:      -7.5      0.000      0.000
REMARK  Name = 
REMARK  4 active torsions:
REMARK  status: ('A' for Active; 'I' for Inactive)
REMARK    1  A    between atoms: C_8  and  C_9
REMARK    2  A    between atoms: C_9  and  C_10
REMARK    3  A    between atoms: C_10  and  C_11
REMARK    4  A    between atoms: C_11  and  C_12
REMARK                            x       y       z     vdW  Elec       q    Type
REMARK                         _______ _______ _______ _____ _____    ______ ____
ROOT
ATOM      1  C   UNL     1       5.067   5.609  18.610  0.00  0.00    +0.000 C 
ENDROOT
BRANCH   1   9
ATOM      2  O   UNL     1       8.027   5.081  18.989  0.00  0.00    +0.000 OA
ATOM      3  C   UNL     1       7.346   4.731  18.037  0.00  0.00    +0.000 C 
ATOM      4  O   UNL     1       7.839   4.585  16.772  0.00  0.00    +0.000 OA
ATOM      5  C   UNL     1       6.756   4.274  15.957  0.00  0.00    +0.000 C 
ATOM      6  C   UNL     1       6.874   4.344  14.625  0.00  0.00    +0.000 C 
ATOM      7 BR   UNL     1       5.520   4.052  13.393  0.00  0.00    +0.000 Br
ATOM      8  C   UNL     1       5.527   3.955  16.721  0.00  0.00    +0.000 C 
ATOM      9  C   UNL     1       5.877   4.404  18.121  0.00  0.00    +0.000 C 
ENDBRANCH   1   9
BRANCH   1  10
ATOM     10  C   UNL     1       4.106   6.191  17.565  0.00  0.00    +0.000 C 
BRANCH  10  11
ATOM     11  C   UNL     1       2.718   6.516  18.126  0.00  0.00    +0.000 C 
BRANCH  11  12
ATOM     12  C   UNL     1       2.075   5.288  18.717  0.00  0.00    +0.000 A 
ATOM     13  C   UNL     1       1.837   5.208  20.096  0.00  0.00    +0.000 A 
ATOM     14  C   UNL     1       1.285   4.053  20.650  0.00  0.00    +0.000 A 
ATOM     15  C   UNL     1       0.966   2.972  19.830  0.00  0.00    +0.000 A 
ATOM     16  C   UNL     1       1.197   3.045  18.456  0.00  0.00    +0.000 A 
ATOM     17  C   UNL     1       1.751   4.199  17.902  0.00  0.00    +0.000 A 
ENDBRANCH  11  12
ENDBRANCH  10  11
ENDBRANCH   1  10
TORSDOF 4
ENDMDL
MODEL 2
REMARK VINA RESULT:      -7.5      1.053      1.234
REMARK  Name = 
REMARK  4 active torsions:
REMARK  status: ('A' for Active; 'I' for Inactive)
REMARK    1  A    between atoms: C_8  and  C_9
REMARK    2  A    between atoms: C_9  and  C_10
REMARK    3  A    between atoms: C_10  and  C_11
REMARK    4  A    between atoms: C_11  and  C_12
REMARK                            x       y       z     vdW  Elec       q    Type
REMARK                         _______ _______ _______ _____ _____    ______ ____
ROOT
ATOM      1  C   UNL     1       4.668   6.146  16.704  0.00  0.00    +0.000 C 
ENDROOT
BRANCH   1   9
ATOM      2  O   UNL     1       7.648   5.911  17.202  0.00  0.00    +0.000 OA
ATOM      3  C   UNL     1       7.000   5.276  16.385  0.00  0.00    +0.000 C 
ATOM      4  O   UNL     1       7.516   4.817  15.207  0.00  0.00    +0.000 OA
ATOM      5  C   UNL     1       6.462   4.233  14.512  0.00  0.00    +0.000 C 
ATOM      6  C   UNL     1       6.591   3.943  13.212  0.00  0.00    +0.000 C 
ATOM      7 BR   UNL     1       5.271   3.247  12.112  0.00  0.00    +0.000 Br
ATOM      8  C   UNL     1       5.242   4.066  15.339  0.00  0.00    +0.000 C 
ATOM      9  C   UNL     1       5.550   4.901  16.561  0.00  0.00    +0.000 C 
ENDBRANCH   1   9
BRANCH   1  10
ATOM     10  C   UNL     1       4.121   6.374  18.119  0.00  0.00    +0.000 C 
BRANCH  10  11
ATOM     11  C   UNL     1       2.592   6.451  18.177  0.00  0.00    +0.000 C 
BRANCH  11  12
ATOM     12  C   UNL     1       2.012   5.195  18.774  0.00  0.00    +0.000 A 
ATOM     13  C   UNL     1       1.830   5.087  20.160  0.00  0.00    +0.000 A 
ATOM     14  C   UNL     1       1.337   3.908  20.716  0.00  0.00    +0.000 A 
ATOM     15  C   UNL     1       1.022   2.829  19.893  0.00  0.00    +0.000 A 
ATOM     16  C   UNL     1       1.197   2.929  18.513  0.00  0.00    +0.000 A 
ATOM     17  C   UNL     1       1.692   4.107  17.955  0.00  0.00    +0.000 A 
ENDBRANCH  11  12
ENDBRANCH  10  11
ENDBRANCH   1  10
TORSDOF 4
ENDMDL
MODEL 3
REMARK VINA RESULT:      -7.4      0.386      1.233
REMARK  Name = 
REMARK  4 active torsions:
REMARK  status: ('A' for Active; 'I' for Inactive)
REMARK    1  A    between atoms: C_8  and  C_9
REMARK    2  A    between atoms: C_9  and  C_10
REMARK    3  A    between atoms: C_10  and  C_11
REMARK    4  A    between atoms: C_11  and  C_12
REMARK                            x       y       z     vdW  Elec       q    Type
REMARK                         _______ _______ _______ _____ _____    ______ ____
ROOT
ATOM      1  C   UNL     1       4.891   5.575  19.001  0.00  0.00    +0.000 C 
ENDROOT
BRANCH   1   9
ATOM      2  O   UNL     1       7.877   5.356  19.473  0.00  0.00    +0.000 OA
ATOM      3  C   UNL     1       7.268   4.952  18.494  0.00  0.00    +0.000 C 
ATOM      4  O   UNL     1       7.814   4.879  17.245  0.00  0.00    +0.000 OA
ATOM      5  C   UNL     1       6.797   4.468  16.390  0.00  0.00    +0.000 C 
ATOM      6  C   UNL     1       6.950   4.572  15.064  0.00  0.00    +0.000 C 
ATOM      7 BR   UNL     1       5.675   4.158  13.783  0.00  0.00    +0.000 Br
ATOM      8  C   UNL     1       5.585   4.009  17.108  0.00  0.00    +0.000 C 
ATOM      9  C   UNL     1       5.840   4.470  18.524  0.00  0.00    +0.000 C 
ENDBRANCH   1   9
BRANCH   1  10
ATOM     10  C   UNL     1       4.065   6.224  17.883  0.00  0.00    +0.000 C 
BRANCH  10  11
ATOM     11  C   UNL     1       2.581   6.378  18.231  0.00  0.00    +0.000 C 
BRANCH  11  12
ATOM     12  C   UNL     1       2.024   5.097  18.796  0.00  0.00    +0.000 A 
ATOM     13  C   UNL     1       1.755   4.009  17.953  0.00  0.00    +0.000 A 
ATOM     14  C   UNL     1       1.196   2.841  18.468  0.00  0.00    +0.000 A 
ATOM     15  C   UNL     1       0.902   2.750  19.827  0.00  0.00    +0.000 A 
ATOM     16  C   UNL     1       1.169   3.827  20.673  0.00  0.00    +0.000 A 
ATOM     17  C   UNL     1       1.726   4.997  20.158  0.00  0.00    +0.000 A 
ENDBRANCH  11  12
ENDBRANCH  10  11
ENDBRANCH   1  10
TORSDOF 4
ENDMDL
MODEL 4
REMARK VINA RESULT:      -7.1      0.843      1.465
REMARK  Name = 
REMARK  4 active torsions:
REMARK  status: ('A' for Active; 'I' for Inactive)
REMARK    1  A    between atoms: C_8  and  C_9
REMARK    2  A    between atoms: C_9  and  C_10
REMARK    3  A    between atoms: C_10  and  C_11
REMARK    4  A    between atoms: C_11  and  C_12
REMARK                            x       y       z     vdW  Elec       q    Type
REMARK                         _______ _______ _______ _____ _____    ______ ____
ROOT
ATOM      1  C   UNL     1       4.804   6.917  17.383  0.00  0.00    +0.000 C 
ENDROOT
BRANCH   1   9
ATOM      2  O   UNL     1       7.606   6.247  18.326  0.00  0.00    +0.000 OA
ATOM      3  C   UNL     1       6.985   5.678  17.441  0.00  0.00    +0.000 C 
ATOM      4  O   UNL     1       7.581   5.081  16.367  0.00  0.00    +0.000 OA
ATOM      5  C   UNL     1       6.556   4.632  15.542  0.00  0.00    +0.000 C 
ATOM      6  C   UNL     1       6.820   4.255  14.285  0.00  0.00    +0.000 C 
ATOM      7 BR   UNL     1       5.573   3.715  13.023  0.00  0.00    +0.000 Br
ATOM      8  C   UNL     1       5.221   4.703  16.183  0.00  0.00    +0.000 C 
ATOM      9  C   UNL     1       5.484   5.544  17.411  0.00  0.00    +0.000 C 
ENDBRANCH   1   9
BRANCH   1  10
ATOM     10  C   UNL     1       3.296   6.882  17.660  0.00  0.00    +0.000 C 
BRANCH  10  11
ATOM     11  C   UNL     1       2.951   6.603  19.126  0.00  0.00    +0.000 C 
BRANCH  11  12
ATOM     12  C   UNL     1       2.258   5.274  19.273  0.00  0.00    +0.000 A 
ATOM     13  C   UNL     1       1.974   4.493  18.142  0.00  0.00    +0.000 A 
ATOM     14  C   UNL     1       1.291   3.285  18.273  0.00  0.00    +0.000 A 
ATOM     15  C   UNL     1       0.886   2.848  19.533  0.00  0.00    +0.000 A 
ATOM     16  C   UNL     1       1.166   3.617  20.662  0.00  0.00    +0.000 A 
ATOM     17  C   UNL     1       1.848   4.826  20.533  0.00  0.00    +0.000 A 
ENDBRANCH  11  12
ENDBRANCH  10  11
ENDBRANCH   1  10
TORSDOF 4
ENDMDL
MODEL 5
REMARK VINA RESULT:      -7.1      1.546      2.020
REMARK  Name = 
REMARK  4 active torsions:
REMARK  status: ('A' for Active; 'I' for Inactive)
REMARK    1  A    between atoms: C_8  and  C_9
REMARK    2  A    between atoms: C_9  and  C_10
REMARK    3  A    between atoms: C_10  and  C_11
REMARK    4  A    between atoms: C_11  and  C_12
REMARK                            x       y       z     vdW  Elec       q    Type
REMARK                         _______ _______ _______ _____ _____    ______ ____
ROOT
ATOM      1  C   UNL     1       4.648   5.768  16.746  0.00  0.00    +0.000 C 
ENDROOT
BRANCH   1   9
ATOM      2  O   UNL     1       7.589   6.496  16.824  0.00  0.00    +0.000 OA
ATOM      3  C   UNL     1       7.069   5.661  16.098  0.00  0.00    +0.000 C 
ATOM      4  O   UNL     1       7.540   5.346  14.856  0.00  0.00    +0.000 OA
ATOM      5  C   UNL     1       6.640   4.438  14.308  0.00  0.00    +0.000 C 
ATOM      6  C   UNL     1       6.678   4.158  13.000  0.00  0.00    +0.000 C 
ATOM      7 BR   UNL     1       5.508   3.046  12.088  0.00  0.00    +0.000 Br
ATOM      8  C   UNL     1       5.658   3.926  15.295  0.00  0.00    +0.000 C 
ATOM      9  C   UNL     1       5.849   4.857  16.470  0.00  0.00    +0.000 C 
ENDBRANCH   1   9
BRANCH   1  10
ATOM     10  C   UNL     1       4.461   6.137  18.223  0.00  0.00    +0.000 C 
BRANCH  10  11
ATOM     11  C   UNL     1       4.741   4.977  19.183  0.00  0.00    +0.000 C 
BRANCH  11  12
ATOM     12  C   UNL     1       3.458   4.348  19.658  0.00  0.00    +0.000 A 
ATOM     13  C   UNL     1       3.273   2.961  19.566  0.00  0.00    +0.000 A 
ATOM     14  C   UNL     1       2.067   2.383  19.962  0.00  0.00    +0.000 A 
ATOM     15  C   UNL     1       1.039   3.186  20.451  0.00  0.00    +0.000 A 
ATOM     16  C   UNL     1       1.215   4.566  20.547  0.00  0.00    +0.000 A 
ATOM     17  C   UNL     1       2.420   5.145  20.151  0.00  0.00    +0.000 A 
ENDBRANCH  11  12
ENDBRANCH  10  11
ENDBRANCH   1  10
TORSDOF 4
ENDMDL
MODEL 6
REMARK VINA RESULT:      -7.1      1.458      1.771
REMARK  Name = 
REMARK  4 active torsions:
REMARK  status: ('A' for Active; 'I' for Inactive)
REMARK    1  A    between atoms: C_8  and  C_9
REMARK    2  A    between atoms: C_9  and  C_10
REMARK    3  A    between atoms: C_10  and  C_11
REMARK    4  A    between atoms: C_11  and  C_12
REMARK                            x       y       z     vdW  Elec       q    Type
REMARK                         _______ _______ _______ _____ _____    ______ ____
ROOT
ATOM      1  C   UNL     1       4.717   5.705  16.599  0.00  0.00    +0.000 C 
ENDROOT
BRANCH   1   9
ATOM      2  O   UNL     1       7.678   6.350  16.631  0.00  0.00    +0.000 OA
ATOM      3  C   UNL     1       7.124   5.529  15.916  0.00  0.00    +0.000 C 
ATOM      4  O   UNL     1       7.567   5.199  14.667  0.00  0.00    +0.000 OA
ATOM      5  C   UNL     1       6.634   4.315  14.136  0.00  0.00    +0.000 C 
ATOM      6  C   UNL     1       6.644   4.031  12.828  0.00  0.00    +0.000 C 
ATOM      7 BR   UNL     1       5.430   2.951  11.936  0.00  0.00    +0.000 Br
ATOM      8  C   UNL     1       5.653   3.833  15.138  0.00  0.00    +0.000 C 
ATOM      9  C   UNL     1       5.888   4.761  16.308  0.00  0.00    +0.000 C 
ENDBRANCH   1   9
BRANCH   1  10
ATOM     10  C   UNL     1       4.591   6.121  18.071  0.00  0.00    +0.000 C 
BRANCH  10  11
ATOM     11  C   UNL     1       4.703   4.948  19.049  0.00  0.00    +0.000 C 
BRANCH  11  12
ATOM     12  C   UNL     1       3.353   4.332  19.309  0.00  0.00    +0.000 A 
ATOM     13  C   UNL     1       2.434   4.970  20.154  0.00  0.00    +0.000 A 
ATOM     14  C   UNL     1       1.203   4.378  20.432  0.00  0.00    +0.000 A 
ATOM     15  C   UNL     1       0.881   3.145  19.868  0.00  0.00    +0.000 A 
ATOM     16  C   UNL     1       1.788   2.505  19.024  0.00  0.00    +0.000 A 
ATOM     17  C   UNL     1       3.021   3.096  18.747  0.00  0.00    +0.000 A 
ENDBRANCH  11  12
ENDBRANCH  10  11
ENDBRANCH   1  10
TORSDOF 4
ENDMDL
MODEL 7
REMARK VINA RESULT:      -7.0      1.286      1.912
REMARK  Name = 
REMARK  4 active torsions:
REMARK  status: ('A' for Active; 'I' for Inactive)
REMARK    1  A    between atoms: C_8  and  C_9
REMARK    2  A    between atoms: C_9  and  C_10
REMARK    3  A    between atoms: C_10  and  C_11
REMARK    4  A    between atoms: C_11  and  C_12
REMARK                            x       y       z     vdW  Elec       q    Type
REMARK                         _______ _______ _______ _____ _____    ______ ____
ROOT
ATOM      1  C   UNL     1       4.569   5.367  16.691  0.00  0.00    +0.000 C 
ENDROOT
BRANCH   1   9
ATOM      2  O   UNL     1       7.401   6.444  16.686  0.00  0.00    +0.000 OA
ATOM      3  C   UNL     1       6.962   5.561  15.965  0.00  0.00    +0.000 C 
ATOM      4  O   UNL     1       7.425   5.321  14.703  0.00  0.00    +0.000 OA
ATOM      5  C   UNL     1       6.624   4.317  14.171  0.00  0.00    +0.000 C 
ATOM      6  C   UNL     1       6.651   4.059  12.858  0.00  0.00    +0.000 C 
ATOM      7 BR   UNL     1       5.594   2.824  11.966  0.00  0.00    +0.000 Br
ATOM      8  C   UNL     1       5.745   3.679  15.180  0.00  0.00    +0.000 C 
ATOM      9  C   UNL     1       5.862   4.612  16.363  0.00  0.00    +0.000 C 
ENDBRANCH   1   9
BRANCH   1  10
ATOM     10  C   UNL     1       4.519   5.946  18.111  0.00  0.00    +0.000 C 
BRANCH  10  11
ATOM     11  C   UNL     1       3.105   6.311  18.572  0.00  0.00    +0.000 C 
BRANCH  11  12
ATOM     12  C   UNL     1       2.387   5.105  19.118  0.00  0.00    +0.000 A 
ATOM     13  C   UNL     1       1.685   4.248  18.257  0.00  0.00    +0.000 A 
ATOM     14  C   UNL     1       0.982   3.158  18.768  0.00  0.00    +0.000 A 
ATOM     15  C   UNL     1       0.974   2.916  20.140  0.00  0.00    +0.000 A 
ATOM     16  C   UNL     1       1.671   3.762  21.003  0.00  0.00    +0.000 A 
ATOM     17  C   UNL     1       2.373   4.853  20.493  0.00  0.00    +0.000 A 
ENDBRANCH  11  12
ENDBRANCH  10  11
ENDBRANCH   1  10
TORSDOF 4
ENDMDL
MODEL 8
REMARK VINA RESULT:      -6.9      1.153      1.697
REMARK  Name = 
REMARK  4 active torsions:
REMARK  status: ('A' for Active; 'I' for Inactive)
REMARK    1  A    between atoms: C_8  and  C_9
REMARK    2  A    between atoms: C_9  and  C_10
REMARK    3  A    between atoms: C_10  and  C_11
REMARK    4  A    between atoms: C_11  and  C_12
REMARK                            x       y       z     vdW  Elec       q    Type
REMARK                         _______ _______ _______ _____ _____    ______ ____
ROOT
ATOM      1  C   UNL     1       5.905   5.245  19.001  0.00  0.00    +0.000 C 
ENDROOT
BRANCH   1   9
ATOM      2  O   UNL     1       7.905   7.425  18.342  0.00  0.00    +0.000 OA
ATOM      3  C   UNL     1       7.586   6.493  17.619  0.00  0.00    +0.000 C 
ATOM      4  O   UNL     1       7.589   6.564  16.255  0.00  0.00    +0.000 OA
ATOM      5  C   UNL     1       7.081   5.355  15.794  0.00  0.00    +0.000 C 
ATOM      6  C   UNL     1       6.702   5.228  14.517  0.00  0.00    +0.000 C 
ATOM      7 BR   UNL     1       5.925   3.728  13.752  0.00  0.00    +0.000 Br
ATOM      8  C   UNL     1       6.955   4.332  16.860  0.00  0.00    +0.000 C 
ATOM      9  C   UNL     1       7.157   5.139  18.122  0.00  0.00    +0.000 C 
ENDBRANCH   1   9
BRANCH   1  10
ATOM     10  C   UNL     1       4.693   5.873  18.301  0.00  0.00    +0.000 C 
BRANCH  10  11
ATOM     11  C   UNL     1       3.525   6.166  19.248  0.00  0.00    +0.000 C 
BRANCH  11  12
ATOM     12  C   UNL     1       2.600   4.981  19.345  0.00  0.00    +0.000 A 
ATOM     13  C   UNL     1       2.348   4.184  18.220  0.00  0.00    +0.000 A 
ATOM     14  C   UNL     1       1.455   3.116  18.298  0.00  0.00    +0.000 A 
ATOM     15  C   UNL     1       0.808   2.837  19.500  0.00  0.00    +0.000 A 
ATOM     16  C   UNL     1       1.055   3.623  20.626  0.00  0.00    +0.000 A 
ATOM     17  C   UNL     1       1.947   4.693  20.548  0.00  0.00    +0.000 A 
ENDBRANCH  11  12
ENDBRANCH  10  11
ENDBRANCH   1  10
TORSDOF 4
ENDMDL
MODEL 9
REMARK VINA RESULT:      -6.9      1.582      1.841
REMARK  Name = 
REMARK  4 active torsions:
REMARK  status: ('A' for Active; 'I' for Inactive)
REMARK    1  A    between atoms: C_8  and  C_9
REMARK    2  A    between atoms: C_9  and  C_10
REMARK    3  A    between atoms: C_10  and  C_11
REMARK    4  A    between atoms: C_11  and  C_12
REMARK                            x       y       z     vdW  Elec       q    Type
REMARK                         _______ _______ _______ _____ _____    ______ ____
ROOT
ATOM      1  C   UNL     1       4.695   5.304  17.245  0.00  0.00    +0.000 C 
ENDROOT
BRANCH   1   9
ATOM      2  O   UNL     1       7.390   6.682  17.381  0.00  0.00    +0.000 OA
ATOM      3  C   UNL     1       7.057   5.823  16.579  0.00  0.00    +0.000 C 
ATOM      4  O   UNL     1       7.553   5.745  15.309  0.00  0.00    +0.000 OA
ATOM      5  C   UNL     1       6.871   4.709  14.679  0.00  0.00    +0.000 C 
ATOM      6  C   UNL     1       6.937   4.571  13.349  0.00  0.00    +0.000 C 
ATOM      7 BR   UNL     1       6.030   3.311  12.337  0.00  0.00    +0.000 Br
ATOM      8  C   UNL     1       6.061   3.894  15.615  0.00  0.00    +0.000 C 
ATOM      9  C   UNL     1       6.065   4.727  16.875  0.00  0.00    +0.000 C 
ENDBRANCH   1   9
BRANCH   1  10
ATOM     10  C   UNL     1       3.521   4.342  17.018  0.00  0.00    +0.000 C 
BRANCH  10  11
ATOM     11  C   UNL     1       2.279   4.688  17.845  0.00  0.00    +0.000 C 
BRANCH  11  12
ATOM     12  C   UNL     1       2.263   3.919  19.140  0.00  0.00    +0.000 A 
ATOM     13  C   UNL     1       1.143   3.973  19.982  0.00  0.00    +0.000 A 
ATOM     14  C   UNL     1       1.146   3.300  21.203  0.00  0.00    +0.000 A 
ATOM     15  C   UNL     1       2.266   2.568  21.591  0.00  0.00    +0.000 A 
ATOM     16  C   UNL     1       3.384   2.507  20.759  0.00  0.00    +0.000 A 
ATOM     17  C   UNL     1       3.382   3.182  19.538  0.00  0.00    +0.000 A 
ENDBRANCH  11  12
ENDBRANCH  10  11
ENDBRANCH   1  10
TORSDOF 4
ENDMDL
