MODEL 1
REMARK VINA RESULT:      -8.6      0.000      0.000
REMARK  Name = 
REMARK  4 active torsions:
REMARK  status: ('A' for Active; 'I' for Inactive)
REMARK    1  A    between atoms: C_1  and  C_2
REMARK    2  A    between atoms: C_4  and  C_5
REMARK    3  A    between atoms: C_8  and  C_10
REMARK    4  A    between atoms: C_12  and  C_13
REMARK                            x       y       z     vdW  Elec       q    Type
REMARK                         _______ _______ _______ _____ _____    ______ ____
ROOT
ATOM      1  C   UNL     1       5.287   5.227  17.591  0.00  0.00    +0.000 A 
ATOM      2  C   UNL     1       5.722   4.311  16.590  0.00  0.00    +0.000 A 
ATOM      3  C   UNL     1       6.063   5.081  15.502  0.00  0.00    +0.000 A 
ATOM      4  N   UNL     1       5.884   6.372  15.900  0.00  0.00    +0.000 N 
ATOM      5  N   UNL     1       5.465   6.497  17.169  0.00  0.00    +0.000 NA
ATOM      6  H   UNL     1       6.029   7.209  15.348  0.00  0.00    +0.000 HD
ENDROOT
BRANCH   1  14
ATOM      7  C   UNL     1       2.535   2.281  17.497  0.00  0.00    +0.000 C 
ATOM      8  C   UNL     1       1.627   3.397  18.027  0.00  0.00    +0.000 C 
ATOM      9  C   UNL     1       1.055   3.066  19.410  0.00  0.00    +0.000 C 
ATOM     10  C   UNL     1       2.131   3.110  20.507  0.00  0.00    +0.000 C 
ATOM     11  C   UNL     1       1.499   2.863  21.875  0.00  0.00    +0.000 C 
ATOM     12  C   UNL     1       2.880   4.453  20.472  0.00  0.00    +0.000 C 
ATOM     13  N   UNL     1       3.386   4.744  19.130  0.00  0.00    +0.000 N 
ATOM     14  C   UNL     1       4.770   4.852  18.927  0.00  0.00    +0.000 C 
ATOM     15  O   UNL     1       5.569   4.595  19.831  0.00  0.00    +0.000 OA
ATOM     16  C   UNL     1       2.369   4.740  18.075  0.00  0.00    +0.000 C 
ENDBRANCH   1  14
BRANCH   3  17
ATOM     17  C   UNL     1       6.510   4.751  14.193  0.00  0.00    +0.000 A 
ATOM     18  C   UNL     1       6.071   3.749  13.345  0.00  0.00    +0.000 A 
ATOM     19  C   UNL     1       6.839   3.839  12.159  0.00  0.00    +0.000 A 
ATOM     20  C   UNL     1       7.698   4.894  12.344  0.00  0.00    +0.000 A 
ATOM     21  O   UNL     1       7.507   5.452  13.565  0.00  0.00    +0.000 OA
ENDBRANCH   3  17
TORSDOF 2
ENDMDL
MODEL 2
REMARK VINA RESULT:      -8.2      1.173      1.220
REMARK  Name = 
REMARK  4 active torsions:
REMARK  status: ('A' for Active; 'I' for Inactive)
REMARK    1  A    between atoms: C_1  and  C_2
REMARK    2  A    between atoms: C_4  and  C_5
REMARK    3  A    between atoms: C_8  and  C_10
REMARK    4  A    between atoms: C_12  and  C_13
REMARK                            x       y       z     vdW  Elec       q    Type
REMARK                         _______ _______ _______ _____ _____    ______ ____
ROOT
ATOM      1  C   UNL     1       6.093   4.527  17.811  0.00  0.00    +0.000 A 
ATOM      2  C   UNL     1       5.648   4.497  16.457  0.00  0.00    +0.000 A 
ATOM      3  C   UNL     1       6.787   4.548  15.688  0.00  0.00    +0.000 A 
ATOM      4  N   UNL     1       7.823   4.543  16.573  0.00  0.00    +0.000 N 
ATOM      5  N   UNL     1       7.441   4.481  17.858  0.00  0.00    +0.000 NA
ATOM      6  H   UNL     1       8.813   4.584  16.358  0.00  0.00    +0.000 HD
ENDROOT
BRANCH   1  14
ATOM      7  C   UNL     1       3.834   1.209  18.202  0.00  0.00    +0.000 C 
ATOM      8  C   UNL     1       2.695   2.211  17.981  0.00  0.00    +0.000 C 
ATOM      9  C   UNL     1       1.742   2.273  19.180  0.00  0.00    +0.000 C 
ATOM     10  C   UNL     1       2.393   2.937  20.404  0.00  0.00    +0.000 C 
ATOM     11  C   UNL     1       1.380   3.056  21.540  0.00  0.00    +0.000 C 
ATOM     12  C   UNL     1       2.973   4.310  20.026  0.00  0.00    +0.000 C 
ATOM     13  N   UNL     1       3.855   4.213  18.862  0.00  0.00    +0.000 N 
ATOM     14  C   UNL     1       5.212   4.543  19.000  0.00  0.00    +0.000 C 
ATOM     15  O   UNL     1       5.695   4.804  20.105  0.00  0.00    +0.000 OA
ATOM     16  C   UNL     1       3.242   3.613  17.674  0.00  0.00    +0.000 C 
ENDBRANCH   1  14
BRANCH   3  17
ATOM     17  C   UNL     1       6.997   4.603  14.282  0.00  0.00    +0.000 A 
ATOM     18  C   UNL     1       6.428   3.833  13.283  0.00  0.00    +0.000 A 
ATOM     19  C   UNL     1       6.968   4.281  12.053  0.00  0.00    +0.000 A 
ATOM     20  C   UNL     1       7.830   5.303  12.368  0.00  0.00    +0.000 A 
ATOM     21  O   UNL     1       7.853   5.507  13.708  0.00  0.00    +0.000 OA
ENDBRANCH   3  17
TORSDOF 2
ENDMDL
MODEL 3
REMARK VINA RESULT:      -8.1      0.852      1.021
REMARK  Name = 
REMARK  4 active torsions:
REMARK  status: ('A' for Active; 'I' for Inactive)
REMARK    1  A    between atoms: C_1  and  C_2
REMARK    2  A    between atoms: C_4  and  C_5
REMARK    3  A    between atoms: C_8  and  C_10
REMARK    4  A    between atoms: C_12  and  C_13
REMARK                            x       y       z     vdW  Elec       q    Type
REMARK                         _______ _______ _______ _____ _____    ______ ____
ROOT
ATOM      1  C   UNL     1       5.902   5.014  17.558  0.00  0.00    +0.000 A 
ATOM      2  C   UNL     1       5.814   4.177  16.408  0.00  0.00    +0.000 A 
ATOM      3  C   UNL     1       6.501   4.835  15.414  0.00  0.00    +0.000 A 
ATOM      4  N   UNL     1       7.001   5.958  16.001  0.00  0.00    +0.000 N 
ATOM      5  N   UNL     1       6.701   6.071  17.303  0.00  0.00    +0.000 NA
ATOM      6  H   UNL     1       7.554   6.685  15.560  0.00  0.00    +0.000 HD
ENDROOT
BRANCH   1  14
ATOM      7  C   UNL     1       2.775   2.478  17.336  0.00  0.00    +0.000 C 
ATOM      8  C   UNL     1       2.003   3.719  17.798  0.00  0.00    +0.000 C 
ATOM      9  C   UNL     1       1.312   3.498  19.149  0.00  0.00    +0.000 C 
ATOM     10  C   UNL     1       2.320   3.414  20.307  0.00  0.00    +0.000 C 
ATOM     11  C   UNL     1       1.583   3.285  21.638  0.00  0.00    +0.000 C 
ATOM     12  C   UNL     1       3.250   4.639  20.300  0.00  0.00    +0.000 C 
ATOM     13  N   UNL     1       3.867   4.831  18.987  0.00  0.00    +0.000 N 
ATOM     14  C   UNL     1       5.262   4.741  18.865  0.00  0.00    +0.000 C 
ATOM     15  O   UNL     1       5.965   4.394  19.818  0.00  0.00    +0.000 OA
ATOM     16  C   UNL     1       2.921   4.946  17.874  0.00  0.00    +0.000 C 
ENDBRANCH   1  14
BRANCH   3  17
ATOM     17  C   UNL     1       6.722   4.539  14.040  0.00  0.00    +0.000 A 
ATOM     18  C   UNL     1       7.578   5.151  13.141  0.00  0.00    +0.000 A 
ATOM     19  C   UNL     1       7.424   4.486  11.900  0.00  0.00    +0.000 A 
ATOM     20  C   UNL     1       6.490   3.501  12.112  0.00  0.00    +0.000 A 
ATOM     21  O   UNL     1       6.062   3.523  13.399  0.00  0.00    +0.000 OA
ENDBRANCH   3  17
TORSDOF 2
ENDMDL
MODEL 4
REMARK VINA RESULT:      -7.1      4.000      5.209
REMARK  Name = 
REMARK  4 active torsions:
REMARK  status: ('A' for Active; 'I' for Inactive)
REMARK    1  A    between atoms: C_1  and  C_2
REMARK    2  A    between atoms: C_4  and  C_5
REMARK    3  A    between atoms: C_8  and  C_10
REMARK    4  A    between atoms: C_12  and  C_13
REMARK                            x       y       z     vdW  Elec       q    Type
REMARK                         _______ _______ _______ _____ _____    ______ ____
ROOT
ATOM      1  C   UNL     1       7.202   6.284  17.988  0.00  0.00    +0.000 A 
ATOM      2  C   UNL     1       7.228   7.604  17.453  0.00  0.00    +0.000 A 
ATOM      3  C   UNL     1       8.117   8.305  18.234  0.00  0.00    +0.000 A 
ATOM      4  N   UNL     1       8.611   7.400  19.124  0.00  0.00    +0.000 N 
ATOM      5  N   UNL     1       8.118   6.162  18.971  0.00  0.00    +0.000 NA
ATOM      6  H   UNL     1       9.286   7.572  19.861  0.00  0.00    +0.000 HD
ENDROOT
BRANCH   1  14
ATOM      7  C   UNL     1       3.261   7.127  18.101  0.00  0.00    +0.000 C 
ATOM      8  C   UNL     1       3.259   5.988  19.127  0.00  0.00    +0.000 C 
ATOM      9  C   UNL     1       2.381   4.813  18.682  0.00  0.00    +0.000 C 
ATOM     10  C   UNL     1       2.993   4.049  17.497  0.00  0.00    +0.000 C 
ATOM     11  C   UNL     1       2.131   2.838  17.149  0.00  0.00    +0.000 C 
ATOM     12  C   UNL     1       4.439   3.633  17.816  0.00  0.00    +0.000 C 
ATOM     13  N   UNL     1       5.236   4.776  18.263  0.00  0.00    +0.000 N 
ATOM     14  C   UNL     1       6.343   5.181  17.501  0.00  0.00    +0.000 C 
ATOM     15  O   UNL     1       6.588   4.663  16.408  0.00  0.00    +0.000 OA
ATOM     16  C   UNL     1       4.685   5.498  19.413  0.00  0.00    +0.000 C 
ENDBRANCH   1  14
BRANCH   3  17
ATOM     17  C   UNL     1       8.528   9.667  18.236  0.00  0.00    +0.000 A 
ATOM     18  C   UNL     1       9.554  10.270  18.944  0.00  0.00    +0.000 A 
ATOM     19  C   UNL     1       9.549  11.643  18.597  0.00  0.00    +0.000 A 
ATOM     20  C   UNL     1       8.527  11.801  17.694  0.00  0.00    +0.000 A 
ATOM     21  O   UNL     1       7.907  10.617  17.468  0.00  0.00    +0.000 OA
ENDBRANCH   3  17
TORSDOF 2
ENDMDL
MODEL 5
REMARK VINA RESULT:      -6.9      3.199      4.478
REMARK  Name = 
REMARK  4 active torsions:
REMARK  status: ('A' for Active; 'I' for Inactive)
REMARK    1  A    between atoms: C_1  and  C_2
REMARK    2  A    between atoms: C_4  and  C_5
REMARK    3  A    between atoms: C_8  and  C_10
REMARK    4  A    between atoms: C_12  and  C_13
REMARK                            x       y       z     vdW  Elec       q    Type
REMARK                         _______ _______ _______ _____ _____    ______ ____
ROOT
ATOM      1  C   UNL     1       6.140   5.546  16.963  0.00  0.00    +0.000 A 
ATOM      2  C   UNL     1       6.223   6.691  17.808  0.00  0.00    +0.000 A 
ATOM      3  C   UNL     1       7.365   7.355  17.423  0.00  0.00    +0.000 A 
ATOM      4  N   UNL     1       7.861   6.646  16.371  0.00  0.00    +0.000 N 
ATOM      5  N   UNL     1       7.120   5.578  16.036  0.00  0.00    +0.000 NA
ATOM      6  H   UNL     1       8.704   6.842  15.843  0.00  0.00    +0.000 HD
ENDROOT
BRANCH   1  14
ATOM      7  C   UNL     1       2.623   6.870  18.425  0.00  0.00    +0.000 C 
ATOM      8  C   UNL     1       2.964   5.894  19.557  0.00  0.00    +0.000 C 
ATOM      9  C   UNL     1       1.916   4.784  19.696  0.00  0.00    +0.000 C 
ATOM     10  C   UNL     1       1.962   3.793  18.521  0.00  0.00    +0.000 C 
ATOM     11  C   UNL     1       0.965   2.659  18.747  0.00  0.00    +0.000 C 
ATOM     12  C   UNL     1       3.389   3.252  18.330  0.00  0.00    +0.000 C 
ATOM     13  N   UNL     1       4.362   4.341  18.230  0.00  0.00    +0.000 N 
ATOM     14  C   UNL     1       5.096   4.498  17.044  0.00  0.00    +0.000 C 
ATOM     15  O   UNL     1       4.857   3.808  16.050  0.00  0.00    +0.000 OA
ATOM     16  C   UNL     1       4.355   5.278  19.357  0.00  0.00    +0.000 C 
ENDBRANCH   1  14
BRANCH   3  17
ATOM     17  C   UNL     1       8.010   8.523  17.916  0.00  0.00    +0.000 A 
ATOM     18  C   UNL     1       7.956   9.821  17.437  0.00  0.00    +0.000 A 
ATOM     19  C   UNL     1       8.775  10.610  18.279  0.00  0.00    +0.000 A 
ATOM     20  C   UNL     1       9.278   9.755  19.228  0.00  0.00    +0.000 A 
ATOM     21  O   UNL     1       8.821   8.496  19.020  0.00  0.00    +0.000 OA
ENDBRANCH   3  17
TORSDOF 2
ENDMDL
MODEL 6
REMARK VINA RESULT:      -6.7      1.438      1.878
REMARK  Name = 
REMARK  4 active torsions:
REMARK  status: ('A' for Active; 'I' for Inactive)
REMARK    1  A    between atoms: C_1  and  C_2
REMARK    2  A    between atoms: C_4  and  C_5
REMARK    3  A    between atoms: C_8  and  C_10
REMARK    4  A    between atoms: C_12  and  C_13
REMARK                            x       y       z     vdW  Elec       q    Type
REMARK                         _______ _______ _______ _____ _____    ______ ____
ROOT
ATOM      1  C   UNL     1       4.790   3.968  16.965  0.00  0.00    +0.000 A 
ATOM      2  C   UNL     1       5.564   3.458  15.882  0.00  0.00    +0.000 A 
ATOM      3  C   UNL     1       5.964   4.558  15.159  0.00  0.00    +0.000 A 
ATOM      4  N   UNL     1       5.486   5.635  15.843  0.00  0.00    +0.000 N 
ATOM      5  N   UNL     1       4.818   5.317  16.962  0.00  0.00    +0.000 NA
ATOM      6  H   UNL     1       5.584   6.612  15.591  0.00  0.00    +0.000 HD
ENDROOT
BRANCH   1  14
ATOM      7  C   UNL     1       1.753   5.874  18.810  0.00  0.00    +0.000 C 
ATOM      8  C   UNL     1       2.666   5.707  20.031  0.00  0.00    +0.000 C 
ATOM      9  C   UNL     1       2.009   4.864  21.130  0.00  0.00    +0.000 C 
ATOM     10  C   UNL     1       1.890   3.384  20.732  0.00  0.00    +0.000 C 
ATOM     11  C   UNL     1       1.314   2.572  21.889  0.00  0.00    +0.000 C 
ATOM     12  C   UNL     1       3.256   2.835  20.290  0.00  0.00    +0.000 C 
ATOM     13  N   UNL     1       3.862   3.681  19.261  0.00  0.00    +0.000 N 
ATOM     14  C   UNL     1       4.103   3.145  17.986  0.00  0.00    +0.000 C 
ATOM     15  O   UNL     1       3.714   2.014  17.686  0.00  0.00    +0.000 OA
ATOM     16  C   UNL     1       4.014   5.090  19.634  0.00  0.00    +0.000 C 
ENDBRANCH   1  14
BRANCH   3  17
ATOM     17  C   UNL     1       6.704   4.698  13.952  0.00  0.00    +0.000 A 
ATOM     18  C   UNL     1       6.555   4.025  12.752  0.00  0.00    +0.000 A 
ATOM     19  C   UNL     1       7.539   4.529  11.867  0.00  0.00    +0.000 A 
ATOM     20  C   UNL     1       8.229   5.484  12.572  0.00  0.00    +0.000 A 
ATOM     21  O   UNL     1       7.733   5.595  13.829  0.00  0.00    +0.000 OA
ENDBRANCH   3  17
TORSDOF 2
ENDMDL
MODEL 7
REMARK VINA RESULT:      -6.6      3.016      4.241
REMARK  Name = 
REMARK  4 active torsions:
REMARK  status: ('A' for Active; 'I' for Inactive)
REMARK    1  A    between atoms: C_1  and  C_2
REMARK    2  A    between atoms: C_4  and  C_5
REMARK    3  A    between atoms: C_8  and  C_10
REMARK    4  A    between atoms: C_12  and  C_13
REMARK                            x       y       z     vdW  Elec       q    Type
REMARK                         _______ _______ _______ _____ _____    ______ ____
ROOT
ATOM      1  C   UNL     1       5.883   4.922  17.361  0.00  0.00    +0.000 A 
ATOM      2  C   UNL     1       5.848   6.336  17.541  0.00  0.00    +0.000 A 
ATOM      3  C   UNL     1       7.160   6.725  17.680  0.00  0.00    +0.000 A 
ATOM      4  N   UNL     1       7.896   5.589  17.523  0.00  0.00    +0.000 N 
ATOM      5  N   UNL     1       7.160   4.494  17.280  0.00  0.00    +0.000 NA
ATOM      6  H   UNL     1       8.904   5.501  17.575  0.00  0.00    +0.000 HD
ENDROOT
BRANCH   1  14
ATOM      7  C   UNL     1       2.712   6.135  19.537  0.00  0.00    +0.000 C 
ATOM      8  C   UNL     1       2.964   4.807  20.260  0.00  0.00    +0.000 C 
ATOM      9  C   UNL     1       1.765   3.857  20.154  0.00  0.00    +0.000 C 
ATOM     10  C   UNL     1       1.585   3.308  18.729  0.00  0.00    +0.000 C 
ATOM     11  C   UNL     1       0.438   2.301  18.693  0.00  0.00    +0.000 C 
ATOM     12  C   UNL     1       2.895   2.681  18.225  0.00  0.00    +0.000 C 
ATOM     13  N   UNL     1       4.018   3.609  18.368  0.00  0.00    +0.000 N 
ATOM     14  C   UNL     1       4.695   4.050  17.220  0.00  0.00    +0.000 C 
ATOM     15  O   UNL     1       4.291   3.760  16.091  0.00  0.00    +0.000 OA
ATOM     16  C   UNL     1       4.227   4.117  19.727  0.00  0.00    +0.000 C 
ENDBRANCH   1  14
BRANCH   3  17
ATOM     17  C   UNL     1       7.766   7.987  17.938  0.00  0.00    +0.000 A 
ATOM     18  C   UNL     1       8.731   8.319  18.873  0.00  0.00    +0.000 A 
ATOM     19  C   UNL     1       8.995   9.702  18.727  0.00  0.00    +0.000 A 
ATOM     20  C   UNL     1       8.184  10.136  17.708  0.00  0.00    +0.000 A 
ATOM     21  O   UNL     1       7.441   9.111  17.224  0.00  0.00    +0.000 OA
ENDBRANCH   3  17
TORSDOF 2
ENDMDL
MODEL 8
REMARK VINA RESULT:      -6.6      3.494      7.465
REMARK  Name = 
REMARK  4 active torsions:
REMARK  status: ('A' for Active; 'I' for Inactive)
REMARK    1  A    between atoms: C_1  and  C_2
REMARK    2  A    between atoms: C_4  and  C_5
REMARK    3  A    between atoms: C_8  and  C_10
REMARK    4  A    between atoms: C_12  and  C_13
REMARK                            x       y       z     vdW  Elec       q    Type
REMARK                         _______ _______ _______ _____ _____    ______ ____
ROOT
ATOM      1  C   UNL     1       2.790   5.960  18.867  0.00  0.00    +0.000 A 
ATOM      2  C   UNL     1       2.259   7.282  18.874  0.00  0.00    +0.000 A 
ATOM      3  C   UNL     1       1.832   7.506  20.163  0.00  0.00    +0.000 A 
ATOM      4  N   UNL     1       2.166   6.381  20.856  0.00  0.00    +0.000 N 
ATOM      5  N   UNL     1       2.789   5.451  20.117  0.00  0.00    +0.000 NA
ATOM      6  H   UNL     1       1.990   6.192  21.836  0.00  0.00    +0.000 HD
ENDROOT
BRANCH   1  14
ATOM      7  C   UNL     1       6.797   5.511  18.912  0.00  0.00    +0.000 C 
ATOM      8  C   UNL     1       6.705   6.434  17.692  0.00  0.00    +0.000 C 
ATOM      9  C   UNL     1       7.248   5.767  16.423  0.00  0.00    +0.000 C 
ATOM     10  C   UNL     1       6.331   4.640  15.923  0.00  0.00    +0.000 C 
ATOM     11  C   UNL     1       6.865   4.067  14.612  0.00  0.00    +0.000 C 
ATOM     12  C   UNL     1       4.889   5.150  15.764  0.00  0.00    +0.000 C 
ATOM     13  N   UNL     1       4.418   5.804  16.986  0.00  0.00    +0.000 N 
ATOM     14  C   UNL     1       3.325   5.260  17.677  0.00  0.00    +0.000 C 
ATOM     15  O   UNL     1       2.827   4.183  17.337  0.00  0.00    +0.000 OA
ATOM     16  C   UNL     1       5.262   6.904  17.460  0.00  0.00    +0.000 C 
ENDBRANCH   1  14
BRANCH   3  17
ATOM     17  C   UNL     1       1.172   8.605  20.780  0.00  0.00    +0.000 A 
ATOM     18  C   UNL     1       1.046   8.906  22.125  0.00  0.00    +0.000 A 
ATOM     19  C   UNL     1       0.297  10.104  22.215  0.00  0.00    +0.000 A 
ATOM     20  C   UNL     1       0.013  10.471  20.923  0.00  0.00    +0.000 A 
ATOM     21  O   UNL     1       0.538   9.576  20.050  0.00  0.00    +0.000 OA
ENDBRANCH   3  17
TORSDOF 2
ENDMDL
MODEL 9
REMARK VINA RESULT:      -6.5      4.205      5.447
REMARK  Name = 
REMARK  4 active torsions:
REMARK  status: ('A' for Active; 'I' for Inactive)
REMARK    1  A    between atoms: C_1  and  C_2
REMARK    2  A    between atoms: C_4  and  C_5
REMARK    3  A    between atoms: C_8  and  C_10
REMARK    4  A    between atoms: C_12  and  C_13
REMARK                            x       y       z     vdW  Elec       q    Type
REMARK                         _______ _______ _______ _____ _____    ______ ____
ROOT
ATOM      1  C   UNL     1       7.275   6.777  17.761  0.00  0.00    +0.000 A 
ATOM      2  C   UNL     1       8.161   7.409  18.681  0.00  0.00    +0.000 A 
ATOM      3  C   UNL     1       8.285   8.708  18.247  0.00  0.00    +0.000 A 
ATOM      4  N   UNL     1       7.457   8.811  17.170  0.00  0.00    +0.000 N 
ATOM      5  N   UNL     1       6.796   7.680  16.881  0.00  0.00    +0.000 NA
ATOM      6  H   UNL     1       7.305   9.629  16.591  0.00  0.00    +0.000 HD
ENDROOT
BRANCH   1  14
ATOM      7  C   UNL     1       3.300   6.178  17.445  0.00  0.00    +0.000 C 
ATOM      8  C   UNL     1       3.480   5.632  18.867  0.00  0.00    +0.000 C 
ATOM      9  C   UNL     1       3.086   4.154  18.970  0.00  0.00    +0.000 C 
ATOM     10  C   UNL     1       4.085   3.236  18.248  0.00  0.00    +0.000 C 
ATOM     11  C   UNL     1       3.701   1.773  18.454  0.00  0.00    +0.000 C 
ATOM     12  C   UNL     1       5.517   3.512  18.734  0.00  0.00    +0.000 C 
ATOM     13  N   UNL     1       5.844   4.936  18.645  0.00  0.00    +0.000 N 
ATOM     14  C   UNL     1       6.883   5.349  17.796  0.00  0.00    +0.000 C 
ATOM     15  O   UNL     1       7.447   4.551  17.043  0.00  0.00    +0.000 OA
ATOM     16  C   UNL     1       4.922   5.825  19.356  0.00  0.00    +0.000 C 
ENDBRANCH   1  14
BRANCH   3  17
ATOM     17  C   UNL     1       9.062   9.806  18.709  0.00  0.00    +0.000 A 
ATOM     18  C   UNL     1       9.765  10.748  17.979  0.00  0.00    +0.000 A 
ATOM     19  C   UNL     1      10.373  11.627  18.908  0.00  0.00    +0.000 A 
ATOM     20  C   UNL     1      10.002  11.179  20.151  0.00  0.00    +0.000 A 
ATOM     21  O   UNL     1       9.211  10.083  20.043  0.00  0.00    +0.000 OA
ENDBRANCH   3  17
TORSDOF 2
ENDMDL
