MODEL 1
REMARK VINA RESULT:      -6.9      0.000      0.000
REMARK  Name = 
REMARK  16 active torsions:
REMARK  status: ('A' for Active; 'I' for Inactive)
REMARK    1  A    between atoms: C_2  and  C_3
REMARK    2  A    between atoms: C_3  and  N_4
REMARK    3  A    between atoms: N_4  and  N_5
REMARK    4  A    between atoms: N_9  and  C_10
REMARK    5  A    between atoms: N_9  and  C_13
REMARK    6  A    between atoms: C_10  and  C_11
REMARK    7  A    between atoms: C_11  and  C_12
REMARK    8  A    between atoms: C_13  and  C_14
REMARK    9  A    between atoms: C_14  and  C_15
REMARK   10  A    between atoms: C_15  and  C_16
REMARK   11  A    between atoms: C_16  and  C_17
REMARK   12  A    between atoms: C_17  and  N_18
REMARK   13  A    between atoms: C_17  and  C_22
REMARK   14  A    between atoms: C_19  and  C_20
REMARK   15  A    between atoms: N_24  and  C_25
REMARK   16  A    between atoms: C_25  and  C_26
REMARK                            x       y       z     vdW  Elec       q    Type
REMARK                         _______ _______ _______ _____ _____    ______ ____
ROOT
ATOM      1  C   UNL     1       0.908   8.768  19.775  0.00  0.00    +0.000 C 
ENDROOT
BRANCH   1   2
ATOM      2  N   UNL     1       0.919   9.253  21.157  0.00  0.00    +0.000 N 
ATOM      3  C   UNL     1       0.016   8.877  22.118  0.00  0.00    +0.000 C 
ATOM      4  C   UNL     1       0.219   9.533  23.457  0.00  0.00    +0.000 C 
ATOM      5  O   UNL     1      -0.883   8.063  21.922  0.00  0.00    +0.000 OA
ATOM      6  H   UNL     1       1.676   9.872  21.414  0.00  0.00    +0.000 HD
ENDBRANCH   1   2
BRANCH   1   7
ATOM      7  C   UNL     1       0.624   9.898  18.770  0.00  0.00    +0.000 C 
ATOM      8  O   UNL     1       1.233   9.965  17.701  0.00  0.00    +0.000 OA
ATOM      9  N   UNL     1      -0.328  10.797  19.164  0.00  0.00    +0.000 N 
ATOM     10  H   UNL     1      -0.860  10.593  20.011  0.00  0.00    +0.000 HD
BRANCH   9  11
ATOM     11  C   UNL     1      -0.774  11.869  18.317  0.00  0.00    +0.000 C 
BRANCH  11  12
ATOM     12  C   UNL     1      -2.185  11.641  17.857  0.00  0.00    +0.000 A 
ATOM     13  C   UNL     1      -2.434  11.192  16.551  0.00  0.00    +0.000 A 
ATOM     14  C   UNL     1      -3.747  10.965  16.130  0.00  0.00    +0.000 A 
ATOM     15  C   UNL     1      -4.815  11.210  16.994  0.00  0.00    +0.000 A 
ATOM     16  C   UNL     1      -4.577  11.687  18.284  0.00  0.00    +0.000 A 
ATOM     17  C   UNL     1      -3.269  11.906  18.709  0.00  0.00    +0.000 A 
ENDBRANCH  11  12
ENDBRANCH   9  11
ENDBRANCH   1   7
BRANCH   1  18
ATOM     18  C   UNL     1       2.143   7.942  19.380  0.00  0.00    +0.000 C 
BRANCH  18  19
ATOM     19  C   UNL     1       2.305   6.655  20.198  0.00  0.00    +0.000 C 
BRANCH  19  20
ATOM     20  C   UNL     1       2.105   5.378  19.378  0.00  0.00    +0.000 C 
BRANCH  20  21
ATOM     21  C   UNL     1       3.335   4.467  19.464  0.00  0.00    +0.000 C 
BRANCH  21  25
ATOM     22  N   UNL     1       5.940   5.165  18.120  0.00  0.00    +0.000 N 
ATOM     23  C   UNL     1       5.019   4.273  17.547  0.00  0.00    +0.000 C 
ATOM     24  O   UNL     1       5.297   3.727  16.468  0.00  0.00    +0.000 OA
ATOM     25  N   UNL     1       3.777   3.999  18.150  0.00  0.00    +0.000 N 
BRANCH  22  26
ATOM     26  N   UNL     1       5.905   5.578  19.450  0.00  0.00    +0.000 NA
ATOM     27  O   UNL     1       6.933   5.278  20.062  0.00  0.00    +0.000 OA
ENDBRANCH  22  26
BRANCH  22  28
ATOM     28  C   UNL     1       7.207   5.456  17.434  0.00  0.00    +0.000 C 
BRANCH  28  30
ATOM     29  C   UNL     1       7.855   7.948  17.686  0.00  0.00    +0.000 C 
ATOM     30  C   UNL     1       7.368   6.899  17.005  0.00  0.00    +0.000 C 
ENDBRANCH  28  30
ENDBRANCH  22  28
BRANCH  25  31
ATOM     31  C   UNL     1       2.918   2.953  17.545  0.00  0.00    +0.000 C 
BRANCH  31  32
ATOM     32  C   UNL     1       2.270   1.956  18.524  0.00  0.00    +0.000 C 
ATOM     33  C   UNL     1       0.773   2.143  18.717  0.00  0.00    +0.000 C 
ENDBRANCH  31  32
ENDBRANCH  25  31
ENDBRANCH  21  25
ENDBRANCH  20  21
ENDBRANCH  19  20
ENDBRANCH  18  19
ENDBRANCH   1  18
TORSDOF 14
ENDMDL
MODEL 2
REMARK VINA RESULT:      -6.8      2.215      8.820
REMARK  Name = 
REMARK  16 active torsions:
REMARK  status: ('A' for Active; 'I' for Inactive)
REMARK    1  A    between atoms: C_2  and  C_3
REMARK    2  A    between atoms: C_3  and  N_4
REMARK    3  A    between atoms: N_4  and  N_5
REMARK    4  A    between atoms: N_9  and  C_10
REMARK    5  A    between atoms: N_9  and  C_13
REMARK    6  A    between atoms: C_10  and  C_11
REMARK    7  A    between atoms: C_11  and  C_12
REMARK    8  A    between atoms: C_13  and  C_14
REMARK    9  A    between atoms: C_14  and  C_15
REMARK   10  A    between atoms: C_15  and  C_16
REMARK   11  A    between atoms: C_16  and  C_17
REMARK   12  A    between atoms: C_17  and  N_18
REMARK   13  A    between atoms: C_17  and  C_22
REMARK   14  A    between atoms: C_19  and  C_20
REMARK   15  A    between atoms: N_24  and  C_25
REMARK   16  A    between atoms: C_25  and  C_26
REMARK                            x       y       z     vdW  Elec       q    Type
REMARK                         _______ _______ _______ _____ _____    ______ ____
ROOT
ATOM      1  C   UNL     1       4.713   6.520  17.272  0.00  0.00    +0.000 C 
ENDROOT
BRANCH   1   2
ATOM      2  N   UNL     1       5.760   7.463  17.668  0.00  0.00    +0.000 N 
ATOM      3  C   UNL     1       7.067   7.388  17.259  0.00  0.00    +0.000 C 
ATOM      4  C   UNL     1       7.961   8.459  17.823  0.00  0.00    +0.000 C 
ATOM      5  O   UNL     1       7.487   6.530  16.487  0.00  0.00    +0.000 OA
ATOM      6  H   UNL     1       5.473   8.242  18.247  0.00  0.00    +0.000 HD
ENDBRANCH   1   2
BRANCH   1   7
ATOM      7  C   UNL     1       4.722   5.250  18.141  0.00  0.00    +0.000 C 
ATOM      8  O   UNL     1       5.165   5.270  19.291  0.00  0.00    +0.000 OA
ATOM      9  N   UNL     1       4.220   4.132  17.536  0.00  0.00    +0.000 N 
ATOM     10  H   UNL     1       3.769   4.239  16.627  0.00  0.00    +0.000 HD
BRANCH   9  11
ATOM     11  C   UNL     1       4.080   2.879  18.225  0.00  0.00    +0.000 C 
BRANCH  11  12
ATOM     12  C   UNL     1       3.050   2.974  19.314  0.00  0.00    +0.000 A 
ATOM     13  C   UNL     1       1.760   3.441  19.021  0.00  0.00    +0.000 A 
ATOM     14  C   UNL     1       0.798   3.514  20.033  0.00  0.00    +0.000 A 
ATOM     15  C   UNL     1       1.123   3.149  21.340  0.00  0.00    +0.000 A 
ATOM     16  C   UNL     1       2.414   2.713  21.644  0.00  0.00    +0.000 A 
ATOM     17  C   UNL     1       3.372   2.633  20.637  0.00  0.00    +0.000 A 
ENDBRANCH  11  12
ENDBRANCH   9  11
ENDBRANCH   1   7
BRANCH   1  18
ATOM     18  C   UNL     1       3.308   7.136  17.166  0.00  0.00    +0.000 C 
BRANCH  18  19
ATOM     19  C   UNL     1       2.962   8.075  18.327  0.00  0.00    +0.000 C 
BRANCH  19  20
ATOM     20  C   UNL     1       1.649   8.836  18.130  0.00  0.00    +0.000 C 
BRANCH  20  21
ATOM     21  C   UNL     1       1.128   9.395  19.459  0.00  0.00    +0.000 C 
BRANCH  21  25
ATOM     22  N   UNL     1      -0.412  10.757  21.663  0.00  0.00    +0.000 N 
ATOM     23  C   UNL     1      -0.773  10.880  20.311  0.00  0.00    +0.000 C 
ATOM     24  O   UNL     1      -1.737  11.600  20.006  0.00  0.00    +0.000 OA
ATOM     25  N   UNL     1      -0.087  10.193  19.294  0.00  0.00    +0.000 N 
BRANCH  22  26
ATOM     26  N   UNL     1       0.816  10.266  22.102  0.00  0.00    +0.000 NA
ATOM     27  O   UNL     1       0.736   9.725  23.208  0.00  0.00    +0.000 OA
ENDBRANCH  22  26
BRANCH  22  28
ATOM     28  C   UNL     1      -1.184  11.458  22.698  0.00  0.00    +0.000 C 
BRANCH  28  30
ATOM     29  C   UNL     1      -0.009  13.689  22.119  0.00  0.00    +0.000 C 
ATOM     30  C   UNL     1      -0.865  12.933  22.824  0.00  0.00    +0.000 C 
ENDBRANCH  28  30
ENDBRANCH  22  28
BRANCH  25  31
ATOM     31  C   UNL     1      -0.452  10.476  17.885  0.00  0.00    +0.000 C 
BRANCH  31  32
ATOM     32  C   UNL     1      -1.766   9.847  17.383  0.00  0.00    +0.000 C 
ATOM     33  C   UNL     1      -2.687  10.810  16.650  0.00  0.00    +0.000 C 
ENDBRANCH  31  32
ENDBRANCH  25  31
ENDBRANCH  21  25
ENDBRANCH  20  21
ENDBRANCH  19  20
ENDBRANCH  18  19
ENDBRANCH   1  18
TORSDOF 14
ENDMDL
MODEL 3
REMARK VINA RESULT:      -6.8      2.422      5.034
REMARK  Name = 
REMARK  16 active torsions:
REMARK  status: ('A' for Active; 'I' for Inactive)
REMARK    1  A    between atoms: C_2  and  C_3
REMARK    2  A    between atoms: C_3  and  N_4
REMARK    3  A    between atoms: N_4  and  N_5
REMARK    4  A    between atoms: N_9  and  C_10
REMARK    5  A    between atoms: N_9  and  C_13
REMARK    6  A    between atoms: C_10  and  C_11
REMARK    7  A    between atoms: C_11  and  C_12
REMARK    8  A    between atoms: C_13  and  C_14
REMARK    9  A    between atoms: C_14  and  C_15
REMARK   10  A    between atoms: C_15  and  C_16
REMARK   11  A    between atoms: C_16  and  C_17
REMARK   12  A    between atoms: C_17  and  N_18
REMARK   13  A    between atoms: C_17  and  C_22
REMARK   14  A    between atoms: C_19  and  C_20
REMARK   15  A    between atoms: N_24  and  C_25
REMARK   16  A    between atoms: C_25  and  C_26
REMARK                            x       y       z     vdW  Elec       q    Type
REMARK                         _______ _______ _______ _____ _____    ______ ____
ROOT
ATOM      1  C   UNL     1       0.704  10.384  18.379  0.00  0.00    +0.000 C 
ENDROOT
BRANCH   1   2
ATOM      2  N   UNL     1      -0.399   9.866  17.567  0.00  0.00    +0.000 N 
ATOM      3  C   UNL     1      -1.564  10.545  17.317  0.00  0.00    +0.000 C 
ATOM      4  C   UNL     1      -2.557   9.791  16.475  0.00  0.00    +0.000 C 
ATOM      5  O   UNL     1      -1.789  11.680  17.729  0.00  0.00    +0.000 OA
ATOM      6  H   UNL     1      -0.256   8.964  17.132  0.00  0.00    +0.000 HD
ENDBRANCH   1   2
BRANCH   1   7
ATOM      7  C   UNL     1       0.406  10.284  19.886  0.00  0.00    +0.000 C 
ATOM      8  O   UNL     1       0.589   9.231  20.500  0.00  0.00    +0.000 OA
ATOM      9  N   UNL     1      -0.073  11.429  20.458  0.00  0.00    +0.000 N 
ATOM     10  H   UNL     1      -0.079  12.281  19.896  0.00  0.00    +0.000 HD
BRANCH   9  11
ATOM     11  C   UNL     1      -0.330  11.538  21.868  0.00  0.00    +0.000 C 
BRANCH  11  12
ATOM     12  C   UNL     1      -1.655  12.195  22.126  0.00  0.00    +0.000 A 
ATOM     13  C   UNL     1      -1.990  12.615  23.422  0.00  0.00    +0.000 A 
ATOM     14  C   UNL     1      -3.217  13.242  23.656  0.00  0.00    +0.000 A 
ATOM     15  C   UNL     1      -4.123  13.427  22.612  0.00  0.00    +0.000 A 
ATOM     16  C   UNL     1      -3.810  12.983  21.326  0.00  0.00    +0.000 A 
ATOM     17  C   UNL     1      -2.585  12.366  21.088  0.00  0.00    +0.000 A 
ENDBRANCH  11  12
ENDBRANCH   9  11
ENDBRANCH   1   7
BRANCH   1  18
ATOM     18  C   UNL     1       2.083   9.807  18.024  0.00  0.00    +0.000 C 
BRANCH  18  19
ATOM     19  C   UNL     1       2.049   8.316  17.667  0.00  0.00    +0.000 C 
BRANCH  19  20
ATOM     20  C   UNL     1       3.147   7.497  18.349  0.00  0.00    +0.000 C 
BRANCH  20  21
ATOM     21  C   UNL     1       3.758   6.476  17.383  0.00  0.00    +0.000 C 
BRANCH  21  25
ATOM     22  N   UNL     1       3.105   3.932  18.862  0.00  0.00    +0.000 N 
ATOM     23  C   UNL     1       4.426   4.371  18.676  0.00  0.00    +0.000 C 
ATOM     24  O   UNL     1       5.360   3.675  19.104  0.00  0.00    +0.000 OA
ATOM     25  N   UNL     1       4.721   5.590  18.038  0.00  0.00    +0.000 N 
BRANCH  22  26
ATOM     26  N   UNL     1       2.009   4.431  18.160  0.00  0.00    +0.000 NA
ATOM     27  O   UNL     1       1.690   3.708  17.214  0.00  0.00    +0.000 OA
ENDBRANCH  22  26
BRANCH  22  28
ATOM     28  C   UNL     1       2.840   2.674  19.573  0.00  0.00    +0.000 C 
BRANCH  28  30
ATOM     29  C   UNL     1       1.571   2.490  21.820  0.00  0.00    +0.000 C 
ATOM     30  C   UNL     1       1.644   2.719  20.499  0.00  0.00    +0.000 C 
ENDBRANCH  28  30
ENDBRANCH  22  28
BRANCH  25  31
ATOM     31  C   UNL     1       6.142   5.918  17.772  0.00  0.00    +0.000 C 
BRANCH  31  32
ATOM     32  C   UNL     1       6.434   7.363  17.325  0.00  0.00    +0.000 C 
ATOM     33  C   UNL     1       7.827   7.863  17.677  0.00  0.00    +0.000 C 
ENDBRANCH  31  32
ENDBRANCH  25  31
ENDBRANCH  21  25
ENDBRANCH  20  21
ENDBRANCH  19  20
ENDBRANCH  18  19
ENDBRANCH   1  18
TORSDOF 14
ENDMDL
MODEL 4
REMARK VINA RESULT:      -6.6      2.770      9.513
REMARK  Name = 
REMARK  16 active torsions:
REMARK  status: ('A' for Active; 'I' for Inactive)
REMARK    1  A    between atoms: C_2  and  C_3
REMARK    2  A    between atoms: C_3  and  N_4
REMARK    3  A    between atoms: N_4  and  N_5
REMARK    4  A    between atoms: N_9  and  C_10
REMARK    5  A    between atoms: N_9  and  C_13
REMARK    6  A    between atoms: C_10  and  C_11
REMARK    7  A    between atoms: C_11  and  C_12
REMARK    8  A    between atoms: C_13  and  C_14
REMARK    9  A    between atoms: C_14  and  C_15
REMARK   10  A    between atoms: C_15  and  C_16
REMARK   11  A    between atoms: C_16  and  C_17
REMARK   12  A    between atoms: C_17  and  N_18
REMARK   13  A    between atoms: C_17  and  C_22
REMARK   14  A    between atoms: C_19  and  C_20
REMARK   15  A    between atoms: N_24  and  C_25
REMARK   16  A    between atoms: C_25  and  C_26
REMARK                            x       y       z     vdW  Elec       q    Type
REMARK                         _______ _______ _______ _____ _____    ______ ____
ROOT
ATOM      1  C   UNL     1       3.609   5.898  18.363  0.00  0.00    +0.000 C 
ENDROOT
BRANCH   1   2
ATOM      2  N   UNL     1       2.854   4.708  17.967  0.00  0.00    +0.000 N 
ATOM      3  C   UNL     1       2.793   3.549  18.698  0.00  0.00    +0.000 C 
ATOM      4  C   UNL     1       1.973   2.456  18.069  0.00  0.00    +0.000 C 
ATOM      5  O   UNL     1       3.347   3.403  19.785  0.00  0.00    +0.000 OA
ATOM      6  H   UNL     1       2.311   4.778  17.116  0.00  0.00    +0.000 HD
ENDBRANCH   1   2
BRANCH   1   7
ATOM      7  C   UNL     1       5.096   5.792  17.980  0.00  0.00    +0.000 C 
ATOM      8  O   UNL     1       5.973   5.746  18.844  0.00  0.00    +0.000 OA
ATOM      9  N   UNL     1       5.346   5.765  16.636  0.00  0.00    +0.000 N 
ATOM     10  H   UNL     1       4.551   5.689  16.001  0.00  0.00    +0.000 HD
BRANCH   9  11
ATOM     11  C   UNL     1       6.668   5.590  16.101  0.00  0.00    +0.000 C 
BRANCH  11  12
ATOM     12  C   UNL     1       6.618   4.975  14.731  0.00  0.00    +0.000 A 
ATOM     13  C   UNL     1       5.614   4.049  14.413  0.00  0.00    +0.000 A 
ATOM     14  C   UNL     1       5.560   3.491  13.133  0.00  0.00    +0.000 A 
ATOM     15  C   UNL     1       6.518   3.830  12.177  0.00  0.00    +0.000 A 
ATOM     16  C   UNL     1       7.539   4.727  12.496  0.00  0.00    +0.000 A 
ATOM     17  C   UNL     1       7.590   5.291  13.769  0.00  0.00    +0.000 A 
ENDBRANCH  11  12
ENDBRANCH   9  11
ENDBRANCH   1   7
BRANCH   1  18
ATOM     18  C   UNL     1       2.989   7.228  17.904  0.00  0.00    +0.000 C 
BRANCH  18  19
ATOM     19  C   UNL     1       2.500   8.106  19.062  0.00  0.00    +0.000 C 
BRANCH  19  20
ATOM     20  C   UNL     1       1.405   9.097  18.659  0.00  0.00    +0.000 C 
BRANCH  20  21
ATOM     21  C   UNL     1       0.412   9.321  19.805  0.00  0.00    +0.000 C 
BRANCH  21  25
ATOM     22  N   UNL     1      -0.617  11.348  21.784  0.00  0.00    +0.000 N 
ATOM     23  C   UNL     1      -0.974  11.380  20.426  0.00  0.00    +0.000 C 
ATOM     24  O   UNL     1      -1.711  12.291  20.016  0.00  0.00    +0.000 OA
ATOM     25  N   UNL     1      -0.539  10.395  19.520  0.00  0.00    +0.000 N 
BRANCH  22  26
ATOM     26  N   UNL     1       0.440  10.599  22.297  0.00  0.00    +0.000 NA
ATOM     27  O   UNL     1       0.142  10.026  23.348  0.00  0.00    +0.000 OA
ENDBRANCH  22  26
BRANCH  22  28
ATOM     28  C   UNL     1      -1.130  12.372  22.705  0.00  0.00    +0.000 C 
BRANCH  28  30
ATOM     29  C   UNL     1      -3.646  12.736  23.185  0.00  0.00    +0.000 C 
ATOM     30  C   UNL     1      -2.490  12.061  23.290  0.00  0.00    +0.000 C 
ENDBRANCH  28  30
ENDBRANCH  22  28
BRANCH  25  31
ATOM     31  C   UNL     1      -0.858  10.573  18.083  0.00  0.00    +0.000 C 
BRANCH  31  32
ATOM     32  C   UNL     1      -2.110   9.838  17.568  0.00  0.00    +0.000 C 
ATOM     33  C   UNL     1      -2.457  10.124  16.115  0.00  0.00    +0.000 C 
ENDBRANCH  31  32
ENDBRANCH  25  31
ENDBRANCH  21  25
ENDBRANCH  20  21
ENDBRANCH  19  20
ENDBRANCH  18  19
ENDBRANCH   1  18
TORSDOF 14
ENDMDL
MODEL 5
REMARK VINA RESULT:      -6.6      2.926      9.439
REMARK  Name = 
REMARK  16 active torsions:
REMARK  status: ('A' for Active; 'I' for Inactive)
REMARK    1  A    between atoms: C_2  and  C_3
REMARK    2  A    between atoms: C_3  and  N_4
REMARK    3  A    between atoms: N_4  and  N_5
REMARK    4  A    between atoms: N_9  and  C_10
REMARK    5  A    between atoms: N_9  and  C_13
REMARK    6  A    between atoms: C_10  and  C_11
REMARK    7  A    between atoms: C_11  and  C_12
REMARK    8  A    between atoms: C_13  and  C_14
REMARK    9  A    between atoms: C_14  and  C_15
REMARK   10  A    between atoms: C_15  and  C_16
REMARK   11  A    between atoms: C_16  and  C_17
REMARK   12  A    between atoms: C_17  and  N_18
REMARK   13  A    between atoms: C_17  and  C_22
REMARK   14  A    between atoms: C_19  and  C_20
REMARK   15  A    between atoms: N_24  and  C_25
REMARK   16  A    between atoms: C_25  and  C_26
REMARK                            x       y       z     vdW  Elec       q    Type
REMARK                         _______ _______ _______ _____ _____    ______ ____
ROOT
ATOM      1  C   UNL     1       3.803   6.283  18.111  0.00  0.00    +0.000 C 
ENDROOT
BRANCH   1   2
ATOM      2  N   UNL     1       2.908   5.173  17.780  0.00  0.00    +0.000 N 
ATOM      3  C   UNL     1       2.117   4.517  18.689  0.00  0.00    +0.000 C 
ATOM      4  C   UNL     1       1.303   3.392  18.110  0.00  0.00    +0.000 C 
ATOM      5  O   UNL     1       2.057   4.819  19.878  0.00  0.00    +0.000 OA
ATOM      6  H   UNL     1       2.849   4.915  16.804  0.00  0.00    +0.000 HD
ENDBRANCH   1   2
BRANCH   1   7
ATOM      7  C   UNL     1       5.274   5.949  17.806  0.00  0.00    +0.000 C 
ATOM      8  O   UNL     1       6.143   6.055  18.674  0.00  0.00    +0.000 OA
ATOM      9  N   UNL     1       5.522   5.546  16.523  0.00  0.00    +0.000 N 
ATOM     10  H   UNL     1       4.723   5.376  15.911  0.00  0.00    +0.000 HD
BRANCH   9  11
ATOM     11  C   UNL     1       6.822   5.120  16.086  0.00  0.00    +0.000 C 
BRANCH  11  12
ATOM     12  C   UNL     1       6.807   4.749  14.631  0.00  0.00    +0.000 A 
ATOM     13  C   UNL     1       5.897   3.789  14.160  0.00  0.00    +0.000 A 
ATOM     14  C   UNL     1       5.874   3.458  12.803  0.00  0.00    +0.000 A 
ATOM     15  C   UNL     1       6.771   4.056  11.917  0.00  0.00    +0.000 A 
ATOM     16  C   UNL     1       7.699   4.988  12.383  0.00  0.00    +0.000 A 
ATOM     17  C   UNL     1       7.719   5.326  13.734  0.00  0.00    +0.000 A 
ENDBRANCH  11  12
ENDBRANCH   9  11
ENDBRANCH   1   7
BRANCH   1  18
ATOM     18  C   UNL     1       3.385   7.638  17.517  0.00  0.00    +0.000 C 
BRANCH  18  19
ATOM     19  C   UNL     1       1.984   8.089  17.946  0.00  0.00    +0.000 C 
BRANCH  19  20
ATOM     20  C   UNL     1       1.842   9.606  18.081  0.00  0.00    +0.000 C 
BRANCH  20  21
ATOM     21  C   UNL     1       0.519   9.981  18.759  0.00  0.00    +0.000 C 
BRANCH  21  25
ATOM     22  N   UNL     1      -0.286  12.798  19.464  0.00  0.00    +0.000 N 
ATOM     23  C   UNL     1       0.287  11.926  20.405  0.00  0.00    +0.000 C 
ATOM     24  O   UNL     1       0.438  12.313  21.574  0.00  0.00    +0.000 OA
ATOM     25  N   UNL     1       0.717  10.633  20.053  0.00  0.00    +0.000 N 
BRANCH  22  26
ATOM     26  N   UNL     1      -0.806  12.392  18.237  0.00  0.00    +0.000 NA
ATOM     27  O   UNL     1      -2.028  12.226  18.277  0.00  0.00    +0.000 OA
ENDBRANCH  22  26
BRANCH  22  28
ATOM     28  C   UNL     1      -0.680  14.156  19.864  0.00  0.00    +0.000 C 
BRANCH  28  30
ATOM     29  C   UNL     1      -0.261  16.283  18.453  0.00  0.00    +0.000 C 
ATOM     30  C   UNL     1       0.135  15.258  19.223  0.00  0.00    +0.000 C 
ENDBRANCH  28  30
ENDBRANCH  22  28
BRANCH  25  31
ATOM     31  C   UNL     1       1.194   9.735  21.131  0.00  0.00    +0.000 C 
BRANCH  31  32
ATOM     32  C   UNL     1       0.111   8.934  21.878  0.00  0.00    +0.000 C 
ATOM     33  C   UNL     1      -0.167   9.415  23.294  0.00  0.00    +0.000 C 
ENDBRANCH  31  32
ENDBRANCH  25  31
ENDBRANCH  21  25
ENDBRANCH  20  21
ENDBRANCH  19  20
ENDBRANCH  18  19
ENDBRANCH   1  18
TORSDOF 14
ENDMDL
MODEL 6
REMARK VINA RESULT:      -6.6      1.946      3.870
REMARK  Name = 
REMARK  16 active torsions:
REMARK  status: ('A' for Active; 'I' for Inactive)
REMARK    1  A    between atoms: C_2  and  C_3
REMARK    2  A    between atoms: C_3  and  N_4
REMARK    3  A    between atoms: N_4  and  N_5
REMARK    4  A    between atoms: N_9  and  C_10
REMARK    5  A    between atoms: N_9  and  C_13
REMARK    6  A    between atoms: C_10  and  C_11
REMARK    7  A    between atoms: C_11  and  C_12
REMARK    8  A    between atoms: C_13  and  C_14
REMARK    9  A    between atoms: C_14  and  C_15
REMARK   10  A    between atoms: C_15  and  C_16
REMARK   11  A    between atoms: C_16  and  C_17
REMARK   12  A    between atoms: C_17  and  N_18
REMARK   13  A    between atoms: C_17  and  C_22
REMARK   14  A    between atoms: C_19  and  C_20
REMARK   15  A    between atoms: N_24  and  C_25
REMARK   16  A    between atoms: C_25  and  C_26
REMARK                            x       y       z     vdW  Elec       q    Type
REMARK                         _______ _______ _______ _____ _____    ______ ____
ROOT
ATOM      1  C   UNL     1       0.257  10.449  19.506  0.00  0.00    +0.000 C 
ENDROOT
BRANCH   1   2
ATOM      2  N   UNL     1       0.613  10.280  20.915  0.00  0.00    +0.000 N 
ATOM      3  C   UNL     1       0.174   9.251  21.709  0.00  0.00    +0.000 C 
ATOM      4  C   UNL     1       0.658   9.310  23.133  0.00  0.00    +0.000 C 
ATOM      5  O   UNL     1      -0.544   8.341  21.303  0.00  0.00    +0.000 OA
ATOM      6  H   UNL     1       1.263  10.952  21.302  0.00  0.00    +0.000 HD
ENDBRANCH   1   2
BRANCH   1   7
ATOM      7  C   UNL     1      -0.642  11.677  19.281  0.00  0.00    +0.000 C 
ATOM      8  O   UNL     1      -0.323  12.561  18.484  0.00  0.00    +0.000 OA
ATOM      9  N   UNL     1      -1.785  11.702  20.031  0.00  0.00    +0.000 N 
ATOM     10  H   UNL     1      -2.021  10.870  20.575  0.00  0.00    +0.000 HD
BRANCH   9  11
ATOM     11  C   UNL     1      -2.777  12.732  19.893  0.00  0.00    +0.000 C 
BRANCH  11  12
ATOM     12  C   UNL     1      -4.070  12.171  19.377  0.00  0.00    +0.000 A 
ATOM     13  C   UNL     1      -4.122  11.581  18.105  0.00  0.00    +0.000 A 
ATOM     14  C   UNL     1      -5.324  11.044  17.634  0.00  0.00    +0.000 A 
ATOM     15  C   UNL     1      -6.480  11.117  18.412  0.00  0.00    +0.000 A 
ATOM     16  C   UNL     1      -6.442  11.730  19.666  0.00  0.00    +0.000 A 
ATOM     17  C   UNL     1      -5.245  12.258  20.141  0.00  0.00    +0.000 A 
ENDBRANCH  11  12
ENDBRANCH   9  11
ENDBRANCH   1   7
BRANCH   1  18
ATOM     18  C   UNL     1       1.452  10.425  18.539  0.00  0.00    +0.000 C 
BRANCH  18  19
ATOM     19  C   UNL     1       1.594   9.105  17.773  0.00  0.00    +0.000 C 
BRANCH  19  20
ATOM     20  C   UNL     1       2.288   8.002  18.575  0.00  0.00    +0.000 C 
BRANCH  20  21
ATOM     21  C   UNL     1       2.450   6.727  17.738  0.00  0.00    +0.000 C 
BRANCH  21  25
ATOM     22  N   UNL     1       2.686   3.978  18.952  0.00  0.00    +0.000 N 
ATOM     23  C   UNL     1       3.810   4.713  18.539  0.00  0.00    +0.000 C 
ATOM     24  O   UNL     1       4.937   4.204  18.645  0.00  0.00    +0.000 OA
ATOM     25  N   UNL     1       3.697   6.020  18.030  0.00  0.00    +0.000 N 
BRANCH  22  26
ATOM     26  N   UNL     1       1.376   4.285  18.590  0.00  0.00    +0.000 NA
ATOM     27  O   UNL     1       1.008   3.666  17.589  0.00  0.00    +0.000 OA
ENDBRANCH  22  26
BRANCH  22  28
ATOM     28  C   UNL     1       2.853   2.633  19.518  0.00  0.00    +0.000 C 
BRANCH  28  30
ATOM     29  C   UNL     1       1.919   3.042  21.896  0.00  0.00    +0.000 C 
ATOM     30  C   UNL     1       2.005   2.361  20.742  0.00  0.00    +0.000 C 
ENDBRANCH  28  30
ENDBRANCH  22  28
BRANCH  25  31
ATOM     31  C   UNL     1       4.917   6.676  17.502  0.00  0.00    +0.000 C 
BRANCH  31  32
ATOM     32  C   UNL     1       5.086   6.667  15.971  0.00  0.00    +0.000 C 
ATOM     33  C   UNL     1       5.764   5.424  15.417  0.00  0.00    +0.000 C 
ENDBRANCH  31  32
ENDBRANCH  25  31
ENDBRANCH  21  25
ENDBRANCH  20  21
ENDBRANCH  19  20
ENDBRANCH  18  19
ENDBRANCH   1  18
TORSDOF 14
ENDMDL
MODEL 7
REMARK VINA RESULT:      -6.6      5.742      9.846
REMARK  Name = 
REMARK  16 active torsions:
REMARK  status: ('A' for Active; 'I' for Inactive)
REMARK    1  A    between atoms: C_2  and  C_3
REMARK    2  A    between atoms: C_3  and  N_4
REMARK    3  A    between atoms: N_4  and  N_5
REMARK    4  A    between atoms: N_9  and  C_10
REMARK    5  A    between atoms: N_9  and  C_13
REMARK    6  A    between atoms: C_10  and  C_11
REMARK    7  A    between atoms: C_11  and  C_12
REMARK    8  A    between atoms: C_13  and  C_14
REMARK    9  A    between atoms: C_14  and  C_15
REMARK   10  A    between atoms: C_15  and  C_16
REMARK   11  A    between atoms: C_16  and  C_17
REMARK   12  A    between atoms: C_17  and  N_18
REMARK   13  A    between atoms: C_17  and  C_22
REMARK   14  A    between atoms: C_19  and  C_20
REMARK   15  A    between atoms: N_24  and  C_25
REMARK   16  A    between atoms: C_25  and  C_26
REMARK                            x       y       z     vdW  Elec       q    Type
REMARK                         _______ _______ _______ _____ _____    ______ ____
ROOT
ATOM      1  C   UNL     1       6.553   6.679  17.618  0.00  0.00    +0.000 C 
ENDROOT
BRANCH   1   2
ATOM      2  N   UNL     1       6.435   6.173  16.249  0.00  0.00    +0.000 N 
ATOM      3  C   UNL     1       7.110   5.082  15.764  0.00  0.00    +0.000 C 
ATOM      4  C   UNL     1       6.842   4.774  14.316  0.00  0.00    +0.000 C 
ATOM      5  O   UNL     1       7.866   4.395  16.446  0.00  0.00    +0.000 OA
ATOM      6  H   UNL     1       5.773   6.646  15.647  0.00  0.00    +0.000 HD
ENDBRANCH   1   2
BRANCH   1   7
ATOM      7  C   UNL     1       6.392   5.560  18.662  0.00  0.00    +0.000 C 
ATOM      8  O   UNL     1       7.200   5.431  19.583  0.00  0.00    +0.000 OA
ATOM      9  N   UNL     1       5.312   4.744  18.473  0.00  0.00    +0.000 N 
ATOM     10  H   UNL     1       4.636   5.001  17.753  0.00  0.00    +0.000 HD
BRANCH   9  11
ATOM     11  C   UNL     1       4.965   3.698  19.395  0.00  0.00    +0.000 C 
BRANCH  11  12
ATOM     12  C   UNL     1       3.479   3.486  19.437  0.00  0.00    +0.000 A 
ATOM     13  C   UNL     1       2.693   4.206  20.350  0.00  0.00    +0.000 A 
ATOM     14  C   UNL     1       1.308   4.019  20.375  0.00  0.00    +0.000 A 
ATOM     15  C   UNL     1       0.706   3.099  19.516  0.00  0.00    +0.000 A 
ATOM     16  C   UNL     1       1.486   2.357  18.628  0.00  0.00    +0.000 A 
ATOM     17  C   UNL     1       2.865   2.547  18.594  0.00  0.00    +0.000 A 
ENDBRANCH  11  12
ENDBRANCH   9  11
ENDBRANCH   1   7
BRANCH   1  18
ATOM     18  C   UNL     1       7.805   7.533  17.875  0.00  0.00    +0.000 C 
BRANCH  18  19
ATOM     19  C   UNL     1       7.582   9.032  17.643  0.00  0.00    +0.000 C 
BRANCH  19  20
ATOM     20  C   UNL     1       8.738   9.907  18.132  0.00  0.00    +0.000 C 
BRANCH  20  21
ATOM     21  C   UNL     1       8.403  11.397  17.991  0.00  0.00    +0.000 C 
BRANCH  21  25
ATOM     22  N   UNL     1       8.455  14.404  17.795  0.00  0.00    +0.000 N 
ATOM     23  C   UNL     1       9.557  13.666  18.258  0.00  0.00    +0.000 C 
ATOM     24  O   UNL     1      10.574  14.268  18.632  0.00  0.00    +0.000 OA
ATOM     25  N   UNL     1       9.547  12.259  18.289  0.00  0.00    +0.000 N 
BRANCH  22  26
ATOM     26  N   UNL     1       7.167  13.889  17.665  0.00  0.00    +0.000 NA
ATOM     27  O   UNL     1       6.317  14.775  17.544  0.00  0.00    +0.000 OA
ENDBRANCH  22  26
BRANCH  22  28
ATOM     28  C   UNL     1       8.523  15.871  17.738  0.00  0.00    +0.000 C 
BRANCH  28  30
ATOM     29  C   UNL     1       7.916  16.313  20.214  0.00  0.00    +0.000 C 
ATOM     30  C   UNL     1       8.613  16.545  19.090  0.00  0.00    +0.000 C 
ENDBRANCH  28  30
ENDBRANCH  22  28
BRANCH  25  31
ATOM     31  C   UNL     1      10.700  11.562  18.908  0.00  0.00    +0.000 C 
BRANCH  31  32
ATOM     32  C   UNL     1      10.565  11.220  20.404  0.00  0.00    +0.000 C 
ATOM     33  C   UNL     1       9.995  12.341  21.259  0.00  0.00    +0.000 C 
ENDBRANCH  31  32
ENDBRANCH  25  31
ENDBRANCH  21  25
ENDBRANCH  20  21
ENDBRANCH  19  20
ENDBRANCH  18  19
ENDBRANCH   1  18
TORSDOF 14
ENDMDL
MODEL 8
REMARK VINA RESULT:      -6.6      2.910      8.864
REMARK  Name = 
REMARK  16 active torsions:
REMARK  status: ('A' for Active; 'I' for Inactive)
REMARK    1  A    between atoms: C_2  and  C_3
REMARK    2  A    between atoms: C_3  and  N_4
REMARK    3  A    between atoms: N_4  and  N_5
REMARK    4  A    between atoms: N_9  and  C_10
REMARK    5  A    between atoms: N_9  and  C_13
REMARK    6  A    between atoms: C_10  and  C_11
REMARK    7  A    between atoms: C_11  and  C_12
REMARK    8  A    between atoms: C_13  and  C_14
REMARK    9  A    between atoms: C_14  and  C_15
REMARK   10  A    between atoms: C_15  and  C_16
REMARK   11  A    between atoms: C_16  and  C_17
REMARK   12  A    between atoms: C_17  and  N_18
REMARK   13  A    between atoms: C_17  and  C_22
REMARK   14  A    between atoms: C_19  and  C_20
REMARK   15  A    between atoms: N_24  and  C_25
REMARK   16  A    between atoms: C_25  and  C_26
REMARK                            x       y       z     vdW  Elec       q    Type
REMARK                         _______ _______ _______ _____ _____    ______ ____
ROOT
ATOM      1  C   UNL     1       4.669   6.268  17.192  0.00  0.00    +0.000 C 
ENDROOT
BRANCH   1   2
ATOM      2  N   UNL     1       5.743   7.179  17.590  0.00  0.00    +0.000 N 
ATOM      3  C   UNL     1       7.033   7.106  17.129  0.00  0.00    +0.000 C 
ATOM      4  C   UNL     1       7.962   8.140  17.706  0.00  0.00    +0.000 C 
ATOM      5  O   UNL     1       7.412   6.279  16.304  0.00  0.00    +0.000 OA
ATOM      6  H   UNL     1       5.489   7.934  18.214  0.00  0.00    +0.000 HD
ENDBRANCH   1   2
BRANCH   1   7
ATOM      7  C   UNL     1       4.724   4.938  17.965  0.00  0.00    +0.000 C 
ATOM      8  O   UNL     1       5.394   4.829  18.992  0.00  0.00    +0.000 OA
ATOM      9  N   UNL     1       3.993   3.921  17.417  0.00  0.00    +0.000 N 
ATOM     10  H   UNL     1       3.377   4.139  16.633  0.00  0.00    +0.000 HD
BRANCH   9  11
ATOM     11  C   UNL     1       3.867   2.636  18.047  0.00  0.00    +0.000 C 
BRANCH  11  12
ATOM     12  C   UNL     1       2.950   2.704  19.235  0.00  0.00    +0.000 A 
ATOM     13  C   UNL     1       3.440   2.416  20.518  0.00  0.00    +0.000 A 
ATOM     14  C   UNL     1       2.589   2.496  21.623  0.00  0.00    +0.000 A 
ATOM     15  C   UNL     1       1.246   2.835  21.454  0.00  0.00    +0.000 A 
ATOM     16  C   UNL     1       0.745   3.092  20.177  0.00  0.00    +0.000 A 
ATOM     17  C   UNL     1       1.592   3.021  19.074  0.00  0.00    +0.000 A 
ENDBRANCH  11  12
ENDBRANCH   9  11
ENDBRANCH   1   7
BRANCH   1  18
ATOM     18  C   UNL     1       3.263   6.891  17.216  0.00  0.00    +0.000 C 
BRANCH  18  19
ATOM     19  C   UNL     1       3.247   8.346  17.698  0.00  0.00    +0.000 C 
BRANCH  19  20
ATOM     20  C   UNL     1       1.839   8.925  17.856  0.00  0.00    +0.000 C 
BRANCH  20  21
ATOM     21  C   UNL     1       1.888  10.429  18.149  0.00  0.00    +0.000 C 
BRANCH  21  25
ATOM     22  N   UNL     1       1.794  13.164  19.410  0.00  0.00    +0.000 N 
ATOM     23  C   UNL     1       1.105  12.067  19.953  0.00  0.00    +0.000 C 
ATOM     24  O   UNL     1       0.407  12.231  20.965  0.00  0.00    +0.000 OA
ATOM     25  N   UNL     1       1.203  10.779  19.394  0.00  0.00    +0.000 N 
BRANCH  22  26
ATOM     26  N   UNL     1       2.328  13.194  18.124  0.00  0.00    +0.000 NA
ATOM     27  O   UNL     1       3.479  13.637  18.104  0.00  0.00    +0.000 OA
ENDBRANCH  22  26
BRANCH  22  28
ATOM     28  C   UNL     1       1.699  14.483  20.052  0.00  0.00    +0.000 C 
BRANCH  28  30
ATOM     29  C   UNL     1      -0.612  15.479  19.449  0.00  0.00    +0.000 C 
ATOM     30  C   UNL     1       0.728  15.434  19.385  0.00  0.00    +0.000 C 
ENDBRANCH  28  30
ENDBRANCH  22  28
BRANCH  25  31
ATOM     31  C   UNL     1       0.348   9.704  19.952  0.00  0.00    +0.000 C 
BRANCH  31  32
ATOM     32  C   UNL     1       0.965   8.862  21.083  0.00  0.00    +0.000 C 
ATOM     33  C   UNL     1       0.516   9.255  22.482  0.00  0.00    +0.000 C 
ENDBRANCH  31  32
ENDBRANCH  25  31
ENDBRANCH  21  25
ENDBRANCH  20  21
ENDBRANCH  19  20
ENDBRANCH  18  19
ENDBRANCH   1  18
TORSDOF 14
ENDMDL
MODEL 9
REMARK VINA RESULT:      -6.5      2.403      3.677
REMARK  Name = 
REMARK  16 active torsions:
REMARK  status: ('A' for Active; 'I' for Inactive)
REMARK    1  A    between atoms: C_2  and  C_3
REMARK    2  A    between atoms: C_3  and  N_4
REMARK    3  A    between atoms: N_4  and  N_5
REMARK    4  A    between atoms: N_9  and  C_10
REMARK    5  A    between atoms: N_9  and  C_13
REMARK    6  A    between atoms: C_10  and  C_11
REMARK    7  A    between atoms: C_11  and  C_12
REMARK    8  A    between atoms: C_13  and  C_14
REMARK    9  A    between atoms: C_14  and  C_15
REMARK   10  A    between atoms: C_15  and  C_16
REMARK   11  A    between atoms: C_16  and  C_17
REMARK   12  A    between atoms: C_17  and  N_18
REMARK   13  A    between atoms: C_17  and  C_22
REMARK   14  A    between atoms: C_19  and  C_20
REMARK   15  A    between atoms: N_24  and  C_25
REMARK   16  A    between atoms: C_25  and  C_26
REMARK                            x       y       z     vdW  Elec       q    Type
REMARK                         _______ _______ _______ _____ _____    ______ ____
ROOT
ATOM      1  C   UNL     1       0.857  10.503  18.237  0.00  0.00    +0.000 C 
ENDROOT
BRANCH   1   2
ATOM      2  N   UNL     1      -0.354   9.922  17.655  0.00  0.00    +0.000 N 
ATOM      3  C   UNL     1      -1.512  10.618  17.419  0.00  0.00    +0.000 C 
ATOM      4  C   UNL     1      -2.628   9.794  16.837  0.00  0.00    +0.000 C 
ATOM      5  O   UNL     1      -1.640  11.818  17.648  0.00  0.00    +0.000 OA
ATOM      6  H   UNL     1      -0.301   8.952  17.372  0.00  0.00    +0.000 HD
ENDBRANCH   1   2
BRANCH   1   7
ATOM      7  C   UNL     1       0.669  10.861  19.722  0.00  0.00    +0.000 C 
ATOM      8  O   UNL     1       0.799  10.008  20.602  0.00  0.00    +0.000 OA
ATOM      9  N   UNL     1       0.343  12.166  19.965  0.00  0.00    +0.000 N 
ATOM     10  H   UNL     1       0.374  12.823  19.184  0.00  0.00    +0.000 HD
BRANCH   9  11
ATOM     11  C   UNL     1       0.208  12.692  21.295  0.00  0.00    +0.000 C 
BRANCH  11  12
ATOM     12  C   UNL     1      -1.227  12.675  21.738  0.00  0.00    +0.000 A 
ATOM     13  C   UNL     1      -2.229  13.176  20.893  0.00  0.00    +0.000 A 
ATOM     14  C   UNL     1      -3.566  13.144  21.301  0.00  0.00    +0.000 A 
ATOM     15  C   UNL     1      -3.906  12.641  22.557  0.00  0.00    +0.000 A 
ATOM     16  C   UNL     1      -2.911  12.170  23.416  0.00  0.00    +0.000 A 
ATOM     17  C   UNL     1      -1.580  12.193  23.009  0.00  0.00    +0.000 A 
ENDBRANCH  11  12
ENDBRANCH   9  11
ENDBRANCH   1   7
BRANCH   1  18
ATOM     18  C   UNL     1       2.135   9.682  18.000  0.00  0.00    +0.000 C 
BRANCH  18  19
ATOM     19  C   UNL     1       1.862   8.224  17.611  0.00  0.00    +0.000 C 
BRANCH  19  20
ATOM     20  C   UNL     1       2.222   7.219  18.707  0.00  0.00    +0.000 C 
BRANCH  20  21
ATOM     21  C   UNL     1       3.599   6.594  18.455  0.00  0.00    +0.000 C 
BRANCH  21  25
ATOM     22  N   UNL     1       5.772   5.097  16.999  0.00  0.00    +0.000 N 
ATOM     23  C   UNL     1       4.540   4.503  17.319  0.00  0.00    +0.000 C 
ATOM     24  O   UNL     1       4.348   3.313  17.024  0.00  0.00    +0.000 OA
ATOM     25  N   UNL     1       3.508   5.226  17.944  0.00  0.00    +0.000 N 
BRANCH  22  26
ATOM     26  N   UNL     1       6.233   6.289  17.554  0.00  0.00    +0.000 NA
ATOM     27  O   UNL     1       6.840   6.984  16.736  0.00  0.00    +0.000 OA
ENDBRANCH  22  26
BRANCH  22  28
ATOM     28  C   UNL     1       6.808   4.318  16.306  0.00  0.00    +0.000 C 
BRANCH  28  30
ATOM     29  C   UNL     1       5.722   4.581  13.973  0.00  0.00    +0.000 C 
ATOM     30  C   UNL     1       6.450   3.924  14.890  0.00  0.00    +0.000 C 
ENDBRANCH  28  30
ENDBRANCH  22  28
BRANCH  25  31
ATOM     31  C   UNL     1       2.288   4.492  18.358  0.00  0.00    +0.000 C 
BRANCH  31  32
ATOM     32  C   UNL     1       2.373   3.731  19.695  0.00  0.00    +0.000 C 
ATOM     33  C   UNL     1       1.102   3.775  20.529  0.00  0.00    +0.000 C 
ENDBRANCH  31  32
ENDBRANCH  25  31
ENDBRANCH  21  25
ENDBRANCH  20  21
ENDBRANCH  19  20
ENDBRANCH  18  19
ENDBRANCH   1  18
TORSDOF 14
ENDMDL
