MODEL 1
REMARK VINA RESULT:      -7.9      0.000      0.000
REMARK  Name = 
REMARK  7 active torsions:
REMARK  status: ('A' for Active; 'I' for Inactive)
REMARK    1  A    between atoms: C_1  and  C_2
REMARK    2  A    between atoms: C_2  and  C_3
REMARK    3  A    between atoms: C_3  and  C_4
REMARK    4  A    between atoms: C_4  and  C_5
REMARK    5  A    between atoms: C_5  and  C_6
REMARK    6  A    between atoms: C_6  and  C_7
REMARK    7  A    between atoms: C_12  and  C_13
REMARK                            x       y       z     vdW  Elec       q    Type
REMARK                         _______ _______ _______ _____ _____    ______ ____
ROOT
ATOM      1  C   UNL     1       4.000   5.917  18.321  0.00  0.00    +0.000 C 
ATOM      2  C   UNL     1       5.119   5.311  19.266  0.00  0.00    +0.000 C 
ATOM      3  C   UNL     1       6.159   4.964  18.283  0.00  0.00    +0.000 A 
ATOM      4  N   UNL     1       7.396   4.419  18.312  0.00  0.00    +0.000 N 
ATOM      5  N   UNL     1       7.881   4.213  17.057  0.00  0.00    +0.000 NA
ATOM      6  C   UNL     1       6.903   4.664  16.241  0.00  0.00    +0.000 A 
ATOM      7  C   UNL     1       5.823   5.139  16.984  0.00  0.00    +0.000 A 
ATOM      8  C   UNL     1       4.460   5.661  16.822  0.00  0.00    +0.000 C 
ATOM      9  H   UNL     1       7.962   4.138  19.109  0.00  0.00    +0.000 HD
ENDROOT
BRANCH   6  10
ATOM     10  C   UNL     1       7.003   4.614  14.767  0.00  0.00    +0.000 A 
ATOM     11  N   UNL     1       7.717   5.411  13.993  0.00  0.00    +0.000 NA
ATOM     12  N   UNL     1       7.537   4.944  12.709  0.00  0.00    +0.000 NA
ATOM     13  N   UNL     1       6.715   3.900  12.689  0.00  0.00    +0.000 NA
ATOM     14  N   UNL     1       6.367   3.717  13.973  0.00  0.00    +0.000 N 
ATOM     15  H   UNL     1       5.705   2.994  14.230  0.00  0.00    +0.000 HD
ENDBRANCH   6  10
BRANCH   1  16
ATOM     16  C   UNL     1       2.567   5.402  18.537  0.00  0.00    +0.000 C 
BRANCH  16  17
ATOM     17  C   UNL     1       2.190   4.174  17.707  0.00  0.00    +0.000 C 
BRANCH  17  18
ATOM     18  C   UNL     1       2.299   2.897  18.550  0.00  0.00    +0.000 C 
BRANCH  18  19
ATOM     19  C   UNL     1       1.003   2.628  19.311  0.00  0.00    +0.000 C 
BRANCH  19  21
ATOM     20  C   UNL     1       2.436   2.769  21.365  0.00  0.00    +0.000 C 
ATOM     21  C   UNL     1       1.088   3.117  20.756  0.00  0.00    +0.000 C 
ENDBRANCH  19  21
ENDBRANCH  18  19
ENDBRANCH  17  18
ENDBRANCH  16  17
ENDBRANCH   1  16
TORSDOF 6
ENDMDL
MODEL 2
REMARK VINA RESULT:      -7.9      1.007      1.284
REMARK  Name = 
REMARK  7 active torsions:
REMARK  status: ('A' for Active; 'I' for Inactive)
REMARK    1  A    between atoms: C_1  and  C_2
REMARK    2  A    between atoms: C_2  and  C_3
REMARK    3  A    between atoms: C_3  and  C_4
REMARK    4  A    between atoms: C_4  and  C_5
REMARK    5  A    between atoms: C_5  and  C_6
REMARK    6  A    between atoms: C_6  and  C_7
REMARK    7  A    between atoms: C_12  and  C_13
REMARK                            x       y       z     vdW  Elec       q    Type
REMARK                         _______ _______ _______ _____ _____    ______ ____
ROOT
ATOM      1  C   UNL     1       3.635   3.949  17.908  0.00  0.00    +0.000 C 
ATOM      2  C   UNL     1       4.866   3.952  18.905  0.00  0.00    +0.000 C 
ATOM      3  C   UNL     1       5.976   4.236  17.980  0.00  0.00    +0.000 A 
ATOM      4  N   UNL     1       7.315   4.400  18.072  0.00  0.00    +0.000 N 
ATOM      5  N   UNL     1       7.887   4.537  16.845  0.00  0.00    +0.000 NA
ATOM      6  C   UNL     1       6.850   4.465  15.981  0.00  0.00    +0.000 A 
ATOM      7  C   UNL     1       5.650   4.283  16.667  0.00  0.00    +0.000 A 
ATOM      8  C   UNL     1       4.220   4.043  16.434  0.00  0.00    +0.000 C 
ATOM      9  H   UNL     1       7.913   4.406  18.895  0.00  0.00    +0.000 HD
ENDROOT
BRANCH   6  10
ATOM     10  C   UNL     1       7.021   4.551  14.515  0.00  0.00    +0.000 A 
ATOM     11  N   UNL     1       7.734   5.442  13.850  0.00  0.00    +0.000 NA
ATOM     12  N   UNL     1       7.635   5.084  12.523  0.00  0.00    +0.000 NA
ATOM     13  N   UNL     1       6.863   4.014  12.370  0.00  0.00    +0.000 NA
ATOM     14  N   UNL     1       6.464   3.704  13.615  0.00  0.00    +0.000 N 
ATOM     15  H   UNL     1       5.823   2.934  13.774  0.00  0.00    +0.000 HD
ENDBRANCH   6  10
BRANCH   1  16
ATOM     16  C   UNL     1       2.662   2.763  18.023  0.00  0.00    +0.000 C 
BRANCH  16  17
ATOM     17  C   UNL     1       1.193   3.148  18.207  0.00  0.00    +0.000 C 
BRANCH  17  18
ATOM     18  C   UNL     1       0.781   3.020  19.680  0.00  0.00    +0.000 C 
BRANCH  18  19
ATOM     19  C   UNL     1       1.091   4.302  20.450  0.00  0.00    +0.000 C 
BRANCH  19  21
ATOM     20  C   UNL     1       2.511   2.601  21.625  0.00  0.00    +0.000 C 
ATOM     21  C   UNL     1       2.179   4.079  21.498  0.00  0.00    +0.000 C 
ENDBRANCH  19  21
ENDBRANCH  18  19
ENDBRANCH  17  18
ENDBRANCH  16  17
ENDBRANCH   1  16
TORSDOF 6
ENDMDL
MODEL 3
REMARK VINA RESULT:      -7.7      0.938      1.415
REMARK  Name = 
REMARK  7 active torsions:
REMARK  status: ('A' for Active; 'I' for Inactive)
REMARK    1  A    between atoms: C_1  and  C_2
REMARK    2  A    between atoms: C_2  and  C_3
REMARK    3  A    between atoms: C_3  and  C_4
REMARK    4  A    between atoms: C_4  and  C_5
REMARK    5  A    between atoms: C_5  and  C_6
REMARK    6  A    between atoms: C_6  and  C_7
REMARK    7  A    between atoms: C_12  and  C_13
REMARK                            x       y       z     vdW  Elec       q    Type
REMARK                         _______ _______ _______ _____ _____    ______ ____
ROOT
ATOM      1  C   UNL     1       3.457   4.382  17.536  0.00  0.00    +0.000 C 
ATOM      2  C   UNL     1       4.571   4.138  18.635  0.00  0.00    +0.000 C 
ATOM      3  C   UNL     1       5.796   4.336  17.843  0.00  0.00    +0.000 A 
ATOM      4  N   UNL     1       7.129   4.304  18.069  0.00  0.00    +0.000 N 
ATOM      5  N   UNL     1       7.835   4.454  16.915  0.00  0.00    +0.000 NA
ATOM      6  C   UNL     1       6.890   4.593  15.959  0.00  0.00    +0.000 A 
ATOM      7  C   UNL     1       5.614   4.527  16.515  0.00  0.00    +0.000 A 
ATOM      8  C   UNL     1       4.195   4.506  16.134  0.00  0.00    +0.000 C 
ATOM      9  H   UNL     1       7.636   4.165  18.940  0.00  0.00    +0.000 HD
ENDROOT
BRANCH   6  10
ATOM     10  C   UNL     1       7.218   4.766  14.528  0.00  0.00    +0.000 A 
ATOM     11  N   UNL     1       6.676   4.127  13.507  0.00  0.00    +0.000 NA
ATOM     12  N   UNL     1       7.261   4.661  12.379  0.00  0.00    +0.000 NA
ATOM     13  N   UNL     1       8.157   5.589  12.697  0.00  0.00    +0.000 NA
ATOM     14  N   UNL     1       8.143   5.629  14.039  0.00  0.00    +0.000 N 
ATOM     15  H   UNL     1       8.775   6.240  14.544  0.00  0.00    +0.000 HD
ENDBRANCH   6  10
BRANCH   1  16
ATOM     16  C   UNL     1       2.330   3.337  17.456  0.00  0.00    +0.000 C 
BRANCH  16  17
ATOM     17  C   UNL     1       2.631   2.009  18.152  0.00  0.00    +0.000 C 
BRANCH  17  18
ATOM     18  C   UNL     1       1.706   1.811  19.361  0.00  0.00    +0.000 C 
BRANCH  18  19
ATOM     19  C   UNL     1       0.771   3.005  19.539  0.00  0.00    +0.000 C 
BRANCH  19  21
ATOM     20  C   UNL     1       1.974   3.082  21.738  0.00  0.00    +0.000 C 
ATOM     21  C   UNL     1       1.205   3.890  20.706  0.00  0.00    +0.000 C 
ENDBRANCH  19  21
ENDBRANCH  18  19
ENDBRANCH  17  18
ENDBRANCH  16  17
ENDBRANCH   1  16
TORSDOF 6
ENDMDL
MODEL 4
REMARK VINA RESULT:      -7.7      0.696      1.274
REMARK  Name = 
REMARK  7 active torsions:
REMARK  status: ('A' for Active; 'I' for Inactive)
REMARK    1  A    between atoms: C_1  and  C_2
REMARK    2  A    between atoms: C_2  and  C_3
REMARK    3  A    between atoms: C_3  and  C_4
REMARK    4  A    between atoms: C_4  and  C_5
REMARK    5  A    between atoms: C_5  and  C_6
REMARK    6  A    between atoms: C_6  and  C_7
REMARK    7  A    between atoms: C_12  and  C_13
REMARK                            x       y       z     vdW  Elec       q    Type
REMARK                         _______ _______ _______ _____ _____    ______ ____
ROOT
ATOM      1  C   UNL     1       4.011   6.037  18.281  0.00  0.00    +0.000 C 
ATOM      2  C   UNL     1       5.117   5.415  19.231  0.00  0.00    +0.000 C 
ATOM      3  C   UNL     1       6.142   5.023  18.249  0.00  0.00    +0.000 A 
ATOM      4  N   UNL     1       7.364   4.444  18.282  0.00  0.00    +0.000 N 
ATOM      5  N   UNL     1       7.837   4.206  17.028  0.00  0.00    +0.000 NA
ATOM      6  C   UNL     1       6.868   4.671  16.209  0.00  0.00    +0.000 A 
ATOM      7  C   UNL     1       5.805   5.188  16.948  0.00  0.00    +0.000 A 
ATOM      8  C   UNL     1       4.456   5.745  16.784  0.00  0.00    +0.000 C 
ATOM      9  H   UNL     1       7.925   4.160  19.080  0.00  0.00    +0.000 HD
ENDROOT
BRANCH   6  10
ATOM     10  C   UNL     1       6.960   4.595  14.735  0.00  0.00    +0.000 A 
ATOM     11  N   UNL     1       7.645   5.398  13.941  0.00  0.00    +0.000 NA
ATOM     12  N   UNL     1       7.470   4.902  12.668  0.00  0.00    +0.000 NA
ATOM     13  N   UNL     1       6.680   3.834  12.673  0.00  0.00    +0.000 NA
ATOM     14  N   UNL     1       6.345   3.666  13.963  0.00  0.00    +0.000 N 
ATOM     15  H   UNL     1       5.707   2.928  14.239  0.00  0.00    +0.000 HD
ENDBRANCH   6  10
BRANCH   1  16
ATOM     16  C   UNL     1       2.565   5.565  18.511  0.00  0.00    +0.000 C 
BRANCH  16  17
ATOM     17  C   UNL     1       2.298   4.944  19.883  0.00  0.00    +0.000 C 
BRANCH  17  18
ATOM     18  C   UNL     1       1.165   3.913  19.798  0.00  0.00    +0.000 C 
BRANCH  18  19
ATOM     19  C   UNL     1       1.719   2.492  19.730  0.00  0.00    +0.000 C 
BRANCH  19  21
ATOM     20  C   UNL     1       3.506   1.959  18.053  0.00  0.00    +0.000 C 
ATOM     21  C   UNL     1       2.009   2.070  18.291  0.00  0.00    +0.000 C 
ENDBRANCH  19  21
ENDBRANCH  18  19
ENDBRANCH  17  18
ENDBRANCH  16  17
ENDBRANCH   1  16
TORSDOF 6
ENDMDL
MODEL 5
REMARK VINA RESULT:      -7.6      0.942      1.466
REMARK  Name = 
REMARK  7 active torsions:
REMARK  status: ('A' for Active; 'I' for Inactive)
REMARK    1  A    between atoms: C_1  and  C_2
REMARK    2  A    between atoms: C_2  and  C_3
REMARK    3  A    between atoms: C_3  and  C_4
REMARK    4  A    between atoms: C_4  and  C_5
REMARK    5  A    between atoms: C_5  and  C_6
REMARK    6  A    between atoms: C_6  and  C_7
REMARK    7  A    between atoms: C_12  and  C_13
REMARK                            x       y       z     vdW  Elec       q    Type
REMARK                         _______ _______ _______ _____ _____    ______ ____
ROOT
ATOM      1  C   UNL     1       4.034   6.067  18.430  0.00  0.00    +0.000 C 
ATOM      2  C   UNL     1       5.126   5.415  19.376  0.00  0.00    +0.000 C 
ATOM      3  C   UNL     1       6.161   5.045  18.397  0.00  0.00    +0.000 A 
ATOM      4  N   UNL     1       7.380   4.460  18.429  0.00  0.00    +0.000 N 
ATOM      5  N   UNL     1       7.867   4.252  17.175  0.00  0.00    +0.000 NA
ATOM      6  C   UNL     1       6.910   4.743  16.356  0.00  0.00    +0.000 A 
ATOM      7  C   UNL     1       5.841   5.245  17.097  0.00  0.00    +0.000 A 
ATOM      8  C   UNL     1       4.496   5.813  16.931  0.00  0.00    +0.000 C 
ATOM      9  H   UNL     1       7.931   4.152  19.226  0.00  0.00    +0.000 HD
ENDROOT
BRANCH   6  10
ATOM     10  C   UNL     1       7.020   4.706  14.883  0.00  0.00    +0.000 A 
ATOM     11  N   UNL     1       6.364   3.909  14.058  0.00  0.00    +0.000 NA
ATOM     12  N   UNL     1       6.755   4.281  12.791  0.00  0.00    +0.000 NA
ATOM     13  N   UNL     1       7.646   5.266  12.832  0.00  0.00    +0.000 NA
ATOM     14  N   UNL     1       7.825   5.506  14.141  0.00  0.00    +0.000 N 
ATOM     15  H   UNL     1       8.496   6.200  14.452  0.00  0.00    +0.000 HD
ENDBRANCH   6  10
BRANCH   1  16
ATOM     16  C   UNL     1       2.584   5.596  18.630  0.00  0.00    +0.000 C 
BRANCH  16  17
ATOM     17  C   UNL     1       2.074   4.607  17.580  0.00  0.00    +0.000 C 
BRANCH  17  18
ATOM     18  C   UNL     1       1.953   3.199  18.178  0.00  0.00    +0.000 C 
BRANCH  18  19
ATOM     19  C   UNL     1       3.000   2.259  17.586  0.00  0.00    +0.000 C 
BRANCH  19  21
ATOM     20  C   UNL     1       4.168   2.199  19.805  0.00  0.00    +0.000 C 
ATOM     21  C   UNL     1       3.622   1.366  18.657  0.00  0.00    +0.000 C 
ENDBRANCH  19  21
ENDBRANCH  18  19
ENDBRANCH  17  18
ENDBRANCH  16  17
ENDBRANCH   1  16
TORSDOF 6
ENDMDL
MODEL 6
REMARK VINA RESULT:      -7.5      0.815      1.125
REMARK  Name = 
REMARK  7 active torsions:
REMARK  status: ('A' for Active; 'I' for Inactive)
REMARK    1  A    between atoms: C_1  and  C_2
REMARK    2  A    between atoms: C_2  and  C_3
REMARK    3  A    between atoms: C_3  and  C_4
REMARK    4  A    between atoms: C_4  and  C_5
REMARK    5  A    between atoms: C_5  and  C_6
REMARK    6  A    between atoms: C_6  and  C_7
REMARK    7  A    between atoms: C_12  and  C_13
REMARK                            x       y       z     vdW  Elec       q    Type
REMARK                         _______ _______ _______ _____ _____    ______ ____
ROOT
ATOM      1  C   UNL     1       4.304   6.446  18.068  0.00  0.00    +0.000 C 
ATOM      2  C   UNL     1       5.329   5.701  19.017  0.00  0.00    +0.000 C 
ATOM      3  C   UNL     1       6.298   5.185  18.036  0.00  0.00    +0.000 A 
ATOM      4  N   UNL     1       7.441   4.464  18.068  0.00  0.00    +0.000 N 
ATOM      5  N   UNL     1       7.879   4.164  16.815  0.00  0.00    +0.000 NA
ATOM      6  C   UNL     1       6.970   4.738  15.995  0.00  0.00    +0.000 A 
ATOM      7  C   UNL     1       5.979   5.382  16.735  0.00  0.00    +0.000 A 
ATOM      8  C   UNL     1       4.706   6.097  16.571  0.00  0.00    +0.000 C 
ATOM      9  H   UNL     1       7.967   4.118  18.867  0.00  0.00    +0.000 HD
ENDROOT
BRANCH   6  10
ATOM     10  C   UNL     1       7.048   4.645  14.522  0.00  0.00    +0.000 A 
ATOM     11  N   UNL     1       7.735   5.431  13.713  0.00  0.00    +0.000 NA
ATOM     12  N   UNL     1       7.543   4.923  12.447  0.00  0.00    +0.000 NA
ATOM     13  N   UNL     1       6.741   3.864  12.471  0.00  0.00    +0.000 NA
ATOM     14  N   UNL     1       6.416   3.714  13.766  0.00  0.00    +0.000 N 
ATOM     15  H   UNL     1       5.772   2.987  14.055  0.00  0.00    +0.000 HD
ENDBRANCH   6  10
BRANCH   1  16
ATOM     16  C   UNL     1       2.812   6.152  18.303  0.00  0.00    +0.000 C 
BRANCH  16  17
ATOM     17  C   UNL     1       2.308   6.456  19.715  0.00  0.00    +0.000 C 
BRANCH  17  18
ATOM     18  C   UNL     1       1.978   5.157  20.462  0.00  0.00    +0.000 C 
BRANCH  18  19
ATOM     19  C   UNL     1       1.470   4.085  19.501  0.00  0.00    +0.000 C 
BRANCH  19  21
ATOM     20  C   UNL     1       1.610   2.759  21.626  0.00  0.00    +0.000 C 
ATOM     21  C   UNL     1       0.972   2.850  20.249  0.00  0.00    +0.000 C 
ENDBRANCH  19  21
ENDBRANCH  18  19
ENDBRANCH  17  18
ENDBRANCH  16  17
ENDBRANCH   1  16
TORSDOF 6
ENDMDL
MODEL 7
REMARK VINA RESULT:      -7.4      0.978      1.167
REMARK  Name = 
REMARK  7 active torsions:
REMARK  status: ('A' for Active; 'I' for Inactive)
REMARK    1  A    between atoms: C_1  and  C_2
REMARK    2  A    between atoms: C_2  and  C_3
REMARK    3  A    between atoms: C_3  and  C_4
REMARK    4  A    between atoms: C_4  and  C_5
REMARK    5  A    between atoms: C_5  and  C_6
REMARK    6  A    between atoms: C_6  and  C_7
REMARK    7  A    between atoms: C_12  and  C_13
REMARK                            x       y       z     vdW  Elec       q    Type
REMARK                         _______ _______ _______ _____ _____    ______ ____
ROOT
ATOM      1  C   UNL     1       4.221   6.582  17.910  0.00  0.00    +0.000 C 
ATOM      2  C   UNL     1       5.141   5.753  18.899  0.00  0.00    +0.000 C 
ATOM      3  C   UNL     1       6.141   5.212  17.964  0.00  0.00    +0.000 A 
ATOM      4  N   UNL     1       7.240   4.427  18.045  0.00  0.00    +0.000 N 
ATOM      5  N   UNL     1       7.741   4.140  16.813  0.00  0.00    +0.000 NA
ATOM      6  C   UNL     1       6.920   4.787  15.957  0.00  0.00    +0.000 A 
ATOM      7  C   UNL     1       5.919   5.464  16.652  0.00  0.00    +0.000 A 
ATOM      8  C   UNL     1       4.701   6.254  16.431  0.00  0.00    +0.000 C 
ATOM      9  H   UNL     1       7.693   4.029  18.864  0.00  0.00    +0.000 HD
ENDROOT
BRANCH   6  10
ATOM     10  C   UNL     1       7.088   4.733  14.489  0.00  0.00    +0.000 A 
ATOM     11  N   UNL     1       7.826   5.536  13.745  0.00  0.00    +0.000 NA
ATOM     12  N   UNL     1       7.711   5.062  12.457  0.00  0.00    +0.000 NA
ATOM     13  N   UNL     1       6.905   4.007  12.403  0.00  0.00    +0.000 NA
ATOM     14  N   UNL     1       6.501   3.825  13.671  0.00  0.00    +0.000 N 
ATOM     15  H   UNL     1       5.837   3.094  13.901  0.00  0.00    +0.000 HD
ENDBRANCH   6  10
BRANCH   1  16
ATOM     16  C   UNL     1       2.704   6.366  18.041  0.00  0.00    +0.000 C 
BRANCH  16  17
ATOM     17  C   UNL     1       2.293   5.035  18.672  0.00  0.00    +0.000 C 
BRANCH  17  18
ATOM     18  C   UNL     1       2.121   3.956  17.595  0.00  0.00    +0.000 C 
BRANCH  18  19
ATOM     19  C   UNL     1       2.975   2.729  17.905  0.00  0.00    +0.000 C 
BRANCH  19  21
ATOM     20  C   UNL     1       4.406   2.205  19.897  0.00  0.00    +0.000 C 
ATOM     21  C   UNL     1       2.985   2.415  19.400  0.00  0.00    +0.000 C 
ENDBRANCH  19  21
ENDBRANCH  18  19
ENDBRANCH  17  18
ENDBRANCH  16  17
ENDBRANCH   1  16
TORSDOF 6
ENDMDL
MODEL 8
REMARK VINA RESULT:      -7.2      1.021      1.693
REMARK  Name = 
REMARK  7 active torsions:
REMARK  status: ('A' for Active; 'I' for Inactive)
REMARK    1  A    between atoms: C_1  and  C_2
REMARK    2  A    between atoms: C_2  and  C_3
REMARK    3  A    between atoms: C_3  and  C_4
REMARK    4  A    between atoms: C_4  and  C_5
REMARK    5  A    between atoms: C_5  and  C_6
REMARK    6  A    between atoms: C_6  and  C_7
REMARK    7  A    between atoms: C_12  and  C_13
REMARK                            x       y       z     vdW  Elec       q    Type
REMARK                         _______ _______ _______ _____ _____    ______ ____
ROOT
ATOM      1  C   UNL     1       3.047   5.844  18.819  0.00  0.00    +0.000 C 
ATOM      2  C   UNL     1       4.049   5.322  19.930  0.00  0.00    +0.000 C 
ATOM      3  C   UNL     1       5.264   5.098  19.131  0.00  0.00    +0.000 A 
ATOM      4  N   UNL     1       6.527   4.670  19.359  0.00  0.00    +0.000 N 
ATOM      5  N   UNL     1       7.229   4.543  18.200  0.00  0.00    +0.000 NA
ATOM      6  C   UNL     1       6.358   4.920  17.237  0.00  0.00    +0.000 A 
ATOM      7  C   UNL     1       5.131   5.274  17.795  0.00  0.00    +0.000 A 
ATOM      8  C   UNL     1       3.769   5.671  17.414  0.00  0.00    +0.000 C 
ATOM      9  H   UNL     1       6.979   4.423  20.236  0.00  0.00    +0.000 HD
ENDROOT
BRANCH   6  10
ATOM     10  C   UNL     1       6.704   4.918  15.800  0.00  0.00    +0.000 A 
ATOM     11  N   UNL     1       7.591   5.688  15.195  0.00  0.00    +0.000 NA
ATOM     12  N   UNL     1       7.600   5.283  13.878  0.00  0.00    +0.000 NA
ATOM     13  N   UNL     1       6.725   4.305  13.670  0.00  0.00    +0.000 NA
ATOM     14  N   UNL     1       6.153   4.101  14.868  0.00  0.00    +0.000 N 
ATOM     15  H   UNL     1       5.409   3.420  14.975  0.00  0.00    +0.000 HD
ENDBRANCH   6  10
BRANCH   1  16
ATOM     16  C   UNL     1       1.654   5.192  18.789  0.00  0.00    +0.000 C 
BRANCH  16  17
ATOM     17  C   UNL     1       1.243   4.487  20.083  0.00  0.00    +0.000 C 
BRANCH  17  18
ATOM     18  C   UNL     1       0.733   3.070  19.787  0.00  0.00    +0.000 C 
BRANCH  18  19
ATOM     19  C   UNL     1       1.894   2.104  19.567  0.00  0.00    +0.000 C 
BRANCH  19  21
ATOM     20  C   UNL     1       3.815   1.666  18.014  0.00  0.00    +0.000 C 
ATOM     21  C   UNL     1       2.366   2.115  18.114  0.00  0.00    +0.000 C 
ENDBRANCH  19  21
ENDBRANCH  18  19
ENDBRANCH  17  18
ENDBRANCH  16  17
ENDBRANCH   1  16
TORSDOF 6
ENDMDL
MODEL 9
REMARK VINA RESULT:      -7.2      1.173      1.644
REMARK  Name = 
REMARK  7 active torsions:
REMARK  status: ('A' for Active; 'I' for Inactive)
REMARK    1  A    between atoms: C_1  and  C_2
REMARK    2  A    between atoms: C_2  and  C_3
REMARK    3  A    between atoms: C_3  and  C_4
REMARK    4  A    between atoms: C_4  and  C_5
REMARK    5  A    between atoms: C_5  and  C_6
REMARK    6  A    between atoms: C_6  and  C_7
REMARK    7  A    between atoms: C_12  and  C_13
REMARK                            x       y       z     vdW  Elec       q    Type
REMARK                         _______ _______ _______ _____ _____    ______ ____
ROOT
ATOM      1  C   UNL     1       4.238   3.928  18.313  0.00  0.00    +0.000 C 
ATOM      2  C   UNL     1       5.173   4.980  19.040  0.00  0.00    +0.000 C 
ATOM      3  C   UNL     1       6.000   5.446  17.915  0.00  0.00    +0.000 A 
ATOM      4  N   UNL     1       7.005   6.333  17.735  0.00  0.00    +0.000 N 
ATOM      5  N   UNL     1       7.496   6.281  16.467  0.00  0.00    +0.000 NA
ATOM      6  C   UNL     1       6.749   5.334  15.856  0.00  0.00    +0.000 A 
ATOM      7  C   UNL     1       5.809   4.804  16.739  0.00  0.00    +0.000 A 
ATOM      8  C   UNL     1       4.784   3.757  16.830  0.00  0.00    +0.000 C 
ATOM      9  H   UNL     1       7.429   6.976  18.399  0.00  0.00    +0.000 HD
ENDROOT
BRANCH   6  10
ATOM     10  C   UNL     1       6.958   4.934  14.448  0.00  0.00    +0.000 A 
ATOM     11  N   UNL     1       6.368   3.939  13.811  0.00  0.00    +0.000 NA
ATOM     12  N   UNL     1       6.839   3.995  12.517  0.00  0.00    +0.000 NA
ATOM     13  N   UNL     1       7.712   4.984  12.365  0.00  0.00    +0.000 NA
ATOM     14  N   UNL     1       7.800   5.548  13.581  0.00  0.00    +0.000 N 
ATOM     15  H   UNL     1       8.440   6.316  13.748  0.00  0.00    +0.000 HD
ENDBRANCH   6  10
BRANCH   1  16
ATOM     16  C   UNL     1       4.093   2.555  18.991  0.00  0.00    +0.000 C 
BRANCH  16  17
ATOM     17  C   UNL     1       2.810   1.796  18.646  0.00  0.00    +0.000 C 
BRANCH  17  18
ATOM     18  C   UNL     1       1.684   2.773  18.285  0.00  0.00    +0.000 C 
BRANCH  18  19
ATOM     19  C   UNL     1       0.665   2.878  19.418  0.00  0.00    +0.000 C 
BRANCH  19  21
ATOM     20  C   UNL     1       1.644   3.220  21.701  0.00  0.00    +0.000 C 
ATOM     21  C   UNL     1       1.090   3.907  20.463  0.00  0.00    +0.000 C 
ENDBRANCH  19  21
ENDBRANCH  18  19
ENDBRANCH  17  18
ENDBRANCH  16  17
ENDBRANCH   1  16
TORSDOF 6
ENDMDL
