MODEL 1
REMARK VINA RESULT:      -8.7      0.000      0.000
REMARK  Name = 
REMARK  5 active torsions:
REMARK  status: ('A' for Active; 'I' for Inactive)
REMARK    1  A    between atoms: C_8  and  C_9
REMARK    2  A    between atoms: N_26  and  C_27
REMARK    3  A    between atoms: C_27  and  C_28
REMARK    4  A    between atoms: C_28  and  C_29
REMARK    5  A    between atoms: C_29  and  N_30
REMARK                            x       y       z     vdW  Elec       q    Type
REMARK                         _______ _______ _______ _____ _____    ______ ____
ROOT
ATOM      1  O   UNL     1       2.555   8.862  17.245  0.00  0.00    +0.000 OA
ATOM      2  C   UNL     1       2.007   8.677  18.329  0.00  0.00    +0.000 C 
ATOM      3  C   UNL     1       1.256   9.794  18.951  0.00  0.00    +0.000 A 
ATOM      4  C   UNL     1       0.999  10.946  18.196  0.00  0.00    +0.000 A 
ATOM      5  C   UNL     1       0.287  11.997  18.755  0.00  0.00    +0.000 A 
ATOM      6  C   UNL     1      -0.161  11.908  20.072  0.00  0.00    +0.000 A 
ATOM      7  C   UNL     1       0.090  10.762  20.865  0.00  0.00    +0.000 A 
ATOM      8  C   UNL     1      -0.347  10.643  22.214  0.00  0.00    +0.000 A 
ATOM      9  C   UNL     1      -0.040   9.492  22.952  0.00  0.00    +0.000 A 
ATOM     10  C   UNL     1       0.664   8.446  22.359  0.00  0.00    +0.000 A 
ATOM     11  C   UNL     1       1.071   8.540  21.025  0.00  0.00    +0.000 A 
ATOM     12  C   UNL     1       0.811   9.688  20.275  0.00  0.00    +0.000 A 
ATOM     13  C   UNL     1       1.765   7.384  20.397  0.00  0.00    +0.000 C 
ATOM     14  O   UNL     1       2.055   6.414  21.095  0.00  0.00    +0.000 OA
ATOM     15  N   UNL     1       2.059   7.477  19.038  0.00  0.00    +0.000 N 
ENDROOT
BRANCH   8  16
ATOM     16  C   UNL     1      -1.160  11.689  22.859  0.00  0.00    +0.000 A 
ATOM     17  C   UNL     1      -2.431  11.432  23.204  0.00  0.00    +0.000 A 
ATOM     18  C   UNL     1      -3.251  12.529  23.746  0.00  0.00    +0.000 A 
ATOM     19  O   UNL     1      -4.415  12.341  24.073  0.00  0.00    +0.000 OA
ATOM     20  C   UNL     1      -2.605  13.847  23.842  0.00  0.00    +0.000 A 
ATOM     21  C   UNL     1      -3.321  14.963  24.284  0.00  0.00    +0.000 A 
ATOM     22  C   UNL     1      -2.685  16.202  24.368  0.00  0.00    +0.000 A 
ATOM     23  C   UNL     1      -1.339  16.319  24.015  0.00  0.00    +0.000 A 
ATOM     24  C   UNL     1      -0.628  15.202  23.566  0.00  0.00    +0.000 A 
ATOM     25  C   UNL     1      -1.266  13.966  23.473  0.00  0.00    +0.000 A 
ATOM     26  O   UNL     1      -0.527  12.909  22.999  0.00  0.00    +0.000 OA
ENDBRANCH   8  16
BRANCH  15  27
ATOM     27  C   UNL     1       2.708   6.324  18.402  0.00  0.00    +0.000 C 
BRANCH  27  28
ATOM     28  C   UNL     1       1.706   5.280  17.869  0.00  0.00    +0.000 C 
BRANCH  28  29
ATOM     29  C   UNL     1       2.416   3.958  17.560  0.00  0.00    +0.000 C 
BRANCH  29  30
ATOM     30  N   UNL     1       2.191   2.860  18.489  0.00  0.00    +0.000 NA
ATOM     31  C   UNL     1       0.882   2.769  19.132  0.00  0.00    +0.000 C 
ATOM     32  C   UNL     1       0.884   3.155  20.617  0.00  0.00    +0.000 C 
ATOM     33  O   UNL     1       1.855   2.388  21.335  0.00  0.00    +0.000 OA
ATOM     34  C   UNL     1       3.165   2.694  20.847  0.00  0.00    +0.000 C 
ATOM     35  C   UNL     1       3.309   2.433  19.335  0.00  0.00    +0.000 C 
ENDBRANCH  29  30
ENDBRANCH  28  29
ENDBRANCH  27  28
ENDBRANCH  15  27
TORSDOF 5
ENDMDL
MODEL 2
REMARK VINA RESULT:      -8.7      2.188      2.874
REMARK  Name = 
REMARK  5 active torsions:
REMARK  status: ('A' for Active; 'I' for Inactive)
REMARK    1  A    between atoms: C_8  and  C_9
REMARK    2  A    between atoms: N_26  and  C_27
REMARK    3  A    between atoms: C_27  and  C_28
REMARK    4  A    between atoms: C_28  and  C_29
REMARK    5  A    between atoms: C_29  and  N_30
REMARK                            x       y       z     vdW  Elec       q    Type
REMARK                         _______ _______ _______ _____ _____    ______ ____
ROOT
ATOM      1  O   UNL     1       2.233   9.294  17.107  0.00  0.00    +0.000 OA
ATOM      2  C   UNL     1       1.762   9.058  18.218  0.00  0.00    +0.000 C 
ATOM      3  C   UNL     1       0.995  10.122  18.910  0.00  0.00    +0.000 A 
ATOM      4  C   UNL     1       0.636  11.275  18.200  0.00  0.00    +0.000 A 
ATOM      5  C   UNL     1      -0.093  12.276  18.825  0.00  0.00    +0.000 A 
ATOM      6  C   UNL     1      -0.456  12.136  20.164  0.00  0.00    +0.000 A 
ATOM      7  C   UNL     1      -0.100  10.988  20.912  0.00  0.00    +0.000 A 
ATOM      8  C   UNL     1      -0.448  10.818  22.282  0.00  0.00    +0.000 A 
ATOM      9  C   UNL     1      -0.040   9.668  22.972  0.00  0.00    +0.000 A 
ATOM     10  C   UNL     1       0.678   8.673  22.314  0.00  0.00    +0.000 A 
ATOM     11  C   UNL     1       0.999   8.816  20.960  0.00  0.00    +0.000 A 
ATOM     12  C   UNL     1       0.636   9.965  20.255  0.00  0.00    +0.000 A 
ATOM     13  C   UNL     1       1.710   7.711  20.264  0.00  0.00    +0.000 C 
ATOM     14  O   UNL     1       2.090   6.743  20.919  0.00  0.00    +0.000 OA
ATOM     15  N   UNL     1       1.916   7.848  18.893  0.00  0.00    +0.000 N 
ENDROOT
BRANCH   8  16
ATOM     16  C   UNL     1      -1.271  11.807  22.999  0.00  0.00    +0.000 A 
ATOM     17  C   UNL     1      -2.534  11.507  23.340  0.00  0.00    +0.000 A 
ATOM     18  C   UNL     1      -3.367  12.553  23.957  0.00  0.00    +0.000 A 
ATOM     19  O   UNL     1      -4.525  12.324  24.283  0.00  0.00    +0.000 OA
ATOM     20  C   UNL     1      -2.743  13.873  24.130  0.00  0.00    +0.000 A 
ATOM     21  C   UNL     1      -3.473  14.946  24.649  0.00  0.00    +0.000 A 
ATOM     22  C   UNL     1      -2.857  16.188  24.805  0.00  0.00    +0.000 A 
ATOM     23  C   UNL     1      -1.516  16.351  24.447  0.00  0.00    +0.000 A 
ATOM     24  C   UNL     1      -0.792  15.277  23.922  0.00  0.00    +0.000 A 
ATOM     25  C   UNL     1      -1.410  14.038  23.757  0.00  0.00    +0.000 A 
ATOM     26  O   UNL     1      -0.658  13.026  23.210  0.00  0.00    +0.000 OA
ENDBRANCH   8  16
BRANCH  15  27
ATOM     27  C   UNL     1       2.583   6.743  18.192  0.00  0.00    +0.000 C 
BRANCH  27  28
ATOM     28  C   UNL     1       4.115   6.905  18.122  0.00  0.00    +0.000 C 
BRANCH  28  29
ATOM     29  C   UNL     1       4.586   6.960  16.666  0.00  0.00    +0.000 C 
BRANCH  29  30
ATOM     30  N   UNL     1       5.968   6.580  16.408  0.00  0.00    +0.000 NA
ATOM     31  C   UNL     1       6.211   5.506  15.447  0.00  0.00    +0.000 C 
ATOM     32  C   UNL     1       6.657   4.183  16.083  0.00  0.00    +0.000 C 
ATOM     33  O   UNL     1       7.803   4.386  16.916  0.00  0.00    +0.000 OA
ATOM     34  C   UNL     1       7.458   5.250  18.004  0.00  0.00    +0.000 C 
ATOM     35  C   UNL     1       6.912   6.610  17.529  0.00  0.00    +0.000 C 
ENDBRANCH  29  30
ENDBRANCH  28  29
ENDBRANCH  27  28
ENDBRANCH  15  27
TORSDOF 5
ENDMDL
MODEL 3
REMARK VINA RESULT:      -8.7      1.970      2.857
REMARK  Name = 
REMARK  5 active torsions:
REMARK  status: ('A' for Active; 'I' for Inactive)
REMARK    1  A    between atoms: C_8  and  C_9
REMARK    2  A    between atoms: N_26  and  C_27
REMARK    3  A    between atoms: C_27  and  C_28
REMARK    4  A    between atoms: C_28  and  C_29
REMARK    5  A    between atoms: C_29  and  N_30
REMARK                            x       y       z     vdW  Elec       q    Type
REMARK                         _______ _______ _______ _____ _____    ______ ____
ROOT
ATOM      1  O   UNL     1       2.161   9.531  17.356  0.00  0.00    +0.000 OA
ATOM      2  C   UNL     1       1.618   9.310  18.436  0.00  0.00    +0.000 C 
ATOM      3  C   UNL     1       0.890  10.413  19.110  0.00  0.00    +0.000 A 
ATOM      4  C   UNL     1       0.647  11.599  18.405  0.00  0.00    +0.000 A 
ATOM      5  C   UNL     1      -0.045  12.637  19.013  0.00  0.00    +0.000 A 
ATOM      6  C   UNL     1      -0.484  12.501  20.328  0.00  0.00    +0.000 A 
ATOM      7  C   UNL     1      -0.246  11.319  21.071  0.00  0.00    +0.000 A 
ATOM      8  C   UNL     1      -0.676  11.151  22.417  0.00  0.00    +0.000 A 
ATOM      9  C   UNL     1      -0.383   9.964  23.104  0.00  0.00    +0.000 A 
ATOM     10  C   UNL     1       0.299   8.933  22.463  0.00  0.00    +0.000 A 
ATOM     11  C   UNL     1       0.698   9.076  21.130  0.00  0.00    +0.000 A 
ATOM     12  C   UNL     1       0.452  10.258  20.431  0.00  0.00    +0.000 A 
ATOM     13  C   UNL     1       1.369   7.936  20.450  0.00  0.00    +0.000 C 
ATOM     14  O   UNL     1       1.647   6.933  21.104  0.00  0.00    +0.000 OA
ATOM     15  N   UNL     1       1.654   8.081  19.094  0.00  0.00    +0.000 N 
ENDROOT
BRANCH   8  16
ATOM     16  C   UNL     1      -1.467  12.181  23.111  0.00  0.00    +0.000 A 
ATOM     17  C   UNL     1      -2.780  11.995  23.316  0.00  0.00    +0.000 A 
ATOM     18  C   UNL     1      -3.564  13.089  23.913  0.00  0.00    +0.000 A 
ATOM     19  O   UNL     1      -4.765  12.963  24.117  0.00  0.00    +0.000 OA
ATOM     20  C   UNL     1      -2.836  14.329  24.219  0.00  0.00    +0.000 A 
ATOM     21  C   UNL     1      -3.507  15.444  24.730  0.00  0.00    +0.000 A 
ATOM     22  C   UNL     1      -2.792  16.608  25.013  0.00  0.00    +0.000 A 
ATOM     23  C   UNL     1      -1.414  16.651  24.792  0.00  0.00    +0.000 A 
ATOM     24  C   UNL     1      -0.748  15.537  24.274  0.00  0.00    +0.000 A 
ATOM     25  C   UNL     1      -1.463  14.376  23.981  0.00  0.00    +0.000 A 
ATOM     26  O   UNL     1      -0.762  13.321  23.449  0.00  0.00    +0.000 OA
ENDBRANCH   8  16
BRANCH  15  27
ATOM     27  C   UNL     1       2.280   6.945  18.406  0.00  0.00    +0.000 C 
BRANCH  27  28
ATOM     28  C   UNL     1       3.821   6.973  18.464  0.00  0.00    +0.000 C 
BRANCH  28  29
ATOM     29  C   UNL     1       4.372   5.601  18.862  0.00  0.00    +0.000 C 
BRANCH  29  30
ATOM     30  N   UNL     1       5.509   5.104  18.101  0.00  0.00    +0.000 NA
ATOM     31  C   UNL     1       6.818   5.696  18.371  0.00  0.00    +0.000 C 
ATOM     32  C   UNL     1       7.325   6.629  17.263  0.00  0.00    +0.000 C 
ATOM     33  O   UNL     1       7.323   5.959  15.999  0.00  0.00    +0.000 OA
ATOM     34  C   UNL     1       5.980   5.616  15.641  0.00  0.00    +0.000 C 
ATOM     35  C   UNL     1       5.293   4.733  16.701  0.00  0.00    +0.000 C 
ENDBRANCH  29  30
ENDBRANCH  28  29
ENDBRANCH  27  28
ENDBRANCH  15  27
TORSDOF 5
ENDMDL
MODEL 4
REMARK VINA RESULT:      -8.7      2.191      3.139
REMARK  Name = 
REMARK  5 active torsions:
REMARK  status: ('A' for Active; 'I' for Inactive)
REMARK    1  A    between atoms: C_8  and  C_9
REMARK    2  A    between atoms: N_26  and  C_27
REMARK    3  A    between atoms: C_27  and  C_28
REMARK    4  A    between atoms: C_28  and  C_29
REMARK    5  A    between atoms: C_29  and  N_30
REMARK                            x       y       z     vdW  Elec       q    Type
REMARK                         _______ _______ _______ _____ _____    ______ ____
ROOT
ATOM      1  O   UNL     1       1.128   9.440  17.821  0.00  0.00    +0.000 OA
ATOM      2  C   UNL     1       0.688   9.543  18.963  0.00  0.00    +0.000 C 
ATOM      3  C   UNL     1      -0.392  10.524  19.228  0.00  0.00    +0.000 A 
ATOM      4  C   UNL     1      -1.034  11.139  18.145  0.00  0.00    +0.000 A 
ATOM      5  C   UNL     1      -2.056  12.050  18.371  0.00  0.00    +0.000 A 
ATOM      6  C   UNL     1      -2.433  12.359  19.677  0.00  0.00    +0.000 A 
ATOM      7  C   UNL     1      -1.798  11.763  20.793  0.00  0.00    +0.000 A 
ATOM      8  C   UNL     1      -2.154  12.063  22.138  0.00  0.00    +0.000 A 
ATOM      9  C   UNL     1      -1.465  11.456  23.197  0.00  0.00    +0.000 A 
ATOM     10  C   UNL     1      -0.453  10.534  22.940  0.00  0.00    +0.000 A 
ATOM     11  C   UNL     1      -0.117  10.209  21.622  0.00  0.00    +0.000 A 
ATOM     12  C   UNL     1      -0.761  10.822  20.546  0.00  0.00    +0.000 A 
ATOM     13  C   UNL     1       0.923   9.175  21.375  0.00  0.00    +0.000 C 
ATOM     14  O   UNL     1       1.533   8.704  22.333  0.00  0.00    +0.000 OA
ATOM     15  N   UNL     1       1.152   8.805  20.051  0.00  0.00    +0.000 N 
ENDROOT
BRANCH   8  16
ATOM     16  C   UNL     1      -3.267  12.972  22.459  0.00  0.00    +0.000 A 
ATOM     17  C   UNL     1      -3.027  14.273  22.681  0.00  0.00    +0.000 A 
ATOM     18  C   UNL     1      -4.143  15.135  23.107  0.00  0.00    +0.000 A 
ATOM     19  O   UNL     1      -3.970  16.328  23.321  0.00  0.00    +0.000 OA
ATOM     20  C   UNL     1      -5.449  14.481  23.282  0.00  0.00    +0.000 A 
ATOM     21  C   UNL     1      -6.553  15.203  23.744  0.00  0.00    +0.000 A 
ATOM     22  C   UNL     1      -7.781  14.559  23.900  0.00  0.00    +0.000 A 
ATOM     23  C   UNL     1      -7.901  13.202  23.590  0.00  0.00    +0.000 A 
ATOM     24  C   UNL     1      -6.792  12.483  23.136  0.00  0.00    +0.000 A 
ATOM     25  C   UNL     1      -5.563  13.123  22.988  0.00  0.00    +0.000 A 
ATOM     26  O   UNL     1      -4.501  12.360  22.565  0.00  0.00    +0.000 OA
ENDBRANCH   8  16
BRANCH  15  27
ATOM     27  C   UNL     1       2.149   7.755  19.802  0.00  0.00    +0.000 C 
BRANCH  27  28
ATOM     28  C   UNL     1       1.690   6.359  20.269  0.00  0.00    +0.000 C 
BRANCH  28  29
ATOM     29  C   UNL     1       2.816   5.335  20.097  0.00  0.00    +0.000 C 
BRANCH  29  30
ATOM     30  N   UNL     1       2.845   4.594  18.844  0.00  0.00    +0.000 NA
ATOM     31  C   UNL     1       1.571   4.123  18.303  0.00  0.00    +0.000 C 
ATOM     32  C   UNL     1       1.356   2.609  18.430  0.00  0.00    +0.000 C 
ATOM     33  O   UNL     1       2.450   1.895  17.846  0.00  0.00    +0.000 OA
ATOM     34  C   UNL     1       3.652   2.184  18.568  0.00  0.00    +0.000 C 
ATOM     35  C   UNL     1       3.973   3.691  18.603  0.00  0.00    +0.000 C 
ENDBRANCH  29  30
ENDBRANCH  28  29
ENDBRANCH  27  28
ENDBRANCH  15  27
TORSDOF 5
ENDMDL
MODEL 5
REMARK VINA RESULT:      -8.7      1.408      1.862
REMARK  Name = 
REMARK  5 active torsions:
REMARK  status: ('A' for Active; 'I' for Inactive)
REMARK    1  A    between atoms: C_8  and  C_9
REMARK    2  A    between atoms: N_26  and  C_27
REMARK    3  A    between atoms: C_27  and  C_28
REMARK    4  A    between atoms: C_28  and  C_29
REMARK    5  A    between atoms: C_29  and  N_30
REMARK                            x       y       z     vdW  Elec       q    Type
REMARK                         _______ _______ _______ _____ _____    ______ ____
ROOT
ATOM      1  O   UNL     1       2.226   9.516  17.353  0.00  0.00    +0.000 OA
ATOM      2  C   UNL     1       1.728   9.288  18.453  0.00  0.00    +0.000 C 
ATOM      3  C   UNL     1       0.905  10.340  19.098  0.00  0.00    +0.000 A 
ATOM      4  C   UNL     1       0.531  11.465  18.351  0.00  0.00    +0.000 A 
ATOM      5  C   UNL     1      -0.251  12.454  18.932  0.00  0.00    +0.000 A 
ATOM      6  C   UNL     1      -0.651  12.330  20.261  0.00  0.00    +0.000 A 
ATOM      7  C   UNL     1      -0.281  11.210  21.045  0.00  0.00    +0.000 A 
ATOM      8  C   UNL     1      -0.667  11.057  22.407  0.00  0.00    +0.000 A 
ATOM      9  C   UNL     1      -0.243   9.936  23.134  0.00  0.00    +0.000 A 
ATOM     10  C   UNL     1       0.528   8.952  22.521  0.00  0.00    +0.000 A 
ATOM     11  C   UNL     1       0.886   9.077  21.174  0.00  0.00    +0.000 A 
ATOM     12  C   UNL     1       0.509  10.198  20.434  0.00  0.00    +0.000 A 
ATOM     13  C   UNL     1       1.656   7.983  20.526  0.00  0.00    +0.000 C 
ATOM     14  O   UNL     1       2.046   7.042  21.214  0.00  0.00    +0.000 OA
ATOM     15  N   UNL     1       1.900   8.098  19.159  0.00  0.00    +0.000 N 
ENDROOT
BRANCH   8  16
ATOM     16  C   UNL     1      -1.545  12.032  23.076  0.00  0.00    +0.000 A 
ATOM     17  C   UNL     1      -2.852  11.767  23.224  0.00  0.00    +0.000 A 
ATOM     18  C   UNL     1      -3.723  12.806  23.798  0.00  0.00    +0.000 A 
ATOM     19  O   UNL     1      -4.922  12.608  23.949  0.00  0.00    +0.000 OA
ATOM     20  C   UNL     1      -3.083  14.084  24.145  0.00  0.00    +0.000 A 
ATOM     21  C   UNL     1      -3.838  15.151  24.636  0.00  0.00    +0.000 A 
ATOM     22  C   UNL     1      -3.206  16.352  24.959  0.00  0.00    +0.000 A 
ATOM     23  C   UNL     1      -1.824  16.479  24.796  0.00  0.00    +0.000 A 
ATOM     24  C   UNL     1      -1.074  15.410  24.297  0.00  0.00    +0.000 A 
ATOM     25  C   UNL     1      -1.706  14.213  23.965  0.00  0.00    +0.000 A 
ATOM     26  O   UNL     1      -0.923  13.207  23.452  0.00  0.00    +0.000 OA
ENDBRANCH   8  16
BRANCH  15  27
ATOM     27  C   UNL     1       2.625   7.002  18.503  0.00  0.00    +0.000 C 
BRANCH  27  28
ATOM     28  C   UNL     1       1.704   5.849  18.053  0.00  0.00    +0.000 C 
BRANCH  28  29
ATOM     29  C   UNL     1       2.004   4.576  18.851  0.00  0.00    +0.000 C 
BRANCH  29  30
ATOM     30  N   UNL     1       3.189   3.823  18.465  0.00  0.00    +0.000 NA
ATOM     31  C   UNL     1       4.330   3.835  19.379  0.00  0.00    +0.000 C 
ATOM     32  C   UNL     1       5.515   4.680  18.892  0.00  0.00    +0.000 C 
ATOM     33  O   UNL     1       5.919   4.272  17.582  0.00  0.00    +0.000 OA
ATOM     34  C   UNL     1       4.856   4.514  16.654  0.00  0.00    +0.000 C 
ATOM     35  C   UNL     1       3.553   3.790  17.047  0.00  0.00    +0.000 C 
ENDBRANCH  29  30
ENDBRANCH  28  29
ENDBRANCH  27  28
ENDBRANCH  15  27
TORSDOF 5
ENDMDL
MODEL 6
REMARK VINA RESULT:      -8.5      1.803      2.183
REMARK  Name = 
REMARK  5 active torsions:
REMARK  status: ('A' for Active; 'I' for Inactive)
REMARK    1  A    between atoms: C_8  and  C_9
REMARK    2  A    between atoms: N_26  and  C_27
REMARK    3  A    between atoms: C_27  and  C_28
REMARK    4  A    between atoms: C_28  and  C_29
REMARK    5  A    between atoms: C_29  and  N_30
REMARK                            x       y       z     vdW  Elec       q    Type
REMARK                         _______ _______ _______ _____ _____    ______ ____
ROOT
ATOM      1  O   UNL     1       2.085   9.943  17.357  0.00  0.00    +0.000 OA
ATOM      2  C   UNL     1       1.541   9.689  18.429  0.00  0.00    +0.000 C 
ATOM      3  C   UNL     1       0.791  10.765  19.124  0.00  0.00    +0.000 A 
ATOM      4  C   UNL     1       0.532  11.962  18.443  0.00  0.00    +0.000 A 
ATOM      5  C   UNL     1      -0.180  12.975  19.070  0.00  0.00    +0.000 A 
ATOM      6  C   UNL     1      -0.623  12.802  20.380  0.00  0.00    +0.000 A 
ATOM      7  C   UNL     1      -0.368  11.609  21.098  0.00  0.00    +0.000 A 
ATOM      8  C   UNL     1      -0.801  11.405  22.439  0.00  0.00    +0.000 A 
ATOM      9  C   UNL     1      -0.491  10.209  23.101  0.00  0.00    +0.000 A 
ATOM     10  C   UNL     1       0.212   9.203  22.442  0.00  0.00    +0.000 A 
ATOM     11  C   UNL     1       0.614   9.381  21.114  0.00  0.00    +0.000 A 
ATOM     12  C   UNL     1       0.351  10.574  20.439  0.00  0.00    +0.000 A 
ATOM     13  C   UNL     1       1.307   8.268  20.412  0.00  0.00    +0.000 C 
ATOM     14  O   UNL     1       1.599   7.256  21.046  0.00  0.00    +0.000 OA
ATOM     15  N   UNL     1       1.595   8.447  19.061  0.00  0.00    +0.000 N 
ENDROOT
BRANCH   8  16
ATOM     16  C   UNL     1      -1.612  12.407  23.151  0.00  0.00    +0.000 A 
ATOM     17  C   UNL     1      -2.937  12.233  23.274  0.00  0.00    +0.000 A 
ATOM     18  C   UNL     1      -3.736  13.303  23.894  0.00  0.00    +0.000 A 
ATOM     19  O   UNL     1      -4.947  13.187  24.026  0.00  0.00    +0.000 OA
ATOM     20  C   UNL     1      -3.006  14.509  24.313  0.00  0.00    +0.000 A 
ATOM     21  C   UNL     1      -3.686  15.604  24.853  0.00  0.00    +0.000 A 
ATOM     22  C   UNL     1      -2.970  16.736  25.244  0.00  0.00    +0.000 A 
ATOM     23  C   UNL     1      -1.581  16.767  25.099  0.00  0.00    +0.000 A 
ATOM     24  C   UNL     1      -0.906  15.673  24.551  0.00  0.00    +0.000 A 
ATOM     25  C   UNL     1      -1.622  14.545  24.151  0.00  0.00    +0.000 A 
ATOM     26  O   UNL     1      -0.909  13.511  23.593  0.00  0.00    +0.000 OA
ENDBRANCH   8  16
BRANCH  15  27
ATOM     27  C   UNL     1       2.243   7.337  18.351  0.00  0.00    +0.000 C 
BRANCH  27  28
ATOM     28  C   UNL     1       3.734   7.595  18.051  0.00  0.00    +0.000 C 
BRANCH  28  29
ATOM     29  C   UNL     1       4.196   6.763  16.851  0.00  0.00    +0.000 C 
BRANCH  29  30
ATOM     30  N   UNL     1       5.054   5.621  17.135  0.00  0.00    +0.000 NA
ATOM     31  C   UNL     1       4.410   4.355  17.479  0.00  0.00    +0.000 C 
ATOM     32  C   UNL     1       4.526   3.973  18.961  0.00  0.00    +0.000 C 
ATOM     33  O   UNL     1       5.895   3.974  19.376  0.00  0.00    +0.000 OA
ATOM     34  C   UNL     1       6.428   5.298  19.267  0.00  0.00    +0.000 C 
ATOM     35  C   UNL     1       6.315   5.866  17.839  0.00  0.00    +0.000 C 
ENDBRANCH  29  30
ENDBRANCH  28  29
ENDBRANCH  27  28
ENDBRANCH  15  27
TORSDOF 5
ENDMDL
MODEL 7
REMARK VINA RESULT:      -8.4      2.757      9.862
REMARK  Name = 
REMARK  5 active torsions:
REMARK  status: ('A' for Active; 'I' for Inactive)
REMARK    1  A    between atoms: C_8  and  C_9
REMARK    2  A    between atoms: N_26  and  C_27
REMARK    3  A    between atoms: C_27  and  C_28
REMARK    4  A    between atoms: C_28  and  C_29
REMARK    5  A    between atoms: C_29  and  N_30
REMARK                            x       y       z     vdW  Elec       q    Type
REMARK                         _______ _______ _______ _____ _____    ______ ____
ROOT
ATOM      1  O   UNL     1      -1.396  12.381  22.632  0.00  0.00    +0.000 OA
ATOM      2  C   UNL     1      -1.152  11.834  21.558  0.00  0.00    +0.000 C 
ATOM      3  C   UNL     1      -0.253  10.655  21.543  0.00  0.00    +0.000 A 
ATOM      4  C   UNL     1       0.111  10.061  22.758  0.00  0.00    +0.000 A 
ATOM      5  C   UNL     1       0.941   8.948  22.765  0.00  0.00    +0.000 A 
ATOM      6  C   UNL     1       1.420   8.433  21.562  0.00  0.00    +0.000 A 
ATOM      7  C   UNL     1       1.079   9.017  20.318  0.00  0.00    +0.000 A 
ATOM      8  C   UNL     1       1.557   8.520  19.072  0.00  0.00    +0.000 A 
ATOM      9  C   UNL     1       1.202   9.163  17.878  0.00  0.00    +0.000 A 
ATOM     10  C   UNL     1       0.356  10.268  17.901  0.00  0.00    +0.000 A 
ATOM     11  C   UNL     1      -0.145  10.746  19.117  0.00  0.00    +0.000 A 
ATOM     12  C   UNL     1       0.218  10.148  20.325  0.00  0.00    +0.000 A 
ATOM     13  C   UNL     1      -1.097  11.888  19.109  0.00  0.00    +0.000 C 
ATOM     14  O   UNL     1      -1.343  12.450  18.043  0.00  0.00    +0.000 OA
ATOM     15  N   UNL     1      -1.653  12.263  20.330  0.00  0.00    +0.000 N 
ENDROOT
BRANCH   8  16
ATOM     16  C   UNL     1       2.391   7.309  18.992  0.00  0.00    +0.000 A 
ATOM     17  C   UNL     1       3.308   7.190  18.020  0.00  0.00    +0.000 A 
ATOM     18  C   UNL     1       4.050   5.923  17.900  0.00  0.00    +0.000 A 
ATOM     19  O   UNL     1       4.895   5.770  17.027  0.00  0.00    +0.000 OA
ATOM     20  C   UNL     1       3.700   4.863  18.857  0.00  0.00    +0.000 A 
ATOM     21  C   UNL     1       4.305   3.605  18.782  0.00  0.00    +0.000 A 
ATOM     22  C   UNL     1       3.956   2.617  19.704  0.00  0.00    +0.000 A 
ATOM     23  C   UNL     1       3.013   2.891  20.696  0.00  0.00    +0.000 A 
ATOM     24  C   UNL     1       2.405   4.148  20.763  0.00  0.00    +0.000 A 
ATOM     25  C   UNL     1       2.746   5.133  19.836  0.00  0.00    +0.000 A 
ATOM     26  O   UNL     1       2.096   6.340  19.932  0.00  0.00    +0.000 OA
ENDBRANCH   8  16
BRANCH  15  27
ATOM     27  C   UNL     1      -2.625  13.364  20.324  0.00  0.00    +0.000 C 
BRANCH  27  28
ATOM     28  C   UNL     1      -4.078  12.893  20.534  0.00  0.00    +0.000 C 
BRANCH  28  29
ATOM     29  C   UNL     1      -4.975  14.067  20.936  0.00  0.00    +0.000 C 
BRANCH  29  30
ATOM     30  N   UNL     1      -5.209  14.256  22.361  0.00  0.00    +0.000 NA
ATOM     31  C   UNL     1      -4.503  15.349  23.027  0.00  0.00    +0.000 C 
ATOM     32  C   UNL     1      -3.362  14.892  23.946  0.00  0.00    +0.000 C 
ATOM     33  O   UNL     1      -3.837  13.938  24.901  0.00  0.00    +0.000 OA
ATOM     34  C   UNL     1      -4.290  12.763  24.222  0.00  0.00    +0.000 C 
ATOM     35  C   UNL     1      -5.397  13.065  23.193  0.00  0.00    +0.000 C 
ENDBRANCH  29  30
ENDBRANCH  28  29
ENDBRANCH  27  28
ENDBRANCH  15  27
TORSDOF 5
ENDMDL
MODEL 8
REMARK VINA RESULT:      -8.4      1.140      1.504
REMARK  Name = 
REMARK  5 active torsions:
REMARK  status: ('A' for Active; 'I' for Inactive)
REMARK    1  A    between atoms: C_8  and  C_9
REMARK    2  A    between atoms: N_26  and  C_27
REMARK    3  A    between atoms: C_27  and  C_28
REMARK    4  A    between atoms: C_28  and  C_29
REMARK    5  A    between atoms: C_29  and  N_30
REMARK                            x       y       z     vdW  Elec       q    Type
REMARK                         _______ _______ _______ _____ _____    ______ ____
ROOT
ATOM      1  O   UNL     1       2.272   9.791  17.444  0.00  0.00    +0.000 OA
ATOM      2  C   UNL     1       1.667   9.543  18.485  0.00  0.00    +0.000 C 
ATOM      3  C   UNL     1       0.944  10.641  19.172  0.00  0.00    +0.000 A 
ATOM      4  C   UNL     1       0.777  11.864  18.510  0.00  0.00    +0.000 A 
ATOM      5  C   UNL     1       0.090  12.899  19.129  0.00  0.00    +0.000 A 
ATOM      6  C   UNL     1      -0.420  12.722  20.414  0.00  0.00    +0.000 A 
ATOM      7  C   UNL     1      -0.259  11.501  21.114  0.00  0.00    +0.000 A 
ATOM      8  C   UNL     1      -0.762  11.290  22.429  0.00  0.00    +0.000 A 
ATOM      9  C   UNL     1      -0.543  10.066  23.075  0.00  0.00    +0.000 A 
ATOM     10  C   UNL     1       0.136   9.040  22.422  0.00  0.00    +0.000 A 
ATOM     11  C   UNL     1       0.606   9.225  21.119  0.00  0.00    +0.000 A 
ATOM     12  C   UNL     1       0.435  10.445  20.462  0.00  0.00    +0.000 A 
ATOM     13  C   UNL     1       1.271   8.093  20.421  0.00  0.00    +0.000 C 
ATOM     14  O   UNL     1       1.483   7.054  21.043  0.00  0.00    +0.000 OA
ATOM     15  N   UNL     1       1.630   8.287  19.088  0.00  0.00    +0.000 N 
ENDROOT
BRANCH   8  16
ATOM     16  C   UNL     1      -1.552  12.318  23.128  0.00  0.00    +0.000 A 
ATOM     17  C   UNL     1      -2.877  12.163  23.272  0.00  0.00    +0.000 A 
ATOM     18  C   UNL     1      -3.655  13.257  23.878  0.00  0.00    +0.000 A 
ATOM     19  O   UNL     1      -4.866  13.159  24.027  0.00  0.00    +0.000 OA
ATOM     20  C   UNL     1      -2.905  14.462  24.261  0.00  0.00    +0.000 A 
ATOM     21  C   UNL     1      -3.565  15.577  24.786  0.00  0.00    +0.000 A 
ATOM     22  C   UNL     1      -2.830  16.708  25.143  0.00  0.00    +0.000 A 
ATOM     23  C   UNL     1      -1.443  16.719  24.980  0.00  0.00    +0.000 A 
ATOM     24  C   UNL     1      -0.788  15.605  24.448  0.00  0.00    +0.000 A 
ATOM     25  C   UNL     1      -1.523  14.477  24.081  0.00  0.00    +0.000 A 
ATOM     26  O   UNL     1      -0.830  13.422  23.538  0.00  0.00    +0.000 OA
ENDBRANCH   8  16
BRANCH  15  27
ATOM     27  C   UNL     1       2.251   7.159  18.381  0.00  0.00    +0.000 C 
BRANCH  27  28
ATOM     28  C   UNL     1       3.585   6.709  19.011  0.00  0.00    +0.000 C 
BRANCH  28  29
ATOM     29  C   UNL     1       3.953   5.297  18.544  0.00  0.00    +0.000 C 
BRANCH  29  30
ATOM     30  N   UNL     1       3.464   4.190  19.353  0.00  0.00    +0.000 NA
ATOM     31  C   UNL     1       4.212   2.934  19.311  0.00  0.00    +0.000 C 
ATOM     32  C   UNL     1       3.513   1.812  18.533  0.00  0.00    +0.000 C 
ATOM     33  O   UNL     1       2.191   1.597  19.038  0.00  0.00    +0.000 OA
ATOM     34  C   UNL     1       1.401   2.773  18.830  0.00  0.00    +0.000 C 
ATOM     35  C   UNL     1       2.015   4.023  19.490  0.00  0.00    +0.000 C 
ENDBRANCH  29  30
ENDBRANCH  28  29
ENDBRANCH  27  28
ENDBRANCH  15  27
TORSDOF 5
ENDMDL
MODEL 9
REMARK VINA RESULT:      -8.4      2.898      9.775
REMARK  Name = 
REMARK  5 active torsions:
REMARK  status: ('A' for Active; 'I' for Inactive)
REMARK    1  A    between atoms: C_8  and  C_9
REMARK    2  A    between atoms: N_26  and  C_27
REMARK    3  A    between atoms: C_27  and  C_28
REMARK    4  A    between atoms: C_28  and  C_29
REMARK    5  A    between atoms: C_29  and  N_30
REMARK                            x       y       z     vdW  Elec       q    Type
REMARK                         _______ _______ _______ _____ _____    ______ ____
ROOT
ATOM      1  O   UNL     1      -0.371  12.927  20.275  0.00  0.00    +0.000 OA
ATOM      2  C   UNL     1       0.001  11.821  20.660  0.00  0.00    +0.000 C 
ATOM      3  C   UNL     1       0.749  10.950  19.720  0.00  0.00    +0.000 A 
ATOM      4  C   UNL     1       1.205  11.488  18.510  0.00  0.00    +0.000 A 
ATOM      5  C   UNL     1       1.918  10.694  17.623  0.00  0.00    +0.000 A 
ATOM      6  C   UNL     1       2.166   9.358  17.934  0.00  0.00    +0.000 A 
ATOM      7  C   UNL     1       1.710   8.782  19.144  0.00  0.00    +0.000 A 
ATOM      8  C   UNL     1       1.941   7.420  19.489  0.00  0.00    +0.000 A 
ATOM      9  C   UNL     1       1.437   6.906  20.691  0.00  0.00    +0.000 A 
ATOM     10  C   UNL     1       0.738   7.731  21.569  0.00  0.00    +0.000 A 
ATOM     11  C   UNL     1       0.533   9.078  21.255  0.00  0.00    +0.000 A 
ATOM     12  C   UNL     1       0.992   9.611  20.049  0.00  0.00    +0.000 A 
ATOM     13  C   UNL     1      -0.161   9.953  22.237  0.00  0.00    +0.000 C 
ATOM     14  O   UNL     1      -0.627   9.449  23.257  0.00  0.00    +0.000 OA
ATOM     15  N   UNL     1      -0.250  11.309  21.932  0.00  0.00    +0.000 N 
ENDROOT
BRANCH   8  16
ATOM     16  C   UNL     1       2.740   6.530  18.629  0.00  0.00    +0.000 A 
ATOM     17  C   UNL     1       2.257   5.329  18.274  0.00  0.00    +0.000 A 
ATOM     18  C   UNL     1       3.122   4.418  17.506  0.00  0.00    +0.000 A 
ATOM     19  O   UNL     1       2.723   3.313  17.163  0.00  0.00    +0.000 OA
ATOM     20  C   UNL     1       4.480   4.897  17.208  0.00  0.00    +0.000 A 
ATOM     21  C   UNL     1       5.395   4.079  16.539  0.00  0.00    +0.000 A 
ATOM     22  C   UNL     1       6.677   4.558  16.267  0.00  0.00    +0.000 A 
ATOM     23  C   UNL     1       7.036   5.850  16.657  0.00  0.00    +0.000 A 
ATOM     24  C   UNL     1       6.120   6.662  17.332  0.00  0.00    +0.000 A 
ATOM     25  C   UNL     1       4.842   6.181  17.614  0.00  0.00    +0.000 A 
ATOM     26  O   UNL     1       3.993   7.012  18.304  0.00  0.00    +0.000 OA
ENDBRANCH   8  16
BRANCH  15  27
ATOM     27  C   UNL     1      -0.899  12.186  22.916  0.00  0.00    +0.000 C 
BRANCH  27  28
ATOM     28  C   UNL     1      -2.405  11.900  23.085  0.00  0.00    +0.000 C 
BRANCH  28  29
ATOM     29  C   UNL     1      -3.219  12.655  22.030  0.00  0.00    +0.000 C 
BRANCH  29  30
ATOM     30  N   UNL     1      -4.382  13.392  22.502  0.00  0.00    +0.000 NA
ATOM     31  C   UNL     1      -4.652  13.389  23.939  0.00  0.00    +0.000 C 
ATOM     32  C   UNL     1      -5.854  12.527  24.350  0.00  0.00    +0.000 C 
ATOM     33  O   UNL     1      -7.021  12.908  23.616  0.00  0.00    +0.000 OA
ATOM     34  C   UNL     1      -6.815  12.657  22.222  0.00  0.00    +0.000 C 
ATOM     35  C   UNL     1      -5.583  13.397  21.664  0.00  0.00    +0.000 C 
ENDBRANCH  29  30
ENDBRANCH  28  29
ENDBRANCH  27  28
ENDBRANCH  15  27
TORSDOF 5
ENDMDL
