MODEL 1
REMARK VINA RESULT:      -5.2      0.000      0.000
REMARK  Name = 
REMARK  3 active torsions:
REMARK  status: ('A' for Active; 'I' for Inactive)
REMARK    1  A    between atoms: C_1  and  N_2
REMARK    2  A    between atoms: N_2  and  C_3
REMARK    3  A    between atoms: C_3  and  C_4
REMARK                            x       y       z     vdW  Elec       q    Type
REMARK                         _______ _______ _______ _____ _____    ______ ____
ROOT
ATOM      1  C   UNL     1       2.081   5.171  19.572  0.00  0.00    +0.000 A 
ATOM      2  C   UNL     1       2.280   4.402  18.412  0.00  0.00    +0.000 A 
ATOM      3  C   UNL     1       2.020   3.028  18.422  0.00  0.00    +0.000 A 
ATOM      4  F   UNL     1       2.218   2.293  17.299  0.00  0.00    +0.000 F 
ATOM      5  C   UNL     1       1.559   2.411  19.587  0.00  0.00    +0.000 A 
ATOM      6  C   UNL     1       1.358   3.166  20.746  0.00  0.00    +0.000 A 
ATOM      7  F   UNL     1       0.912   2.564  21.877  0.00  0.00    +0.000 F 
ATOM      8  C   UNL     1       1.619   4.541  20.741  0.00  0.00    +0.000 A 
ENDROOT
BRANCH   1   9
ATOM      9  C   UNL     1       2.373   6.653  19.562  0.00  0.00    +0.000 C 
BRANCH   9  11
ATOM     10  C   UNL     1       1.276   8.503  20.656  0.00  0.00    +0.000 C 
ATOM     11  N   UNL     1       2.026   7.261  20.853  0.00  0.00    +0.000 NA
ATOM     12  H   UNL     1       1.421   6.614  21.411  0.00  0.00    +0.000 HD
ENDBRANCH   9  11
ENDBRANCH   1   9
TORSDOF 2
ENDMDL
MODEL 2
REMARK VINA RESULT:      -5.2      2.877      4.123
REMARK  Name = 
REMARK  3 active torsions:
REMARK  status: ('A' for Active; 'I' for Inactive)
REMARK    1  A    between atoms: C_1  and  N_2
REMARK    2  A    between atoms: N_2  and  C_3
REMARK    3  A    between atoms: C_3  and  C_4
REMARK                            x       y       z     vdW  Elec       q    Type
REMARK                         _______ _______ _______ _____ _____    ______ ____
ROOT
ATOM      1  C   UNL     1       4.151   4.509  19.069  0.00  0.00    +0.000 A 
ATOM      2  C   UNL     1       3.140   5.011  19.908  0.00  0.00    +0.000 A 
ATOM      3  C   UNL     1       1.852   4.470  19.864  0.00  0.00    +0.000 A 
ATOM      4  F   UNL     1       0.882   4.963  20.675  0.00  0.00    +0.000 F 
ATOM      5  C   UNL     1       1.561   3.425  18.986  0.00  0.00    +0.000 A 
ATOM      6  C   UNL     1       2.557   2.918  18.147  0.00  0.00    +0.000 A 
ATOM      7  F   UNL     1       2.271   1.903  17.293  0.00  0.00    +0.000 F 
ATOM      8  C   UNL     1       3.848   3.458  18.186  0.00  0.00    +0.000 A 
ENDROOT
BRANCH   1   9
ATOM      9  C   UNL     1       5.539   5.102  19.110  0.00  0.00    +0.000 C 
BRANCH   9  11
ATOM     10  C   UNL     1       7.380   4.723  17.597  0.00  0.00    +0.000 C 
ATOM     11  N   UNL     1       6.535   4.132  18.636  0.00  0.00    +0.000 NA
ATOM     12  H   UNL     1       7.161   3.838  19.422  0.00  0.00    +0.000 HD
ENDBRANCH   9  11
ENDBRANCH   1   9
TORSDOF 2
ENDMDL
MODEL 3
REMARK VINA RESULT:      -5.2      2.748      3.941
REMARK  Name = 
REMARK  3 active torsions:
REMARK  status: ('A' for Active; 'I' for Inactive)
REMARK    1  A    between atoms: C_1  and  N_2
REMARK    2  A    between atoms: N_2  and  C_3
REMARK    3  A    between atoms: C_3  and  C_4
REMARK                            x       y       z     vdW  Elec       q    Type
REMARK                         _______ _______ _______ _____ _____    ______ ____
ROOT
ATOM      1  C   UNL     1       3.380   3.947  18.353  0.00  0.00    +0.000 A 
ATOM      2  C   UNL     1       3.180   4.864  19.401  0.00  0.00    +0.000 A 
ATOM      3  C   UNL     1       2.010   4.821  20.164  0.00  0.00    +0.000 A 
ATOM      4  F   UNL     1       1.825   5.711  21.171  0.00  0.00    +0.000 F 
ATOM      5  C   UNL     1       1.030   3.865  19.889  0.00  0.00    +0.000 A 
ATOM      6  C   UNL     1       1.217   2.949  18.850  0.00  0.00    +0.000 A 
ATOM      7  F   UNL     1       0.261   2.023  18.585  0.00  0.00    +0.000 F 
ATOM      8  C   UNL     1       2.386   2.989  18.083  0.00  0.00    +0.000 A 
ENDROOT
BRANCH   1   9
ATOM      9  C   UNL     1       4.640   4.001  17.523  0.00  0.00    +0.000 C 
BRANCH   9  11
ATOM     10  C   UNL     1       6.945   4.657  17.808  0.00  0.00    +0.000 C 
ATOM     11  N   UNL     1       5.831   3.894  18.376  0.00  0.00    +0.000 NA
ATOM     12  H   UNL     1       5.635   4.286  19.327  0.00  0.00    +0.000 HD
ENDBRANCH   9  11
ENDBRANCH   1   9
TORSDOF 2
ENDMDL
MODEL 4
REMARK VINA RESULT:      -5.2      2.746      3.538
REMARK  Name = 
REMARK  3 active torsions:
REMARK  status: ('A' for Active; 'I' for Inactive)
REMARK    1  A    between atoms: C_1  and  N_2
REMARK    2  A    between atoms: N_2  and  C_3
REMARK    3  A    between atoms: C_3  and  C_4
REMARK                            x       y       z     vdW  Elec       q    Type
REMARK                         _______ _______ _______ _____ _____    ______ ____
ROOT
ATOM      1  C   UNL     1       3.383   3.999  18.316  0.00  0.00    +0.000 A 
ATOM      2  C   UNL     1       2.403   3.026  18.044  0.00  0.00    +0.000 A 
ATOM      3  C   UNL     1       1.234   2.967  18.809  0.00  0.00    +0.000 A 
ATOM      4  F   UNL     1       0.297   2.024  18.542  0.00  0.00    +0.000 F 
ATOM      5  C   UNL     1       1.032   3.876  19.850  0.00  0.00    +0.000 A 
ATOM      6  C   UNL     1       1.999   4.847  20.129  0.00  0.00    +0.000 A 
ATOM      7  F   UNL     1       1.800   5.727  21.142  0.00  0.00    +0.000 F 
ATOM      8  C   UNL     1       3.171   4.908  19.367  0.00  0.00    +0.000 A 
ENDROOT
BRANCH   1   9
ATOM      9  C   UNL     1       4.649   4.054  17.495  0.00  0.00    +0.000 C 
BRANCH   9  11
ATOM     10  C   UNL     1       6.958   4.687  17.794  0.00  0.00    +0.000 C 
ATOM     11  N   UNL     1       5.833   3.937  18.355  0.00  0.00    +0.000 NA
ATOM     12  H   UNL     1       5.635   4.331  19.305  0.00  0.00    +0.000 HD
ENDBRANCH   9  11
ENDBRANCH   1   9
TORSDOF 2
ENDMDL
MODEL 5
REMARK VINA RESULT:      -5.1      4.631      6.160
REMARK  Name = 
REMARK  3 active torsions:
REMARK  status: ('A' for Active; 'I' for Inactive)
REMARK    1  A    between atoms: C_1  and  N_2
REMARK    2  A    between atoms: N_2  and  C_3
REMARK    3  A    between atoms: C_3  and  C_4
REMARK                            x       y       z     vdW  Elec       q    Type
REMARK                         _______ _______ _______ _____ _____    ______ ____
ROOT
ATOM      1  C   UNL     1       5.185   4.977  18.662  0.00  0.00    +0.000 A 
ATOM      2  C   UNL     1       6.442   5.402  19.128  0.00  0.00    +0.000 A 
ATOM      3  C   UNL     1       7.206   6.302  18.378  0.00  0.00    +0.000 A 
ATOM      4  F   UNL     1       8.419   6.705  18.834  0.00  0.00    +0.000 F 
ATOM      5  C   UNL     1       6.723   6.785  17.160  0.00  0.00    +0.000 A 
ATOM      6  C   UNL     1       5.475   6.369  16.688  0.00  0.00    +0.000 A 
ATOM      7  F   UNL     1       5.009   6.839  15.503  0.00  0.00    +0.000 F 
ATOM      8  C   UNL     1       4.708   5.468  17.434  0.00  0.00    +0.000 A 
ENDROOT
BRANCH   1   9
ATOM      9  C   UNL     1       4.366   3.997  19.468  0.00  0.00    +0.000 C 
BRANCH   9  11
ATOM     10  C   UNL     1       3.728   1.789  18.734  0.00  0.00    +0.000 C 
ATOM     11  N   UNL     1       4.823   2.621  19.237  0.00  0.00    +0.000 NA
ATOM     12  H   UNL     1       5.585   2.605  18.518  0.00  0.00    +0.000 HD
ENDBRANCH   9  11
ENDBRANCH   1   9
TORSDOF 2
ENDMDL
MODEL 6
REMARK VINA RESULT:      -5.1      4.636      5.920
REMARK  Name = 
REMARK  3 active torsions:
REMARK  status: ('A' for Active; 'I' for Inactive)
REMARK    1  A    between atoms: C_1  and  N_2
REMARK    2  A    between atoms: N_2  and  C_3
REMARK    3  A    between atoms: C_3  and  C_4
REMARK                            x       y       z     vdW  Elec       q    Type
REMARK                         _______ _______ _______ _____ _____    ______ ____
ROOT
ATOM      1  C   UNL     1       5.199   4.963  18.662  0.00  0.00    +0.000 A 
ATOM      2  C   UNL     1       4.715   5.466  17.441  0.00  0.00    +0.000 A 
ATOM      3  C   UNL     1       5.475   6.377  16.701  0.00  0.00    +0.000 A 
ATOM      4  F   UNL     1       4.998   6.859  15.525  0.00  0.00    +0.000 F 
ATOM      5  C   UNL     1       6.721   6.794  17.171  0.00  0.00    +0.000 A 
ATOM      6  C   UNL     1       7.212   6.301  18.384  0.00  0.00    +0.000 A 
ATOM      7  F   UNL     1       8.423   6.710  18.839  0.00  0.00    +0.000 F 
ATOM      8  C   UNL     1       6.455   5.391  19.128  0.00  0.00    +0.000 A 
ENDROOT
BRANCH   1   9
ATOM      9  C   UNL     1       4.372   3.987  19.465  0.00  0.00    +0.000 C 
BRANCH   9  11
ATOM     10  C   UNL     1       3.728   1.778  18.739  0.00  0.00    +0.000 C 
ATOM     11  N   UNL     1       4.826   2.609  19.237  0.00  0.00    +0.000 NA
ATOM     12  H   UNL     1       5.586   2.590  18.517  0.00  0.00    +0.000 HD
ENDBRANCH   9  11
ENDBRANCH   1   9
TORSDOF 2
ENDMDL
MODEL 7
REMARK VINA RESULT:      -5.1      2.753      3.217
REMARK  Name = 
REMARK  3 active torsions:
REMARK  status: ('A' for Active; 'I' for Inactive)
REMARK    1  A    between atoms: C_1  and  N_2
REMARK    2  A    between atoms: N_2  and  C_3
REMARK    3  A    between atoms: C_3  and  C_4
REMARK                            x       y       z     vdW  Elec       q    Type
REMARK                         _______ _______ _______ _____ _____    ______ ____
ROOT
ATOM      1  C   UNL     1       3.395   3.589  18.715  0.00  0.00    +0.000 A 
ATOM      2  C   UNL     1       2.266   2.956  18.163  0.00  0.00    +0.000 A 
ATOM      3  C   UNL     1       1.173   2.629  18.971  0.00  0.00    +0.000 A 
ATOM      4  F   UNL     1       0.090   2.016  18.430  0.00  0.00    +0.000 F 
ATOM      5  C   UNL     1       1.195   2.931  20.334  0.00  0.00    +0.000 A 
ATOM      6  C   UNL     1       2.311   3.559  20.894  0.00  0.00    +0.000 A 
ATOM      7  F   UNL     1       2.330   3.848  22.219  0.00  0.00    +0.000 F 
ATOM      8  C   UNL     1       3.408   3.886  20.089  0.00  0.00    +0.000 A 
ENDROOT
BRANCH   1   9
ATOM      9  C   UNL     1       4.578   3.932  17.843  0.00  0.00    +0.000 C 
BRANCH   9  11
ATOM     10  C   UNL     1       6.544   5.139  18.551  0.00  0.00    +0.000 C 
ATOM     11  N   UNL     1       5.829   3.863  18.610  0.00  0.00    +0.000 NA
ATOM     12  H   UNL     1       5.628   3.661  19.618  0.00  0.00    +0.000 HD
ENDBRANCH   9  11
ENDBRANCH   1   9
TORSDOF 2
ENDMDL
MODEL 8
REMARK VINA RESULT:      -5.1      3.500      4.428
REMARK  Name = 
REMARK  3 active torsions:
REMARK  status: ('A' for Active; 'I' for Inactive)
REMARK    1  A    between atoms: C_1  and  N_2
REMARK    2  A    between atoms: N_2  and  C_3
REMARK    3  A    between atoms: C_3  and  C_4
REMARK                            x       y       z     vdW  Elec       q    Type
REMARK                         _______ _______ _______ _____ _____    ______ ____
ROOT
ATOM      1  C   UNL     1       4.861   4.578  17.270  0.00  0.00    +0.000 A 
ATOM      2  C   UNL     1       4.198   3.339  17.217  0.00  0.00    +0.000 A 
ATOM      3  C   UNL     1       2.830   3.257  17.491  0.00  0.00    +0.000 A 
ATOM      4  F   UNL     1       2.199   2.056  17.440  0.00  0.00    +0.000 F 
ATOM      5  C   UNL     1       2.111   4.408  17.820  0.00  0.00    +0.000 A 
ATOM      6  C   UNL     1       2.759   5.645  17.877  0.00  0.00    +0.000 A 
ATOM      7  F   UNL     1       2.059   6.761  18.199  0.00  0.00    +0.000 F 
ATOM      8  C   UNL     1       4.129   5.732  17.605  0.00  0.00    +0.000 A 
ENDROOT
BRANCH   1   9
ATOM      9  C   UNL     1       6.341   4.664  16.984  0.00  0.00    +0.000 C 
BRANCH   9  11
ATOM     10  C   UNL     1       7.654   5.576  18.790  0.00  0.00    +0.000 C 
ATOM     11  N   UNL     1       7.124   4.353  18.187  0.00  0.00    +0.000 NA
ATOM     12  H   UNL     1       6.521   3.884  18.904  0.00  0.00    +0.000 HD
ENDBRANCH   9  11
ENDBRANCH   1   9
TORSDOF 2
ENDMDL
MODEL 9
REMARK VINA RESULT:      -5.1      1.135      1.224
REMARK  Name = 
REMARK  3 active torsions:
REMARK  status: ('A' for Active; 'I' for Inactive)
REMARK    1  A    between atoms: C_1  and  N_2
REMARK    2  A    between atoms: N_2  and  C_3
REMARK    3  A    between atoms: C_3  and  C_4
REMARK                            x       y       z     vdW  Elec       q    Type
REMARK                         _______ _______ _______ _____ _____    ______ ____
ROOT
ATOM      1  C   UNL     1       2.138   5.134  19.557  0.00  0.00    +0.000 A 
ATOM      2  C   UNL     1       2.318   4.344  18.407  0.00  0.00    +0.000 A 
ATOM      3  C   UNL     1       2.025   2.977  18.435  0.00  0.00    +0.000 A 
ATOM      4  F   UNL     1       2.205   2.223  17.322  0.00  0.00    +0.000 F 
ATOM      5  C   UNL     1       1.550   2.387  19.609  0.00  0.00    +0.000 A 
ATOM      6  C   UNL     1       1.368   3.162  20.757  0.00  0.00    +0.000 A 
ATOM      7  F   UNL     1       0.908   2.585  21.896  0.00  0.00    +0.000 F 
ATOM      8  C   UNL     1       1.661   4.530  20.734  0.00  0.00    +0.000 A 
ENDROOT
BRANCH   1   9
ATOM      9  C   UNL     1       2.464   6.608  19.528  0.00  0.00    +0.000 C 
BRANCH   9  11
ATOM     10  C   UNL     1       2.264   8.380  17.903  0.00  0.00    +0.000 C 
ATOM     11  N   UNL     1       2.795   7.041  18.164  0.00  0.00    +0.000 NA
ATOM     12  H   UNL     1       3.834   7.085  18.037  0.00  0.00    +0.000 HD
ENDBRANCH   9  11
ENDBRANCH   1   9
TORSDOF 2
ENDMDL
