MODEL 1
REMARK VINA RESULT:      -8.7      0.000      0.000
REMARK  Name = 
REMARK  5 active torsions:
REMARK  status: ('A' for Active; 'I' for Inactive)
REMARK    1  A    between atoms: C_1  and  C_2
REMARK    2  A    between atoms: C_10  and  C_11
REMARK    3  A    between atoms: C_12  and  C_13
REMARK    4  A    between atoms: C_13  and  N_14
REMARK    5  A    between atoms: C_27  and  C_28
REMARK                            x       y       z     vdW  Elec       q    Type
REMARK                         _______ _______ _______ _____ _____    ______ ____
ROOT
ATOM      1  C   UNL     1       7.510   7.353  16.693  0.00  0.00    +0.000 C 
ATOM      2  C   UNL     1       6.895   6.036  16.402  0.00  0.00    +0.000 A 
ATOM      3  N   UNL     1       7.488   5.078  15.720  0.00  0.00    +0.000 NA
ATOM      4  N   UNL     1       6.720   3.951  15.807  0.00  0.00    +0.000 NA
ATOM      5  C   UNL     1       5.666   4.241  16.537  0.00  0.00    +0.000 A 
ATOM      6  N   UNL     1       5.695   5.562  16.917  0.00  0.00    +0.000 N 
ATOM      7  C   UNL     1       4.670   6.250  17.620  0.00  0.00    +0.000 A 
ATOM      8  C   UNL     1       4.383   7.580  17.234  0.00  0.00    +0.000 A 
ATOM      9  C   UNL     1       3.357   8.310  17.833  0.00  0.00    +0.000 A 
ATOM     10  C   UNL     1       2.620   7.745  18.863  0.00  0.00    +0.000 A 
ATOM     11  C   UNL     1       2.931   6.453  19.278  0.00  0.00    +0.000 A 
ATOM     12  C   UNL     1       3.890   5.631  18.622  0.00  0.00    +0.000 A 
ATOM     13  C   UNL     1       4.062   4.199  19.168  0.00  0.00    +0.000 C 
ATOM     14  N   UNL     1       4.561   3.112  18.313  0.00  0.00    +0.000 NA
ATOM     15  C   UNL     1       4.551   3.343  16.883  0.00  0.00    +0.000 C 
ATOM     16  H   UNL     1       4.032   2.260  18.502  0.00  0.00    +0.000 HD
ENDROOT
BRANCH  13  17
ATOM     17  C   UNL     1       2.825   3.657  19.887  0.00  0.00    +0.000 A 
ATOM     18  C   UNL     1       2.893   3.312  21.246  0.00  0.00    +0.000 A 
ATOM     19  C   UNL     1       1.825   2.656  21.855  0.00  0.00    +0.000 A 
ATOM     20  C   UNL     1       0.666   2.375  21.128  0.00  0.00    +0.000 A 
ATOM     21  C   UNL     1       0.558   2.782  19.800  0.00  0.00    +0.000 A 
ATOM     22  C   UNL     1       1.634   3.412  19.190  0.00  0.00    +0.000 A 
ATOM     23  F   UNL     1       1.525   3.757  17.898  0.00  0.00    +0.000 F 
ENDBRANCH  13  17
BRANCH  10  24
ATOM     24  C   UNL     1       1.525   8.437  19.478  0.00  0.00    +0.000 C 
ATOM     25  C   UNL     1       0.556   9.112  20.031  0.00  0.00    +0.000 C 
BRANCH  25  26
ATOM     26  C   UNL     1      -0.573   9.900  20.675  0.00  0.00    +0.000 C 
BRANCH  26  27
ATOM     27  N   UNL     1      -0.646  11.320  20.381  0.00  0.00    +0.000 N 
ATOM     28  C   UNL     1      -1.060  11.762  19.175  0.00  0.00    +0.000 C 
ATOM     29  O   UNL     1      -1.634  11.139  18.284  0.00  0.00    +0.000 OA
ATOM     30  C   UNL     1      -0.999  13.197  19.231  0.00  0.00    +0.000 A 
ATOM     31  C   UNL     1      -0.176  14.021  18.492  0.00  0.00    +0.000 A 
ATOM     32  C   UNL     1      -0.022  15.344  18.912  0.00  0.00    +0.000 A 
ATOM     33  C   UNL     1      -0.763  15.818  20.003  0.00  0.00    +0.000 A 
ATOM     34  C   UNL     1      -1.416  14.904  20.839  0.00  0.00    +0.000 A 
ATOM     35  C   UNL     1      -1.326  13.557  20.509  0.00  0.00    +0.000 A 
ATOM     36  C   UNL     1      -0.764  12.387  21.295  0.00  0.00    +0.000 C 
ATOM     37  O   UNL     1      -0.351  12.456  22.423  0.00  0.00    +0.000 OA
ENDBRANCH  26  27
ENDBRANCH  25  26
ENDBRANCH  10  24
TORSDOF 4
ENDMDL
MODEL 2
REMARK VINA RESULT:      -8.6      0.572      1.496
REMARK  Name = 
REMARK  5 active torsions:
REMARK  status: ('A' for Active; 'I' for Inactive)
REMARK    1  A    between atoms: C_1  and  C_2
REMARK    2  A    between atoms: C_10  and  C_11
REMARK    3  A    between atoms: C_12  and  C_13
REMARK    4  A    between atoms: C_13  and  N_14
REMARK    5  A    between atoms: C_27  and  C_28
REMARK                            x       y       z     vdW  Elec       q    Type
REMARK                         _______ _______ _______ _____ _____    ______ ____
ROOT
ATOM      1  C   UNL     1       7.607   7.547  16.953  0.00  0.00    +0.000 C 
ATOM      2  C   UNL     1       7.041   6.215  16.631  0.00  0.00    +0.000 A 
ATOM      3  N   UNL     1       7.714   5.249  16.042  0.00  0.00    +0.000 NA
ATOM      4  N   UNL     1       6.953   4.114  16.074  0.00  0.00    +0.000 NA
ATOM      5  C   UNL     1       5.822   4.409  16.679  0.00  0.00    +0.000 A 
ATOM      6  N   UNL     1       5.797   5.738  17.025  0.00  0.00    +0.000 N 
ATOM      7  C   UNL     1       4.695   6.431  17.596  0.00  0.00    +0.000 A 
ATOM      8  C   UNL     1       4.438   7.747  17.147  0.00  0.00    +0.000 A 
ATOM      9  C   UNL     1       3.346   8.478  17.614  0.00  0.00    +0.000 A 
ATOM     10  C   UNL     1       2.507   7.928  18.572  0.00  0.00    +0.000 A 
ATOM     11  C   UNL     1       2.785   6.651  19.051  0.00  0.00    +0.000 A 
ATOM     12  C   UNL     1       3.818   5.825  18.523  0.00  0.00    +0.000 A 
ATOM     13  C   UNL     1       3.943   4.409  19.121  0.00  0.00    +0.000 C 
ATOM     14  N   UNL     1       4.543   3.308  18.353  0.00  0.00    +0.000 NA
ATOM     15  C   UNL     1       4.686   3.505  16.925  0.00  0.00    +0.000 C 
ATOM     16  H   UNL     1       4.006   2.455  18.505  0.00  0.00    +0.000 HD
ENDROOT
BRANCH  13  17
ATOM     17  C   UNL     1       2.642   3.869  19.716  0.00  0.00    +0.000 A 
ATOM     18  C   UNL     1       2.559   3.580  21.087  0.00  0.00    +0.000 A 
ATOM     19  C   UNL     1       1.439   2.927  21.597  0.00  0.00    +0.000 A 
ATOM     20  C   UNL     1       0.376   2.591  20.755  0.00  0.00    +0.000 A 
ATOM     21  C   UNL     1       0.415   2.941  19.407  0.00  0.00    +0.000 A 
ATOM     22  C   UNL     1       1.544   3.570  18.898  0.00  0.00    +0.000 A 
ATOM     23  F   UNL     1       1.579   3.861  17.589  0.00  0.00    +0.000 F 
ENDBRANCH  13  17
BRANCH  10  24
ATOM     24  C   UNL     1       1.345   8.621  19.047  0.00  0.00    +0.000 C 
ATOM     25  C   UNL     1       0.320   9.293  19.491  0.00  0.00    +0.000 C 
BRANCH  25  26
ATOM     26  C   UNL     1      -0.875  10.077  20.008  0.00  0.00    +0.000 C 
BRANCH  26  27
ATOM     27  N   UNL     1      -0.780  11.526  19.987  0.00  0.00    +0.000 N 
ATOM     28  C   UNL     1      -0.193  12.201  20.998  0.00  0.00    +0.000 C 
ATOM     29  O   UNL     1       0.521  11.766  21.900  0.00  0.00    +0.000 OA
ATOM     30  C   UNL     1      -0.285  13.594  20.658  0.00  0.00    +0.000 A 
ATOM     31  C   UNL     1      -0.997  14.566  21.329  0.00  0.00    +0.000 A 
ATOM     32  C   UNL     1      -1.235  15.777  20.674  0.00  0.00    +0.000 A 
ATOM     33  C   UNL     1      -0.678  16.004  19.408  0.00  0.00    +0.000 A 
ATOM     34  C   UNL     1      -0.147  14.926  18.688  0.00  0.00    +0.000 A 
ATOM     35  C   UNL     1      -0.164  13.677  19.298  0.00  0.00    +0.000 A 
ATOM     36  C   UNL     1      -0.821  12.380  18.867  0.00  0.00    +0.000 C 
ATOM     37  O   UNL     1      -1.404  12.222  17.825  0.00  0.00    +0.000 OA
ENDBRANCH  26  27
ENDBRANCH  25  26
ENDBRANCH  10  24
TORSDOF 4
ENDMDL
MODEL 3
REMARK VINA RESULT:      -8.6      7.364     10.515
REMARK  Name = 
REMARK  5 active torsions:
REMARK  status: ('A' for Active; 'I' for Inactive)
REMARK    1  A    between atoms: C_1  and  C_2
REMARK    2  A    between atoms: C_10  and  C_11
REMARK    3  A    between atoms: C_12  and  C_13
REMARK    4  A    between atoms: C_13  and  N_14
REMARK    5  A    between atoms: C_27  and  C_28
REMARK                            x       y       z     vdW  Elec       q    Type
REMARK                         _______ _______ _______ _____ _____    ______ ____
ROOT
ATOM      1  C   UNL     1      10.683  15.782  16.327  0.00  0.00    +0.000 C 
ATOM      2  C   UNL     1      10.971  16.010  17.763  0.00  0.00    +0.000 A 
ATOM      3  N   UNL     1      11.482  17.122  18.248  0.00  0.00    +0.000 NA
ATOM      4  N   UNL     1      11.435  17.058  19.612  0.00  0.00    +0.000 NA
ATOM      5  C   UNL     1      10.898  15.902  19.939  0.00  0.00    +0.000 A 
ATOM      6  N   UNL     1      10.615  15.169  18.811  0.00  0.00    +0.000 N 
ATOM      7  C   UNL     1      10.129  13.834  18.784  0.00  0.00    +0.000 A 
ATOM      8  C   UNL     1      10.650  12.963  17.799  0.00  0.00    +0.000 A 
ATOM      9  C   UNL     1      10.269  11.623  17.736  0.00  0.00    +0.000 A 
ATOM     10  C   UNL     1       9.328  11.130  18.628  0.00  0.00    +0.000 A 
ATOM     11  C   UNL     1       8.779  11.997  19.567  0.00  0.00    +0.000 A 
ATOM     12  C   UNL     1       9.218  13.340  19.744  0.00  0.00    +0.000 A 
ATOM     13  C   UNL     1       8.551  14.141  20.880  0.00  0.00    +0.000 C 
ATOM     14  N   UNL     1       9.239  15.272  21.520  0.00  0.00    +0.000 NA
ATOM     15  C   UNL     1      10.666  15.385  21.298  0.00  0.00    +0.000 C 
ATOM     16  H   UNL     1       9.073  15.247  22.526  0.00  0.00    +0.000 HD
ENDROOT
BRANCH  13  17
ATOM     17  C   UNL     1       7.995  13.272  22.009  0.00  0.00    +0.000 A 
ATOM     18  C   UNL     1       8.812  12.311  22.627  0.00  0.00    +0.000 A 
ATOM     19  C   UNL     1       8.261  11.403  23.529  0.00  0.00    +0.000 A 
ATOM     20  C   UNL     1       6.904  11.469  23.853  0.00  0.00    +0.000 A 
ATOM     21  C   UNL     1       6.102  12.466  23.304  0.00  0.00    +0.000 A 
ATOM     22  C   UNL     1       6.648  13.354  22.387  0.00  0.00    +0.000 A 
ATOM     23  F   UNL     1       5.849  14.280  21.838  0.00  0.00    +0.000 F 
ENDBRANCH  13  17
BRANCH  10  24
ATOM     24  C   UNL     1       8.941   9.749  18.633  0.00  0.00    +0.000 C 
ATOM     25  C   UNL     1       8.623   8.485  18.678  0.00  0.00    +0.000 C 
BRANCH  25  26
ATOM     26  C   UNL     1       8.251   7.013  18.732  0.00  0.00    +0.000 C 
BRANCH  26  27
ATOM     27  N   UNL     1       6.864   6.666  18.477  0.00  0.00    +0.000 N 
ATOM     28  C   UNL     1       6.212   7.148  17.398  0.00  0.00    +0.000 C 
ATOM     29  O   UNL     1       6.677   7.697  16.401  0.00  0.00    +0.000 OA
ATOM     30  C   UNL     1       4.878   6.618  17.466  0.00  0.00    +0.000 A 
ATOM     31  C   UNL     1       3.711   7.332  17.641  0.00  0.00    +0.000 A 
ATOM     32  C   UNL     1       2.561   6.630  18.009  0.00  0.00    +0.000 A 
ATOM     33  C   UNL     1       2.599   5.232  18.103  0.00  0.00    +0.000 A 
ATOM     34  C   UNL     1       3.838   4.579  18.122  0.00  0.00    +0.000 A 
ATOM     35  C   UNL     1       4.978   5.364  18.001  0.00  0.00    +0.000 A 
ATOM     36  C   UNL     1       6.155   5.541  18.942  0.00  0.00    +0.000 C 
ATOM     37  O   UNL     1       6.309   4.929  19.967  0.00  0.00    +0.000 OA
ENDBRANCH  26  27
ENDBRANCH  25  26
ENDBRANCH  10  24
TORSDOF 4
ENDMDL
MODEL 4
REMARK VINA RESULT:      -8.6      0.896      1.008
REMARK  Name = 
REMARK  5 active torsions:
REMARK  status: ('A' for Active; 'I' for Inactive)
REMARK    1  A    between atoms: C_1  and  C_2
REMARK    2  A    between atoms: C_10  and  C_11
REMARK    3  A    between atoms: C_12  and  C_13
REMARK    4  A    between atoms: C_13  and  N_14
REMARK    5  A    between atoms: C_27  and  C_28
REMARK                            x       y       z     vdW  Elec       q    Type
REMARK                         _______ _______ _______ _____ _____    ______ ____
ROOT
ATOM      1  C   UNL     1       7.560   7.516  16.812  0.00  0.00    +0.000 C 
ATOM      2  C   UNL     1       6.981   6.187  16.505  0.00  0.00    +0.000 A 
ATOM      3  N   UNL     1       7.626   5.226  15.878  0.00  0.00    +0.000 NA
ATOM      4  N   UNL     1       6.868   4.091  15.935  0.00  0.00    +0.000 NA
ATOM      5  C   UNL     1       5.766   4.379  16.592  0.00  0.00    +0.000 A 
ATOM      6  N   UNL     1       5.755   5.706  16.950  0.00  0.00    +0.000 N 
ATOM      7  C   UNL     1       4.680   6.393  17.576  0.00  0.00    +0.000 A 
ATOM      8  C   UNL     1       4.403   7.712  17.150  0.00  0.00    +0.000 A 
ATOM      9  C   UNL     1       3.333   8.438  17.672  0.00  0.00    +0.000 A 
ATOM     10  C   UNL     1       2.538   7.881  18.662  0.00  0.00    +0.000 A 
ATOM     11  C   UNL     1       2.837   6.600  19.117  0.00  0.00    +0.000 A 
ATOM     12  C   UNL     1       3.846   5.779  18.537  0.00  0.00    +0.000 A 
ATOM     13  C   UNL     1       3.999   4.358  19.117  0.00  0.00    +0.000 C 
ATOM     14  N   UNL     1       4.563   3.264  18.313  0.00  0.00    +0.000 NA
ATOM     15  C   UNL     1       4.642   3.472  16.882  0.00  0.00    +0.000 C 
ATOM     16  H   UNL     1       4.034   2.409  18.482  0.00  0.00    +0.000 HD
ENDROOT
BRANCH  13  17
ATOM     17  C   UNL     1       2.725   3.812  19.765  0.00  0.00    +0.000 A 
ATOM     18  C   UNL     1       2.705   3.509  21.136  0.00  0.00    +0.000 A 
ATOM     19  C   UNL     1       1.609   2.850  21.689  0.00  0.00    +0.000 A 
ATOM     20  C   UNL     1       0.509   2.524  20.893  0.00  0.00    +0.000 A 
ATOM     21  C   UNL     1       0.486   2.888  19.549  0.00  0.00    +0.000 A 
ATOM     22  C   UNL     1       1.591   3.522  18.995  0.00  0.00    +0.000 A 
ATOM     23  F   UNL     1       1.566   3.827  17.689  0.00  0.00    +0.000 F 
ENDBRANCH  13  17
BRANCH  10  24
ATOM     24  C   UNL     1       1.398   8.569  19.195  0.00  0.00    +0.000 C 
ATOM     25  C   UNL     1       0.369   9.233  19.642  0.00  0.00    +0.000 C 
BRANCH  25  26
ATOM     26  C   UNL     1      -0.831  10.006  20.162  0.00  0.00    +0.000 C 
BRANCH  26  27
ATOM     27  N   UNL     1      -0.597  11.358  20.637  0.00  0.00    +0.000 N 
ATOM     28  C   UNL     1      -0.795  12.424  19.832  0.00  0.00    +0.000 C 
ATOM     29  O   UNL     1      -1.389  12.474  18.756  0.00  0.00    +0.000 OA
ATOM     30  C   UNL     1      -0.462  13.584  20.612  0.00  0.00    +0.000 A 
ATOM     31  C   UNL     1       0.574  14.465  20.385  0.00  0.00    +0.000 A 
ATOM     32  C   UNL     1       0.941  15.329  21.421  0.00  0.00    +0.000 A 
ATOM     33  C   UNL     1       0.202  15.340  22.612  0.00  0.00    +0.000 A 
ATOM     34  C   UNL     1      -0.696  14.297  22.873  0.00  0.00    +0.000 A 
ATOM     35  C   UNL     1      -0.838  13.315  21.899  0.00  0.00    +0.000 A 
ATOM     36  C   UNL     1      -0.595  11.819  21.968  0.00  0.00    +0.000 C 
ATOM     37  O   UNL     1      -0.289  11.221  22.968  0.00  0.00    +0.000 OA
ENDBRANCH  26  27
ENDBRANCH  25  26
ENDBRANCH  10  24
TORSDOF 4
ENDMDL
MODEL 5
REMARK VINA RESULT:      -8.6      0.990      1.250
REMARK  Name = 
REMARK  5 active torsions:
REMARK  status: ('A' for Active; 'I' for Inactive)
REMARK    1  A    between atoms: C_1  and  C_2
REMARK    2  A    between atoms: C_10  and  C_11
REMARK    3  A    between atoms: C_12  and  C_13
REMARK    4  A    between atoms: C_13  and  N_14
REMARK    5  A    between atoms: C_27  and  C_28
REMARK                            x       y       z     vdW  Elec       q    Type
REMARK                         _______ _______ _______ _____ _____    ______ ____
ROOT
ATOM      1  C   UNL     1       7.444   7.163  16.429  0.00  0.00    +0.000 C 
ATOM      2  C   UNL     1       6.808   5.854  16.145  0.00  0.00    +0.000 A 
ATOM      3  N   UNL     1       7.345   4.920  15.389  0.00  0.00    +0.000 NA
ATOM      4  N   UNL     1       6.587   3.788  15.501  0.00  0.00    +0.000 NA
ATOM      5  C   UNL     1       5.593   4.053  16.322  0.00  0.00    +0.000 A 
ATOM      6  N   UNL     1       5.652   5.361  16.739  0.00  0.00    +0.000 N 
ATOM      7  C   UNL     1       4.686   6.025  17.543  0.00  0.00    +0.000 A 
ATOM      8  C   UNL     1       4.370   7.365  17.222  0.00  0.00    +0.000 A 
ATOM      9  C   UNL     1       3.395   8.073  17.924  0.00  0.00    +0.000 A 
ATOM     10  C   UNL     1       2.741   7.474  18.991  0.00  0.00    +0.000 A 
ATOM     11  C   UNL     1       3.084   6.171  19.338  0.00  0.00    +0.000 A 
ATOM     12  C   UNL     1       3.989   5.372  18.583  0.00  0.00    +0.000 A 
ATOM     13  C   UNL     1       4.203   3.924  19.069  0.00  0.00    +0.000 C 
ATOM     14  N   UNL     1       4.633   2.866  18.143  0.00  0.00    +0.000 NA
ATOM     15  C   UNL     1       4.510   3.141  16.726  0.00  0.00    +0.000 C 
ATOM     16  H   UNL     1       4.121   2.007  18.346  0.00  0.00    +0.000 HD
ENDROOT
BRANCH  13  17
ATOM     17  C   UNL     1       3.027   3.357  19.866  0.00  0.00    +0.000 A 
ATOM     18  C   UNL     1       1.714   3.751  19.564  0.00  0.00    +0.000 A 
ATOM     19  C   UNL     1       0.662   3.375  20.396  0.00  0.00    +0.000 A 
ATOM     20  C   UNL     1       0.902   2.571  21.513  0.00  0.00    +0.000 A 
ATOM     21  C   UNL     1       2.190   2.111  21.779  0.00  0.00    +0.000 A 
ATOM     22  C   UNL     1       3.239   2.509  20.961  0.00  0.00    +0.000 A 
ATOM     23  F   UNL     1       4.478   2.089  21.258  0.00  0.00    +0.000 F 
ENDBRANCH  13  17
BRANCH  10  24
ATOM     24  C   UNL     1       1.698   8.144  19.712  0.00  0.00    +0.000 C 
ATOM     25  C   UNL     1       0.756   8.717  20.407  0.00  0.00    +0.000 C 
BRANCH  25  26
ATOM     26  C   UNL     1      -0.343   9.386  21.217  0.00  0.00    +0.000 C 
BRANCH  26  27
ATOM     27  N   UNL     1      -0.621  10.783  20.935  0.00  0.00    +0.000 N 
ATOM     28  C   UNL     1      -1.096  11.171  19.733  0.00  0.00    +0.000 C 
ATOM     29  O   UNL     1      -1.575  10.479  18.836  0.00  0.00    +0.000 OA
ATOM     30  C   UNL     1      -1.243  12.599  19.801  0.00  0.00    +0.000 A 
ATOM     31  C   UNL     1      -0.550  13.539  19.068  0.00  0.00    +0.000 A 
ATOM     32  C   UNL     1      -0.588  14.867  19.500  0.00  0.00    +0.000 A 
ATOM     33  C   UNL     1      -1.388  15.220  20.595  0.00  0.00    +0.000 A 
ATOM     34  C   UNL     1      -1.901  14.213  21.424  0.00  0.00    +0.000 A 
ATOM     35  C   UNL     1      -1.617  12.896  21.082  0.00  0.00    +0.000 A 
ATOM     36  C   UNL     1      -0.891  11.813  21.858  0.00  0.00    +0.000 C 
ATOM     37  O   UNL     1      -0.490  11.933  22.987  0.00  0.00    +0.000 OA
ENDBRANCH  26  27
ENDBRANCH  25  26
ENDBRANCH  10  24
TORSDOF 4
ENDMDL
MODEL 6
REMARK VINA RESULT:      -8.6      1.138      1.787
REMARK  Name = 
REMARK  5 active torsions:
REMARK  status: ('A' for Active; 'I' for Inactive)
REMARK    1  A    between atoms: C_1  and  C_2
REMARK    2  A    between atoms: C_10  and  C_11
REMARK    3  A    between atoms: C_12  and  C_13
REMARK    4  A    between atoms: C_13  and  N_14
REMARK    5  A    between atoms: C_27  and  C_28
REMARK                            x       y       z     vdW  Elec       q    Type
REMARK                         _______ _______ _______ _____ _____    ______ ____
ROOT
ATOM      1  C   UNL     1       7.478   7.704  16.907  0.00  0.00    +0.000 C 
ATOM      2  C   UNL     1       6.929   6.369  16.568  0.00  0.00    +0.000 A 
ATOM      3  N   UNL     1       7.597   5.438  15.919  0.00  0.00    +0.000 NA
ATOM      4  N   UNL     1       6.865   4.285  15.948  0.00  0.00    +0.000 NA
ATOM      5  C   UNL     1       5.756   4.532  16.612  0.00  0.00    +0.000 A 
ATOM      6  N   UNL     1       5.715   5.849  17.002  0.00  0.00    +0.000 N 
ATOM      7  C   UNL     1       4.625   6.496  17.644  0.00  0.00    +0.000 A 
ATOM      8  C   UNL     1       4.318   7.819  17.249  0.00  0.00    +0.000 A 
ATOM      9  C   UNL     1       3.231   8.508  17.787  0.00  0.00    +0.000 A 
ATOM     10  C   UNL     1       2.449   7.908  18.764  0.00  0.00    +0.000 A 
ATOM     11  C   UNL     1       2.778   6.624  19.188  0.00  0.00    +0.000 A 
ATOM     12  C   UNL     1       3.805   5.841  18.589  0.00  0.00    +0.000 A 
ATOM     13  C   UNL     1       3.991   4.411  19.135  0.00  0.00    +0.000 C 
ATOM     14  N   UNL     1       4.580   3.349  18.306  0.00  0.00    +0.000 NA
ATOM     15  C   UNL     1       4.654   3.593  16.880  0.00  0.00    +0.000 C 
ATOM     16  H   UNL     1       4.071   2.478  18.454  0.00  0.00    +0.000 HD
ENDROOT
BRANCH  13  17
ATOM     17  C   UNL     1       2.730   3.820  19.769  0.00  0.00    +0.000 A 
ATOM     18  C   UNL     1       2.713   3.497  21.136  0.00  0.00    +0.000 A 
ATOM     19  C   UNL     1       1.634   2.800  21.675  0.00  0.00    +0.000 A 
ATOM     20  C   UNL     1       0.546   2.455  20.869  0.00  0.00    +0.000 A 
ATOM     21  C   UNL     1       0.519   2.837  19.530  0.00  0.00    +0.000 A 
ATOM     22  C   UNL     1       1.608   3.509  18.990  0.00  0.00    +0.000 A 
ATOM     23  F   UNL     1       1.580   3.832  17.689  0.00  0.00    +0.000 F 
ENDBRANCH  13  17
BRANCH  10  24
ATOM     24  C   UNL     1       1.294   8.557  19.313  0.00  0.00    +0.000 C 
ATOM     25  C   UNL     1       0.277   9.182  19.835  0.00  0.00    +0.000 C 
BRANCH  25  26
ATOM     26  C   UNL     1      -0.910   9.912  20.444  0.00  0.00    +0.000 C 
BRANCH  26  27
ATOM     27  N   UNL     1      -0.671  11.240  20.980  0.00  0.00    +0.000 N 
ATOM     28  C   UNL     1      -0.657  11.464  22.311  0.00  0.00    +0.000 C 
ATOM     29  O   UNL     1      -0.592  10.645  23.227  0.00  0.00    +0.000 OA
ATOM     30  C   UNL     1      -0.407  12.869  22.480  0.00  0.00    +0.000 A 
ATOM     31  C   UNL     1      -1.265  13.803  23.020  0.00  0.00    +0.000 A 
ATOM     32  C   UNL     1      -0.985  15.155  22.802  0.00  0.00    +0.000 A 
ATOM     33  C   UNL     1       0.187  15.523  22.127  0.00  0.00    +0.000 A 
ATOM     34  C   UNL     1       0.908  14.550  21.424  0.00  0.00    +0.000 A 
ATOM     35  C   UNL     1       0.437  13.243  21.471  0.00  0.00    +0.000 A 
ATOM     36  C   UNL     1      -0.012  12.318  20.356  0.00  0.00    +0.000 C 
ATOM     37  O   UNL     1       0.047  12.583  19.183  0.00  0.00    +0.000 OA
ENDBRANCH  26  27
ENDBRANCH  25  26
ENDBRANCH  10  24
TORSDOF 4
ENDMDL
MODEL 7
REMARK VINA RESULT:      -8.5      3.350     10.147
REMARK  Name = 
REMARK  5 active torsions:
REMARK  status: ('A' for Active; 'I' for Inactive)
REMARK    1  A    between atoms: C_1  and  C_2
REMARK    2  A    between atoms: C_10  and  C_11
REMARK    3  A    between atoms: C_12  and  C_13
REMARK    4  A    between atoms: C_13  and  N_14
REMARK    5  A    between atoms: C_27  and  C_28
REMARK                            x       y       z     vdW  Elec       q    Type
REMARK                         _______ _______ _______ _____ _____    ______ ____
ROOT
ATOM      1  C   UNL     1      -0.996  14.620  24.230  0.00  0.00    +0.000 C 
ATOM      2  C   UNL     1      -2.266  14.471  23.480  0.00  0.00    +0.000 A 
ATOM      3  N   UNL     1      -3.257  15.337  23.526  0.00  0.00    +0.000 NA
ATOM      4  N   UNL     1      -4.177  14.987  22.578  0.00  0.00    +0.000 NA
ATOM      5  C   UNL     1      -3.734  13.908  21.970  0.00  0.00    +0.000 A 
ATOM      6  N   UNL     1      -2.541  13.504  22.521  0.00  0.00    +0.000 N 
ATOM      7  C   UNL     1      -1.827  12.321  22.190  0.00  0.00    +0.000 A 
ATOM      8  C   UNL     1      -1.214  11.604  23.243  0.00  0.00    +0.000 A 
ATOM      9  C   UNL     1      -0.541  10.404  23.014  0.00  0.00    +0.000 A 
ATOM     10  C   UNL     1      -0.427   9.912  21.723  0.00  0.00    +0.000 A 
ATOM     11  C   UNL     1      -0.989  10.640  20.678  0.00  0.00    +0.000 A 
ATOM     12  C   UNL     1      -1.781  11.807  20.875  0.00  0.00    +0.000 A 
ATOM     13  C   UNL     1      -2.387  12.451  19.612  0.00  0.00    +0.000 C 
ATOM     14  N   UNL     1      -3.608  13.268  19.684  0.00  0.00    +0.000 NA
ATOM     15  C   UNL     1      -4.401  13.160  20.891  0.00  0.00    +0.000 C 
ATOM     16  H   UNL     1      -4.208  13.055  18.888  0.00  0.00    +0.000 HD
ENDROOT
BRANCH  13  17
ATOM     17  C   UNL     1      -2.583  11.476  18.450  0.00  0.00    +0.000 A 
ATOM     18  C   UNL     1      -3.865  10.994  18.141  0.00  0.00    +0.000 A 
ATOM     19  C   UNL     1      -4.021   9.976  17.203  0.00  0.00    +0.000 A 
ATOM     20  C   UNL     1      -2.909   9.457  16.536  0.00  0.00    +0.000 A 
ATOM     21  C   UNL     1      -1.641   9.980  16.780  0.00  0.00    +0.000 A 
ATOM     22  C   UNL     1      -1.486  10.978  17.734  0.00  0.00    +0.000 A 
ATOM     23  F   UNL     1      -0.252  11.439  17.983  0.00  0.00    +0.000 F 
ENDBRANCH  13  17
BRANCH  10  24
ATOM     24  C   UNL     1       0.213   8.660  21.444  0.00  0.00    +0.000 C 
ATOM     25  C   UNL     1       0.767   7.518  21.145  0.00  0.00    +0.000 C 
BRANCH  25  26
ATOM     26  C   UNL     1       1.414   6.187  20.795  0.00  0.00    +0.000 C 
BRANCH  26  27
ATOM     27  N   UNL     1       2.539   6.214  19.878  0.00  0.00    +0.000 N 
ATOM     28  C   UNL     1       3.335   5.136  19.718  0.00  0.00    +0.000 C 
ATOM     29  O   UNL     1       3.139   3.976  20.077  0.00  0.00    +0.000 OA
ATOM     30  C   UNL     1       4.336   5.514  18.759  0.00  0.00    +0.000 A 
ATOM     31  C   UNL     1       5.691   5.633  18.979  0.00  0.00    +0.000 A 
ATOM     32  C   UNL     1       6.453   6.322  18.031  0.00  0.00    +0.000 A 
ATOM     33  C   UNL     1       5.846   6.789  16.857  0.00  0.00    +0.000 A 
ATOM     34  C   UNL     1       4.448   6.828  16.776  0.00  0.00    +0.000 A 
ATOM     35  C   UNL     1       3.729   6.354  17.867  0.00  0.00    +0.000 A 
ATOM     36  C   UNL     1       2.724   7.054  18.762  0.00  0.00    +0.000 C 
ATOM     37  O   UNL     1       2.329   8.180  18.597  0.00  0.00    +0.000 OA
ENDBRANCH  26  27
ENDBRANCH  25  26
ENDBRANCH  10  24
TORSDOF 4
ENDMDL
MODEL 8
REMARK VINA RESULT:      -8.4      3.709     10.911
REMARK  Name = 
REMARK  5 active torsions:
REMARK  status: ('A' for Active; 'I' for Inactive)
REMARK    1  A    between atoms: C_1  and  C_2
REMARK    2  A    between atoms: C_10  and  C_11
REMARK    3  A    between atoms: C_12  and  C_13
REMARK    4  A    between atoms: C_13  and  N_14
REMARK    5  A    between atoms: C_27  and  C_28
REMARK                            x       y       z     vdW  Elec       q    Type
REMARK                         _______ _______ _______ _____ _____    ______ ____
ROOT
ATOM      1  C   UNL     1      -3.736  13.669  22.363  0.00  0.00    +0.000 C 
ATOM      2  C   UNL     1      -3.245  14.783  21.517  0.00  0.00    +0.000 A 
ATOM      3  N   UNL     1      -3.776  15.988  21.501  0.00  0.00    +0.000 NA
ATOM      4  N   UNL     1      -2.966  16.804  20.762  0.00  0.00    +0.000 NA
ATOM      5  C   UNL     1      -1.954  16.081  20.333  0.00  0.00    +0.000 A 
ATOM      6  N   UNL     1      -2.089  14.777  20.745  0.00  0.00    +0.000 N 
ATOM      7  C   UNL     1      -1.243  13.695  20.381  0.00  0.00    +0.000 A 
ATOM      8  C   UNL     1      -1.849  12.445  20.113  0.00  0.00    +0.000 A 
ATOM      9  C   UNL     1      -1.100  11.345  19.696  0.00  0.00    +0.000 A 
ATOM     10  C   UNL     1       0.278  11.454  19.576  0.00  0.00    +0.000 A 
ATOM     11  C   UNL     1       0.881  12.669  19.885  0.00  0.00    +0.000 A 
ATOM     12  C   UNL     1       0.150  13.848  20.204  0.00  0.00    +0.000 A 
ATOM     13  C   UNL     1       0.974  15.128  20.450  0.00  0.00    +0.000 C 
ATOM     14  N   UNL     1       0.391  16.461  20.244  0.00  0.00    +0.000 NA
ATOM     15  C   UNL     1      -0.840  16.530  19.482  0.00  0.00    +0.000 C 
ATOM     16  H   UNL     1       1.077  17.068  19.796  0.00  0.00    +0.000 HD
ENDROOT
BRANCH  13  17
ATOM     17  C   UNL     1       2.335  15.133  19.752  0.00  0.00    +0.000 A 
ATOM     18  C   UNL     1       2.409  15.224  18.352  0.00  0.00    +0.000 A 
ATOM     19  C   UNL     1       3.631  15.053  17.705  0.00  0.00    +0.000 A 
ATOM     20  C   UNL     1       4.794  14.829  18.446  0.00  0.00    +0.000 A 
ATOM     21  C   UNL     1       4.744  14.813  19.838  0.00  0.00    +0.000 A 
ATOM     22  C   UNL     1       3.520  14.959  20.478  0.00  0.00    +0.000 A 
ATOM     23  F   UNL     1       3.487  14.899  21.818  0.00  0.00    +0.000 F 
ENDBRANCH  13  17
BRANCH  10  24
ATOM     24  C   UNL     1       1.084  10.366  19.106  0.00  0.00    +0.000 C 
ATOM     25  C   UNL     1       1.788   9.375  18.633  0.00  0.00    +0.000 C 
BRANCH  25  26
ATOM     26  C   UNL     1       2.609   8.222  18.081  0.00  0.00    +0.000 C 
BRANCH  26  27
ATOM     27  N   UNL     1       2.369   6.905  18.644  0.00  0.00    +0.000 N 
ATOM     28  C   UNL     1       2.861   5.794  18.056  0.00  0.00    +0.000 C 
ATOM     29  O   UNL     1       3.722   5.705  17.181  0.00  0.00    +0.000 OA
ATOM     30  C   UNL     1       2.429   4.686  18.862  0.00  0.00    +0.000 A 
ATOM     31  C   UNL     1       1.566   3.677  18.490  0.00  0.00    +0.000 A 
ATOM     32  C   UNL     1       1.010   2.884  19.496  0.00  0.00    +0.000 A 
ATOM     33  C   UNL     1       1.403   3.072  20.828  0.00  0.00    +0.000 A 
ATOM     34  C   UNL     1       2.110   4.230  21.178  0.00  0.00    +0.000 A 
ATOM     35  C   UNL     1       2.425   5.121  20.159  0.00  0.00    +0.000 A 
ATOM     36  C   UNL     1       2.050   6.580  19.977  0.00  0.00    +0.000 C 
ATOM     37  O   UNL     1       1.442   7.235  20.784  0.00  0.00    +0.000 OA
ENDBRANCH  26  27
ENDBRANCH  25  26
ENDBRANCH  10  24
TORSDOF 4
ENDMDL
MODEL 9
REMARK VINA RESULT:      -8.4      3.466     10.418
REMARK  Name = 
REMARK  5 active torsions:
REMARK  status: ('A' for Active; 'I' for Inactive)
REMARK    1  A    between atoms: C_1  and  C_2
REMARK    2  A    between atoms: C_10  and  C_11
REMARK    3  A    between atoms: C_12  and  C_13
REMARK    4  A    between atoms: C_13  and  N_14
REMARK    5  A    between atoms: C_27  and  C_28
REMARK                            x       y       z     vdW  Elec       q    Type
REMARK                         _______ _______ _______ _____ _____    ______ ____
ROOT
ATOM      1  C   UNL     1      -0.951  14.578  23.788  0.00  0.00    +0.000 C 
ATOM      2  C   UNL     1      -2.290  14.103  23.366  0.00  0.00    +0.000 A 
ATOM      3  N   UNL     1      -3.425  14.590  23.822  0.00  0.00    +0.000 NA
ATOM      4  N   UNL     1      -4.447  14.059  23.085  0.00  0.00    +0.000 NA
ATOM      5  C   UNL     1      -3.917  13.250  22.193  0.00  0.00    +0.000 A 
ATOM      6  N   UNL     1      -2.552  13.202  22.341  0.00  0.00    +0.000 N 
ATOM      7  C   UNL     1      -1.665  12.355  21.623  0.00  0.00    +0.000 A 
ATOM      8  C   UNL     1      -0.590  11.772  22.334  0.00  0.00    +0.000 A 
ATOM      9  C   UNL     1       0.295  10.886  21.721  0.00  0.00    +0.000 A 
ATOM     10  C   UNL     1       0.155  10.592  20.373  0.00  0.00    +0.000 A 
ATOM     11  C   UNL     1      -0.874  11.200  19.660  0.00  0.00    +0.000 A 
ATOM     12  C   UNL     1      -1.868  12.020  20.266  0.00  0.00    +0.000 A 
ATOM     13  C   UNL     1      -2.978  12.558  19.341  0.00  0.00    +0.000 C 
ATOM     14  N   UNL     1      -4.300  12.923  19.870  0.00  0.00    +0.000 NA
ATOM     15  C   UNL     1      -4.635  12.440  21.194  0.00  0.00    +0.000 C 
ATOM     16  H   UNL     1      -5.024  12.609  19.224  0.00  0.00    +0.000 HD
ENDROOT
BRANCH  13  17
ATOM     17  C   UNL     1      -3.225  11.696  18.102  0.00  0.00    +0.000 A 
ATOM     18  C   UNL     1      -4.300  10.792  18.074  0.00  0.00    +0.000 A 
ATOM     19  C   UNL     1      -4.423   9.885  17.024  0.00  0.00    +0.000 A 
ATOM     20  C   UNL     1      -3.501   9.895  15.975  0.00  0.00    +0.000 A 
ATOM     21  C   UNL     1      -2.476  10.838  15.954  0.00  0.00    +0.000 A 
ATOM     22  C   UNL     1      -2.342  11.724  17.015  0.00  0.00    +0.000 A 
ATOM     23  F   UNL     1      -1.323  12.596  16.996  0.00  0.00    +0.000 F 
ENDBRANCH  13  17
BRANCH  10  24
ATOM     24  C   UNL     1       1.010   9.650  19.711  0.00  0.00    +0.000 C 
ATOM     25  C   UNL     1       1.761   8.755  19.133  0.00  0.00    +0.000 C 
BRANCH  25  26
ATOM     26  C   UNL     1       2.635   7.711  18.458  0.00  0.00    +0.000 C 
BRANCH  26  27
ATOM     27  N   UNL     1       2.439   6.326  18.848  0.00  0.00    +0.000 N 
ATOM     28  C   UNL     1       3.013   5.319  18.156  0.00  0.00    +0.000 C 
ATOM     29  O   UNL     1       3.914   5.376  17.321  0.00  0.00    +0.000 OA
ATOM     30  C   UNL     1       2.603   4.103  18.803  0.00  0.00    +0.000 A 
ATOM     31  C   UNL     1       1.811   3.107  18.271  0.00  0.00    +0.000 A 
ATOM     32  C   UNL     1       1.253   2.173  19.147  0.00  0.00    +0.000 A 
ATOM     33  C   UNL     1       1.578   2.216  20.509  0.00  0.00    +0.000 A 
ATOM     34  C   UNL     1       2.209   3.354  21.029  0.00  0.00    +0.000 A 
ATOM     35  C   UNL     1       2.521   4.376  20.140  0.00  0.00    +0.000 A 
ATOM     36  C   UNL     1       2.080   5.827  20.115  0.00  0.00    +0.000 C 
ATOM     37  O   UNL     1       1.404   6.351  20.963  0.00  0.00    +0.000 OA
ENDBRANCH  26  27
ENDBRANCH  25  26
ENDBRANCH  10  24
TORSDOF 4
ENDMDL
