MODEL 1
REMARK VINA RESULT:      -6.1      0.000      0.000
REMARK  Name = 
REMARK  3 active torsions:
REMARK  status: ('A' for Active; 'I' for Inactive)
REMARK    1  A    between atoms: C_1  and  N_2
REMARK    2  A    between atoms: N_5  and  C_6
REMARK    3  A    between atoms: C_6  and  C_8
REMARK                            x       y       z     vdW  Elec       q    Type
REMARK                         _______ _______ _______ _____ _____    ______ ____
ROOT
ATOM      1  C   UNL     1       2.914   5.313  19.741  0.00  0.00    +0.000 C 
ATOM      2  S   UNL     1       2.202   4.214  20.800  0.00  0.00    +0.000 S 
ENDROOT
BRANCH   1   7
ATOM      3  C   UNL     1       6.871   4.694  15.818  0.00  0.00    +0.000 C 
ATOM      4  N   UNL     1       6.096   4.386  17.017  0.00  0.00    +0.000 NA
ATOM      5  C   UNL     1       4.683   4.132  16.675  0.00  0.00    +0.000 C 
ATOM      6  C   UNL     1       3.819   3.852  17.921  0.00  0.00    +0.000 C 
ATOM      7  N   UNL     1       3.947   4.956  18.875  0.00  0.00    +0.000 N 
ATOM      8  C   UNL     1       5.336   5.240  19.252  0.00  0.00    +0.000 C 
ATOM      9  C   UNL     1       6.208   5.480  18.006  0.00  0.00    +0.000 C 
ENDBRANCH   1   7
BRANCH   1  10
ATOM     10  C   UNL     1       2.420   6.726  19.561  0.00  0.00    +0.000 A 
ATOM     11  C   UNL     1       2.516   7.323  18.291  0.00  0.00    +0.000 A 
ATOM     12  C   UNL     1       1.991   8.597  18.056  0.00  0.00    +0.000 A 
ATOM     13  C   UNL     1       1.357   9.279  19.089  0.00  0.00    +0.000 A 
ATOM     14 BR   UNL     1       0.609  10.984  18.762  0.00  0.00    +0.000 Br
ATOM     15  C   UNL     1       1.258   8.708  20.357  0.00  0.00    +0.000 A 
ATOM     16  C   UNL     1       1.790   7.434  20.594  0.00  0.00    +0.000 A 
ENDBRANCH   1  10
TORSDOF 2
ENDMDL
MODEL 2
REMARK VINA RESULT:      -6.1      0.101      1.213
REMARK  Name = 
REMARK  3 active torsions:
REMARK  status: ('A' for Active; 'I' for Inactive)
REMARK    1  A    between atoms: C_1  and  N_2
REMARK    2  A    between atoms: N_5  and  C_6
REMARK    3  A    between atoms: C_6  and  C_8
REMARK                            x       y       z     vdW  Elec       q    Type
REMARK                         _______ _______ _______ _____ _____    ______ ____
ROOT
ATOM      1  C   UNL     1       2.945   5.333  19.713  0.00  0.00    +0.000 C 
ATOM      2  S   UNL     1       2.317   4.279  20.866  0.00  0.00    +0.000 S 
ENDROOT
BRANCH   1   7
ATOM      3  C   UNL     1       6.932   4.701  15.823  0.00  0.00    +0.000 C 
ATOM      4  N   UNL     1       6.142   4.391  17.012  0.00  0.00    +0.000 NA
ATOM      5  C   UNL     1       4.729   4.159  16.653  0.00  0.00    +0.000 C 
ATOM      6  C   UNL     1       3.849   3.878  17.888  0.00  0.00    +0.000 C 
ATOM      7  N   UNL     1       3.982   4.971  18.854  0.00  0.00    +0.000 N 
ATOM      8  C   UNL     1       5.370   5.234  19.247  0.00  0.00    +0.000 C 
ATOM      9  C   UNL     1       6.258   5.475  18.012  0.00  0.00    +0.000 C 
ENDBRANCH   1   7
BRANCH   1  10
ATOM     10  C   UNL     1       2.366   6.697  19.439  0.00  0.00    +0.000 A 
ATOM     11  C   UNL     1       1.748   7.397  20.492  0.00  0.00    +0.000 A 
ATOM     12  C   UNL     1       1.276   8.699  20.308  0.00  0.00    +0.000 A 
ATOM     13  C   UNL     1       1.427   9.316  19.070  0.00  0.00    +0.000 A 
ATOM     14 BR   UNL     1       0.828  11.092  18.831  0.00  0.00    +0.000 Br
ATOM     15  C   UNL     1       2.030   8.638  18.012  0.00  0.00    +0.000 A 
ATOM     16  C   UNL     1       2.497   7.330  18.195  0.00  0.00    +0.000 A 
ENDBRANCH   1  10
TORSDOF 2
ENDMDL
MODEL 3
REMARK VINA RESULT:      -6.0      3.864      6.063
REMARK  Name = 
REMARK  3 active torsions:
REMARK  status: ('A' for Active; 'I' for Inactive)
REMARK    1  A    between atoms: C_1  and  N_2
REMARK    2  A    between atoms: N_5  and  C_6
REMARK    3  A    between atoms: C_6  and  C_8
REMARK                            x       y       z     vdW  Elec       q    Type
REMARK                         _______ _______ _______ _____ _____    ______ ____
ROOT
ATOM      1  C   UNL     1       5.983   4.899  18.355  0.00  0.00    +0.000 C 
ATOM      2  S   UNL     1       7.236   5.647  19.195  0.00  0.00    +0.000 S 
ENDROOT
BRANCH   1   7
ATOM      3  C   UNL     1       0.875   3.217  19.942  0.00  0.00    +0.000 C 
ATOM      4  N   UNL     1       2.249   3.692  20.089  0.00  0.00    +0.000 NA
ATOM      5  C   UNL     1       2.416   5.011  19.448  0.00  0.00    +0.000 C 
ATOM      6  C   UNL     1       3.867   5.526  19.537  0.00  0.00    +0.000 C 
ATOM      7  N   UNL     1       4.784   4.535  18.968  0.00  0.00    +0.000 N 
ATOM      8  C   UNL     1       4.659   3.209  19.581  0.00  0.00    +0.000 C 
ATOM      9  C   UNL     1       3.203   2.711  19.528  0.00  0.00    +0.000 C 
ENDBRANCH   1   7
BRANCH   1  10
ATOM     10  C   UNL     1       6.008   4.669  16.866  0.00  0.00    +0.000 A 
ATOM     11  C   UNL     1       7.175   4.991  16.148  0.00  0.00    +0.000 A 
ATOM     12  C   UNL     1       7.277   4.713  14.783  0.00  0.00    +0.000 A 
ATOM     13  C   UNL     1       6.214   4.101  14.126  0.00  0.00    +0.000 A 
ATOM     14 BR   UNL     1       6.365   3.686  12.288  0.00  0.00    +0.000 Br
ATOM     15  C   UNL     1       5.046   3.781  14.816  0.00  0.00    +0.000 A 
ATOM     16  C   UNL     1       4.943   4.065  16.184  0.00  0.00    +0.000 A 
ENDBRANCH   1  10
TORSDOF 2
ENDMDL
MODEL 4
REMARK VINA RESULT:      -5.8      3.862      6.103
REMARK  Name = 
REMARK  3 active torsions:
REMARK  status: ('A' for Active; 'I' for Inactive)
REMARK    1  A    between atoms: C_1  and  N_2
REMARK    2  A    between atoms: N_5  and  C_6
REMARK    3  A    between atoms: C_6  and  C_8
REMARK                            x       y       z     vdW  Elec       q    Type
REMARK                         _______ _______ _______ _____ _____    ______ ____
ROOT
ATOM      1  C   UNL     1       6.039   4.827  18.431  0.00  0.00    +0.000 C 
ATOM      2  S   UNL     1       7.222   5.661  19.293  0.00  0.00    +0.000 S 
ENDROOT
BRANCH   1   7
ATOM      3  C   UNL     1       0.865   3.165  19.806  0.00  0.00    +0.000 C 
ATOM      4  N   UNL     1       2.228   3.649  20.009  0.00  0.00    +0.000 NA
ATOM      5  C   UNL     1       2.423   4.952  19.344  0.00  0.00    +0.000 C 
ATOM      6  C   UNL     1       3.866   5.475  19.491  0.00  0.00    +0.000 C 
ATOM      7  N   UNL     1       4.813   4.474  18.993  0.00  0.00    +0.000 N 
ATOM      8  C   UNL     1       4.662   3.163  19.632  0.00  0.00    +0.000 C 
ATOM      9  C   UNL     1       3.212   2.658  19.520  0.00  0.00    +0.000 C 
ENDBRANCH   1   7
BRANCH   1  10
ATOM     10  C   UNL     1       6.162   4.501  16.965  0.00  0.00    +0.000 A 
ATOM     11  C   UNL     1       5.074   3.895  16.310  0.00  0.00    +0.000 A 
ATOM     12  C   UNL     1       5.108   3.655  14.934  0.00  0.00    +0.000 A 
ATOM     13  C   UNL     1       6.228   4.030  14.199  0.00  0.00    +0.000 A 
ATOM     14 BR   UNL     1       6.260   3.745  12.331  0.00  0.00    +0.000 Br
ATOM     15  C   UNL     1       7.320   4.625  14.830  0.00  0.00    +0.000 A 
ATOM     16  C   UNL     1       7.287   4.860  16.210  0.00  0.00    +0.000 A 
ENDBRANCH   1  10
TORSDOF 2
ENDMDL
MODEL 5
REMARK VINA RESULT:      -5.7      1.240      1.585
REMARK  Name = 
REMARK  3 active torsions:
REMARK  status: ('A' for Active; 'I' for Inactive)
REMARK    1  A    between atoms: C_1  and  N_2
REMARK    2  A    between atoms: N_5  and  C_6
REMARK    3  A    between atoms: C_6  and  C_8
REMARK                            x       y       z     vdW  Elec       q    Type
REMARK                         _______ _______ _______ _____ _____    ______ ____
ROOT
ATOM      1  C   UNL     1       4.117   4.575  18.748  0.00  0.00    +0.000 C 
ATOM      2  S   UNL     1       3.801   3.288  19.788  0.00  0.00    +0.000 S 
ENDROOT
BRANCH   1   7
ATOM      3  C   UNL     1       7.309   5.006  14.159  0.00  0.00    +0.000 C 
ATOM      4  N   UNL     1       6.740   4.395  15.358  0.00  0.00    +0.000 NA
ATOM      5  C   UNL     1       5.280   4.233  15.218  0.00  0.00    +0.000 C 
ATOM      6  C   UNL     1       4.632   3.637  16.485  0.00  0.00    +0.000 C 
ATOM      7  N   UNL     1       4.969   4.458  17.651  0.00  0.00    +0.000 N 
ATOM      8  C   UNL     1       6.413   4.640  17.835  0.00  0.00    +0.000 C 
ATOM      9  C   UNL     1       7.067   5.197  16.558  0.00  0.00    +0.000 C 
ENDBRANCH   1   7
BRANCH   1  10
ATOM     10  C   UNL     1       3.421   5.908  18.849  0.00  0.00    +0.000 A 
ATOM     11  C   UNL     1       3.509   6.804  17.767  0.00  0.00    +0.000 A 
ATOM     12  C   UNL     1       2.809   8.013  17.779  0.00  0.00    +0.000 A 
ATOM     13  C   UNL     1       2.008   8.331  18.870  0.00  0.00    +0.000 A 
ATOM     14 BR   UNL     1       1.027   9.947  18.870  0.00  0.00    +0.000 Br
ATOM     15  C   UNL     1       1.913   7.462  19.955  0.00  0.00    +0.000 A 
ATOM     16  C   UNL     1       2.619   6.252  19.945  0.00  0.00    +0.000 A 
ENDBRANCH   1  10
TORSDOF 2
ENDMDL
MODEL 6
REMARK VINA RESULT:      -5.6      1.214      1.921
REMARK  Name = 
REMARK  3 active torsions:
REMARK  status: ('A' for Active; 'I' for Inactive)
REMARK    1  A    between atoms: C_1  and  N_2
REMARK    2  A    between atoms: N_5  and  C_6
REMARK    3  A    between atoms: C_6  and  C_8
REMARK                            x       y       z     vdW  Elec       q    Type
REMARK                         _______ _______ _______ _____ _____    ______ ____
ROOT
ATOM      1  C   UNL     1       4.032   4.543  18.803  0.00  0.00    +0.000 C 
ATOM      2  S   UNL     1       3.782   3.276  19.884  0.00  0.00    +0.000 S 
ENDROOT
BRANCH   1   7
ATOM      3  C   UNL     1       7.283   5.025  14.260  0.00  0.00    +0.000 C 
ATOM      4  N   UNL     1       6.722   4.414  15.463  0.00  0.00    +0.000 NA
ATOM      5  C   UNL     1       5.273   4.181  15.302  0.00  0.00    +0.000 C 
ATOM      6  C   UNL     1       4.632   3.582  16.570  0.00  0.00    +0.000 C 
ATOM      7  N   UNL     1       4.909   4.442  17.723  0.00  0.00    +0.000 N 
ATOM      8  C   UNL     1       6.339   4.696  17.928  0.00  0.00    +0.000 C 
ATOM      9  C   UNL     1       6.989   5.256  16.649  0.00  0.00    +0.000 C 
ENDBRANCH   1   7
BRANCH   1  10
ATOM     10  C   UNL     1       3.252   5.831  18.845  0.00  0.00    +0.000 A 
ATOM     11  C   UNL     1       2.488   6.126  19.990  0.00  0.00    +0.000 A 
ATOM     12  C   UNL     1       1.820   7.347  20.111  0.00  0.00    +0.000 A 
ATOM     13  C   UNL     1       1.919   8.288  19.091  0.00  0.00    +0.000 A 
ATOM     14 BR   UNL     1       1.050   9.957  19.272  0.00  0.00    +0.000 Br
ATOM     15  C   UNL     1       2.663   8.012  17.946  0.00  0.00    +0.000 A 
ATOM     16  C   UNL     1       3.328   6.786  17.822  0.00  0.00    +0.000 A 
ENDBRANCH   1  10
TORSDOF 2
ENDMDL
MODEL 7
REMARK VINA RESULT:      -5.6      3.884      6.077
REMARK  Name = 
REMARK  3 active torsions:
REMARK  status: ('A' for Active; 'I' for Inactive)
REMARK    1  A    between atoms: C_1  and  N_2
REMARK    2  A    between atoms: N_5  and  C_6
REMARK    3  A    between atoms: C_6  and  C_8
REMARK                            x       y       z     vdW  Elec       q    Type
REMARK                         _______ _______ _______ _____ _____    ______ ____
ROOT
ATOM      1  C   UNL     1       5.946   4.793  18.442  0.00  0.00    +0.000 C 
ATOM      2  S   UNL     1       7.126   5.625  19.309  0.00  0.00    +0.000 S 
ENDROOT
BRANCH   1   7
ATOM      3  C   UNL     1       1.680   3.094  21.659  0.00  0.00    +0.000 C 
ATOM      4  N   UNL     1       2.414   3.385  20.430  0.00  0.00    +0.000 NA
ATOM      5  C   UNL     1       3.637   2.563  20.345  0.00  0.00    +0.000 C 
ATOM      6  C   UNL     1       4.469   2.877  19.085  0.00  0.00    +0.000 C 
ATOM      7  N   UNL     1       4.783   4.307  19.038  0.00  0.00    +0.000 N 
ATOM      8  C   UNL     1       3.596   5.165  19.111  0.00  0.00    +0.000 C 
ATOM      9  C   UNL     1       2.744   4.825  20.348  0.00  0.00    +0.000 C 
ENDBRANCH   1   7
BRANCH   1  10
ATOM     10  C   UNL     1       5.994   4.610  16.947  0.00  0.00    +0.000 A 
ATOM     11  C   UNL     1       7.175   4.946  16.259  0.00  0.00    +0.000 A 
ATOM     12  C   UNL     1       7.298   4.710  14.887  0.00  0.00    +0.000 A 
ATOM     13  C   UNL     1       6.242   4.127  14.194  0.00  0.00    +0.000 A 
ATOM     14 BR   UNL     1       6.421   3.769  12.347  0.00  0.00    +0.000 Br
ATOM     15  C   UNL     1       5.061   3.794  14.855  0.00  0.00    +0.000 A 
ATOM     16  C   UNL     1       4.936   4.036  16.229  0.00  0.00    +0.000 A 
ENDBRANCH   1  10
TORSDOF 2
ENDMDL
MODEL 8
REMARK VINA RESULT:      -5.6      2.472      3.602
REMARK  Name = 
REMARK  3 active torsions:
REMARK  status: ('A' for Active; 'I' for Inactive)
REMARK    1  A    between atoms: C_1  and  N_2
REMARK    2  A    between atoms: N_5  and  C_6
REMARK    3  A    between atoms: C_6  and  C_8
REMARK                            x       y       z     vdW  Elec       q    Type
REMARK                         _______ _______ _______ _____ _____    ______ ____
ROOT
ATOM      1  C   UNL     1       3.168   6.562  18.239  0.00  0.00    +0.000 C 
ATOM      2  S   UNL     1       4.418   6.643  17.113  0.00  0.00    +0.000 S 
ENDROOT
BRANCH   1   7
ATOM      3  C   UNL     1       1.398   2.413  21.569  0.00  0.00    +0.000 C 
ATOM      4  N   UNL     1       2.069   3.044  20.435  0.00  0.00    +0.000 NA
ATOM      5  C   UNL     1       3.143   3.945  20.899  0.00  0.00    +0.000 C 
ATOM      6  C   UNL     1       3.844   4.670  19.732  0.00  0.00    +0.000 C 
ATOM      7  N   UNL     1       2.855   5.390  18.926  0.00  0.00    +0.000 N 
ATOM      8  C   UNL     1       1.771   4.532  18.435  0.00  0.00    +0.000 C 
ATOM      9  C   UNL     1       1.097   3.777  19.595  0.00  0.00    +0.000 C 
ENDBRANCH   1   7
BRANCH   1  10
ATOM     10  C   UNL     1       2.372   7.764  18.676  0.00  0.00    +0.000 A 
ATOM     11  C   UNL     1       2.055   8.753  17.726  0.00  0.00    +0.000 A 
ATOM     12  C   UNL     1       1.245   9.839  18.063  0.00  0.00    +0.000 A 
ATOM     13  C   UNL     1       0.736   9.941  19.354  0.00  0.00    +0.000 A 
ATOM     14 BR   UNL     1      -0.395  11.388  19.802  0.00  0.00    +0.000 Br
ATOM     15  C   UNL     1       1.044   8.977  20.313  0.00  0.00    +0.000 A 
ATOM     16  C   UNL     1       1.861   7.891  19.975  0.00  0.00    +0.000 A 
ENDBRANCH   1  10
TORSDOF 2
ENDMDL
MODEL 9
REMARK VINA RESULT:      -5.5      2.498      3.772
REMARK  Name = 
REMARK  3 active torsions:
REMARK  status: ('A' for Active; 'I' for Inactive)
REMARK    1  A    between atoms: C_1  and  N_2
REMARK    2  A    between atoms: N_5  and  C_6
REMARK    3  A    between atoms: C_6  and  C_8
REMARK                            x       y       z     vdW  Elec       q    Type
REMARK                         _______ _______ _______ _____ _____    ______ ____
ROOT
ATOM      1  C   UNL     1       3.151   6.656  18.223  0.00  0.00    +0.000 C 
ATOM      2  S   UNL     1       4.452   6.791  17.163  0.00  0.00    +0.000 S 
ENDROOT
BRANCH   1   7
ATOM      3  C   UNL     1       1.410   2.442  21.485  0.00  0.00    +0.000 C 
ATOM      4  N   UNL     1       2.105   3.098  20.380  0.00  0.00    +0.000 NA
ATOM      5  C   UNL     1       3.117   4.045  20.889  0.00  0.00    +0.000 C 
ATOM      6  C   UNL     1       3.839   4.798  19.753  0.00  0.00    +0.000 C 
ATOM      7  N   UNL     1       2.857   5.473  18.900  0.00  0.00    +0.000 N 
ATOM      8  C   UNL     1       1.834   4.569  18.364  0.00  0.00    +0.000 C 
ATOM      9  C   UNL     1       1.141   3.787  19.495  0.00  0.00    +0.000 C 
ENDBRANCH   1   7
BRANCH   1  10
ATOM     10  C   UNL     1       2.278   7.821  18.612  0.00  0.00    +0.000 A 
ATOM     11  C   UNL     1       1.816   7.912  19.938  0.00  0.00    +0.000 A 
ATOM     12  C   UNL     1       1.079   9.019  20.367  0.00  0.00    +0.000 A 
ATOM     13  C   UNL     1       0.806  10.049  19.474  0.00  0.00    +0.000 A 
ATOM     14 BR   UNL     1      -0.155  11.567  20.062  0.00  0.00    +0.000 Br
ATOM     15  C   UNL     1       1.248   9.976  18.154  0.00  0.00    +0.000 A 
ATOM     16  C   UNL     1       1.982   8.863  17.723  0.00  0.00    +0.000 A 
ENDBRANCH   1  10
TORSDOF 2
ENDMDL
