MODEL 1
REMARK VINA RESULT:      -8.0      0.000      0.000
REMARK  Name = 
REMARK  7 active torsions:
REMARK  status: ('A' for Active; 'I' for Inactive)
REMARK    1  A    between atoms: C_1  and  O_2
REMARK    2  A    between atoms: O_2  and  C_3
REMARK    3  A    between atoms: C_10  and  C_12
REMARK    4  A    between atoms: C_12  and  C_14
REMARK    5  A    between atoms: C_14  and  C_15
REMARK    6  A    between atoms: C_15  and  C_17
REMARK    7  A    between atoms: C_20  and  N_21
REMARK                            x       y       z     vdW  Elec       q    Type
REMARK                         _______ _______ _______ _____ _____    ______ ____
ROOT
ATOM      1  C   UNL     1       1.469  10.380  18.664  0.00  0.00    +0.000 A 
ATOM      2  C   UNL     1       2.170   9.682  17.684  0.00  0.00    +0.000 A 
ATOM      3  C   UNL     1       2.488   8.334  17.863  0.00  0.00    +0.000 A 
ATOM      4  C   UNL     1       2.109   7.669  19.051  0.00  0.00    +0.000 A 
ATOM      5  N   UNL     1       2.354   6.349  19.335  0.00  0.00    +0.000 NA
ATOM      6  C   UNL     1       1.878   6.063  20.514  0.00  0.00    +0.000 A 
ATOM      7  N   UNL     1       1.894   4.846  21.135  0.00  0.00    +0.000 N 
ATOM      8  C   UNL     1       2.163   3.669  20.476  0.00  0.00    +0.000 C 
ATOM      9  O   UNL     1       2.170   2.570  21.020  0.00  0.00    +0.000 OA
ATOM     10  S   UNL     1       1.138   7.331  21.374  0.00  0.00    +0.000 S 
ATOM     11  C   UNL     1       1.416   8.384  20.030  0.00  0.00    +0.000 A 
ATOM     12  C   UNL     1       1.075   9.736  19.848  0.00  0.00    +0.000 A 
ATOM     13  H   UNL     1       1.704   4.782  22.121  0.00  0.00    +0.000 HD
ENDROOT
BRANCH   1  15
ATOM     14  C   UNL     1       2.185  12.647  18.556  0.00  0.00    +0.000 C 
ATOM     15  O   UNL     1       1.118  11.703  18.589  0.00  0.00    +0.000 OA
ENDBRANCH   1  15
BRANCH   8  16
ATOM     16  C   UNL     1       2.411   3.730  18.978  0.00  0.00    +0.000 C 
ATOM     17  O   UNL     1       1.543   4.226  18.261  0.00  0.00    +0.000 OA
BRANCH  16  18
ATOM     18  C   UNL     1       3.716   3.201  18.448  0.00  0.00    +0.000 C 
BRANCH  18  19
ATOM     19  C   UNL     1       4.880   4.164  18.411  0.00  0.00    +0.000 C 
ATOM     20  O   UNL     1       5.261   4.831  19.368  0.00  0.00    +0.000 OA
BRANCH  19  21
ATOM     21  C   UNL     1       5.591   4.385  17.127  0.00  0.00    +0.000 A 
ATOM     22  C   UNL     1       4.836   4.310  15.946  0.00  0.00    +0.000 A 
ATOM     23  C   UNL     1       5.444   4.496  14.704  0.00  0.00    +0.000 A 
ATOM     24  C   UNL     1       6.815   4.775  14.649  0.00  0.00    +0.000 A 
ATOM     25  C   UNL     1       7.571   4.869  15.828  0.00  0.00    +0.000 A 
ATOM     26  C   UNL     1       6.958   4.673  17.069  0.00  0.00    +0.000 A 
BRANCH  24  27
ATOM     27  N   UNL     1       7.463   4.969  13.349  0.00  0.00    +0.000 N 
ATOM     28  O   UNL     1       8.364   5.815  13.270  0.00  0.00    +0.000 OA
ATOM     29  O   UNL     1       7.061   4.278  12.400  0.00  0.00    +0.000 OA
ENDBRANCH  24  27
ENDBRANCH  19  21
ENDBRANCH  18  19
ENDBRANCH  16  18
ENDBRANCH   8  16
TORSDOF 6
ENDMDL
MODEL 2
REMARK VINA RESULT:      -7.6      4.049      6.175
REMARK  Name = 
REMARK  7 active torsions:
REMARK  status: ('A' for Active; 'I' for Inactive)
REMARK    1  A    between atoms: C_1  and  O_2
REMARK    2  A    between atoms: O_2  and  C_3
REMARK    3  A    between atoms: C_10  and  C_12
REMARK    4  A    between atoms: C_12  and  C_14
REMARK    5  A    between atoms: C_14  and  C_15
REMARK    6  A    between atoms: C_15  and  C_17
REMARK    7  A    between atoms: C_20  and  N_21
REMARK                            x       y       z     vdW  Elec       q    Type
REMARK                         _______ _______ _______ _____ _____    ______ ____
ROOT
ATOM      1  C   UNL     1      -2.925  10.866  16.186  0.00  0.00    +0.000 A 
ATOM      2  C   UNL     1      -1.961   9.861  16.185  0.00  0.00    +0.000 A 
ATOM      3  C   UNL     1      -1.233   9.573  17.342  0.00  0.00    +0.000 A 
ATOM      4  C   UNL     1      -1.464  10.312  18.525  0.00  0.00    +0.000 A 
ATOM      5  N   UNL     1      -0.823  10.113  19.722  0.00  0.00    +0.000 NA
ATOM      6  C   UNL     1      -1.268  10.968  20.599  0.00  0.00    +0.000 A 
ATOM      7  N   UNL     1      -0.902  11.066  21.912  0.00  0.00    +0.000 N 
ATOM      8  C   UNL     1      -0.213  10.078  22.576  0.00  0.00    +0.000 C 
ATOM      9  O   UNL     1       0.112  10.150  23.756  0.00  0.00    +0.000 OA
ATOM     10  S   UNL     1      -2.446  12.074  20.067  0.00  0.00    +0.000 S 
ATOM     11  C   UNL     1      -2.426  11.323  18.509  0.00  0.00    +0.000 A 
ATOM     12  C   UNL     1      -3.176  11.606  17.353  0.00  0.00    +0.000 A 
ATOM     13  H   UNL     1      -1.136  11.891  22.439  0.00  0.00    +0.000 HD
ENDROOT
BRANCH   1  15
ATOM     14  C   UNL     1      -3.726  10.315  14.014  0.00  0.00    +0.000 C 
ATOM     15  O   UNL     1      -3.682  11.231  15.104  0.00  0.00    +0.000 OA
ENDBRANCH   1  15
BRANCH   8  16
ATOM     16  C   UNL     1       0.115   8.803  21.818  0.00  0.00    +0.000 C 
ATOM     17  O   UNL     1      -0.810   8.061  21.493  0.00  0.00    +0.000 OA
BRANCH  16  18
ATOM     18  C   UNL     1       1.554   8.523  21.481  0.00  0.00    +0.000 C 
BRANCH  18  19
ATOM     19  C   UNL     1       1.834   7.917  20.125  0.00  0.00    +0.000 C 
ATOM     20  O   UNL     1       1.664   8.495  19.056  0.00  0.00    +0.000 OA
BRANCH  19  21
ATOM     21  C   UNL     1       2.288   6.505  20.048  0.00  0.00    +0.000 A 
ATOM     22  C   UNL     1       3.469   6.241  19.335  0.00  0.00    +0.000 A 
ATOM     23  C   UNL     1       3.946   4.936  19.213  0.00  0.00    +0.000 A 
ATOM     24  C   UNL     1       3.241   3.891  19.825  0.00  0.00    +0.000 A 
ATOM     25  C   UNL     1       2.070   4.152  20.553  0.00  0.00    +0.000 A 
ATOM     26  C   UNL     1       1.593   5.462  20.665  0.00  0.00    +0.000 A 
BRANCH  24  27
ATOM     27  N   UNL     1       3.732   2.516  19.701  0.00  0.00    +0.000 N 
ATOM     28  O   UNL     1       2.958   1.662  19.250  0.00  0.00    +0.000 OA
ATOM     29  O   UNL     1       4.896   2.289  20.066  0.00  0.00    +0.000 OA
ENDBRANCH  24  27
ENDBRANCH  19  21
ENDBRANCH  18  19
ENDBRANCH  16  18
ENDBRANCH   8  16
TORSDOF 6
ENDMDL
MODEL 3
REMARK VINA RESULT:      -7.6      1.003      1.076
REMARK  Name = 
REMARK  7 active torsions:
REMARK  status: ('A' for Active; 'I' for Inactive)
REMARK    1  A    between atoms: C_1  and  O_2
REMARK    2  A    between atoms: O_2  and  C_3
REMARK    3  A    between atoms: C_10  and  C_12
REMARK    4  A    between atoms: C_12  and  C_14
REMARK    5  A    between atoms: C_14  and  C_15
REMARK    6  A    between atoms: C_15  and  C_17
REMARK    7  A    between atoms: C_20  and  N_21
REMARK                            x       y       z     vdW  Elec       q    Type
REMARK                         _______ _______ _______ _____ _____    ______ ____
ROOT
ATOM      1  C   UNL     1       0.649  11.193  19.004  0.00  0.00    +0.000 A 
ATOM      2  C   UNL     1       1.268  10.574  17.921  0.00  0.00    +0.000 A 
ATOM      3  C   UNL     1       1.757   9.270  18.032  0.00  0.00    +0.000 A 
ATOM      4  C   UNL     1       1.636   8.571  19.254  0.00  0.00    +0.000 A 
ATOM      5  N   UNL     1       2.066   7.287  19.480  0.00  0.00    +0.000 NA
ATOM      6  C   UNL     1       1.807   6.953  20.712  0.00  0.00    +0.000 A 
ATOM      7  N   UNL     1       2.050   5.747  21.307  0.00  0.00    +0.000 N 
ATOM      8  C   UNL     1       2.346   4.606  20.599  0.00  0.00    +0.000 C 
ATOM      9  O   UNL     1       2.557   3.517  21.121  0.00  0.00    +0.000 OA
ATOM     10  S   UNL     1       1.068   8.133  21.690  0.00  0.00    +0.000 S 
ATOM     11  C   UNL     1       1.023   9.207  20.334  0.00  0.00    +0.000 A 
ATOM     12  C   UNL     1       0.510  10.512  20.224  0.00  0.00    +0.000 A 
ATOM     13  H   UNL     1       2.018   5.666  22.310  0.00  0.00    +0.000 HD
ENDROOT
BRANCH   1  15
ATOM     14  C   UNL     1      -0.895  12.743  18.068  0.00  0.00    +0.000 C 
ATOM     15  O   UNL     1       0.147  12.467  19.000  0.00  0.00    +0.000 OA
ENDBRANCH   1  15
BRANCH   8  16
ATOM     16  C   UNL     1       2.358   4.689  19.082  0.00  0.00    +0.000 C 
ATOM     17  O   UNL     1       1.381   4.269  18.464  0.00  0.00    +0.000 OA
BRANCH  16  18
ATOM     18  C   UNL     1       3.556   5.304  18.410  0.00  0.00    +0.000 C 
BRANCH  18  19
ATOM     19  C   UNL     1       4.742   4.401  18.164  0.00  0.00    +0.000 C 
ATOM     20  O   UNL     1       5.150   3.557  18.956  0.00  0.00    +0.000 OA
BRANCH  19  21
ATOM     21  C   UNL     1       5.525   4.566  16.913  0.00  0.00    +0.000 A 
ATOM     22  C   UNL     1       4.815   4.591  15.702  0.00  0.00    +0.000 A 
ATOM     23  C   UNL     1       5.490   4.732  14.489  0.00  0.00    +0.000 A 
ATOM     24  C   UNL     1       6.884   4.865  14.493  0.00  0.00    +0.000 A 
ATOM     25  C   UNL     1       7.596   4.858  15.703  0.00  0.00    +0.000 A 
ATOM     26  C   UNL     1       6.916   4.709  16.915  0.00  0.00    +0.000 A 
BRANCH  24  27
ATOM     27  N   UNL     1       7.602   5.010  13.225  0.00  0.00    +0.000 N 
ATOM     28  O   UNL     1       8.568   5.784  13.189  0.00  0.00    +0.000 OA
ATOM     29  O   UNL     1       7.189   4.354  12.255  0.00  0.00    +0.000 OA
ENDBRANCH  24  27
ENDBRANCH  19  21
ENDBRANCH  18  19
ENDBRANCH  16  18
ENDBRANCH   8  16
TORSDOF 6
ENDMDL
MODEL 4
REMARK VINA RESULT:      -7.6      3.968      6.167
REMARK  Name = 
REMARK  7 active torsions:
REMARK  status: ('A' for Active; 'I' for Inactive)
REMARK    1  A    between atoms: C_1  and  O_2
REMARK    2  A    between atoms: O_2  and  C_3
REMARK    3  A    between atoms: C_10  and  C_12
REMARK    4  A    between atoms: C_12  and  C_14
REMARK    5  A    between atoms: C_14  and  C_15
REMARK    6  A    between atoms: C_15  and  C_17
REMARK    7  A    between atoms: C_20  and  N_21
REMARK                            x       y       z     vdW  Elec       q    Type
REMARK                         _______ _______ _______ _____ _____    ______ ____
ROOT
ATOM      1  C   UNL     1      -2.926  10.839  16.177  0.00  0.00    +0.000 A 
ATOM      2  C   UNL     1      -2.004   9.795  16.185  0.00  0.00    +0.000 A 
ATOM      3  C   UNL     1      -1.272   9.501  17.337  0.00  0.00    +0.000 A 
ATOM      4  C   UNL     1      -1.455  10.273  18.507  0.00  0.00    +0.000 A 
ATOM      5  N   UNL     1      -0.805  10.073  19.699  0.00  0.00    +0.000 NA
ATOM      6  C   UNL     1      -1.201  10.964  20.564  0.00  0.00    +0.000 A 
ATOM      7  N   UNL     1      -0.812  11.075  21.869  0.00  0.00    +0.000 N 
ATOM      8  C   UNL     1      -0.154  10.073  22.545  0.00  0.00    +0.000 C 
ATOM      9  O   UNL     1       0.190  10.156  23.718  0.00  0.00    +0.000 OA
ATOM     10  S   UNL     1      -2.340  12.107  20.024  0.00  0.00    +0.000 S 
ATOM     11  C   UNL     1      -2.374  11.323  18.483  0.00  0.00    +0.000 A 
ATOM     12  C   UNL     1      -3.129  11.612  17.332  0.00  0.00    +0.000 A 
ATOM     13  H   UNL     1      -1.004  11.919  22.381  0.00  0.00    +0.000 HD
ENDROOT
BRANCH   1  15
ATOM     14  C   UNL     1      -3.724  10.305  14.000  0.00  0.00    +0.000 C 
ATOM     15  O   UNL     1      -3.683  11.212  15.098  0.00  0.00    +0.000 OA
ENDBRANCH   1  15
BRANCH   8  16
ATOM     16  C   UNL     1       0.110   8.770  21.810  0.00  0.00    +0.000 C 
ATOM     17  O   UNL     1      -0.850   8.061  21.510  0.00  0.00    +0.000 OA
BRANCH  16  18
ATOM     18  C   UNL     1       1.532   8.421  21.462  0.00  0.00    +0.000 C 
BRANCH  18  19
ATOM     19  C   UNL     1       1.817   8.066  20.021  0.00  0.00    +0.000 C 
ATOM     20  O   UNL     1       1.871   8.878  19.103  0.00  0.00    +0.000 OA
BRANCH  19  21
ATOM     21  C   UNL     1       1.986   6.639  19.651  0.00  0.00    +0.000 A 
ATOM     22  C   UNL     1       1.664   5.675  20.620  0.00  0.00    +0.000 A 
ATOM     23  C   UNL     1       1.810   4.315  20.343  0.00  0.00    +0.000 A 
ATOM     24  C   UNL     1       2.268   3.921  19.079  0.00  0.00    +0.000 A 
ATOM     25  C   UNL     1       2.575   4.880  18.101  0.00  0.00    +0.000 A 
ATOM     26  C   UNL     1       2.434   6.241  18.388  0.00  0.00    +0.000 A 
BRANCH  24  27
ATOM     27  N   UNL     1       2.428   2.496  18.779  0.00  0.00    +0.000 N 
ATOM     28  O   UNL     1       1.714   1.690  19.389  0.00  0.00    +0.000 OA
ATOM     29  O   UNL     1       3.282   2.181  17.935  0.00  0.00    +0.000 OA
ENDBRANCH  24  27
ENDBRANCH  19  21
ENDBRANCH  18  19
ENDBRANCH  16  18
ENDBRANCH   8  16
TORSDOF 6
ENDMDL
MODEL 5
REMARK VINA RESULT:      -7.6      5.099      8.299
REMARK  Name = 
REMARK  7 active torsions:
REMARK  status: ('A' for Active; 'I' for Inactive)
REMARK    1  A    between atoms: C_1  and  O_2
REMARK    2  A    between atoms: O_2  and  C_3
REMARK    3  A    between atoms: C_10  and  C_12
REMARK    4  A    between atoms: C_12  and  C_14
REMARK    5  A    between atoms: C_14  and  C_15
REMARK    6  A    between atoms: C_15  and  C_17
REMARK    7  A    between atoms: C_20  and  N_21
REMARK                            x       y       z     vdW  Elec       q    Type
REMARK                         _______ _______ _______ _____ _____    ______ ____
ROOT
ATOM      1  C   UNL     1      -3.643  11.076  16.419  0.00  0.00    +0.000 A 
ATOM      2  C   UNL     1      -2.294  11.050  16.764  0.00  0.00    +0.000 A 
ATOM      3  C   UNL     1      -1.876  11.463  18.032  0.00  0.00    +0.000 A 
ATOM      4  C   UNL     1      -2.824  11.922  18.974  0.00  0.00    +0.000 A 
ATOM      5  N   UNL     1      -2.537  12.340  20.249  0.00  0.00    +0.000 NA
ATOM      6  C   UNL     1      -3.637  12.703  20.845  0.00  0.00    +0.000 A 
ATOM      7  N   UNL     1      -3.770  13.145  22.131  0.00  0.00    +0.000 N 
ATOM      8  C   UNL     1      -2.788  12.995  23.083  0.00  0.00    +0.000 C 
ATOM      9  O   UNL     1      -2.900  13.378  24.242  0.00  0.00    +0.000 OA
ATOM     10  S   UNL     1      -5.073  12.603  19.937  0.00  0.00    +0.000 S 
ATOM     11  C   UNL     1      -4.172  11.953  18.612  0.00  0.00    +0.000 A 
ATOM     12  C   UNL     1      -4.602  11.521  17.344  0.00  0.00    +0.000 A 
ATOM     13  H   UNL     1      -4.617  13.606  22.420  0.00  0.00    +0.000 HD
ENDROOT
BRANCH   1  15
ATOM     14  C   UNL     1      -3.243  10.101  14.286  0.00  0.00    +0.000 C 
ATOM     15  O   UNL     1      -4.151  10.704  15.203  0.00  0.00    +0.000 OA
ENDBRANCH   1  15
BRANCH   8  16
ATOM     16  C   UNL     1      -1.516  12.265  22.687  0.00  0.00    +0.000 C 
ATOM     17  O   UNL     1      -0.517  12.931  22.419  0.00  0.00    +0.000 OA
BRANCH  16  18
ATOM     18  C   UNL     1      -1.533  10.760  22.666  0.00  0.00    +0.000 C 
BRANCH  18  19
ATOM     19  C   UNL     1      -0.199  10.059  22.771  0.00  0.00    +0.000 C 
ATOM     20  O   UNL     1       0.446   9.941  23.809  0.00  0.00    +0.000 OA
BRANCH  19  21
ATOM     21  C   UNL     1       0.430   9.520  21.539  0.00  0.00    +0.000 A 
ATOM     22  C   UNL     1       1.092   8.286  21.634  0.00  0.00    +0.000 A 
ATOM     23  C   UNL     1       1.714   7.728  20.517  0.00  0.00    +0.000 A 
ATOM     24  C   UNL     1       1.656   8.406  19.292  0.00  0.00    +0.000 A 
ATOM     25  C   UNL     1       0.980   9.632  19.188  0.00  0.00    +0.000 A 
ATOM     26  C   UNL     1       0.366  10.190  20.313  0.00  0.00    +0.000 A 
BRANCH  24  27
ATOM     27  N   UNL     1       2.309   7.830  18.114  0.00  0.00    +0.000 N 
ATOM     28  O   UNL     1       2.430   6.599  18.061  0.00  0.00    +0.000 OA
ATOM     29  O   UNL     1       2.713   8.615  17.242  0.00  0.00    +0.000 OA
ENDBRANCH  24  27
ENDBRANCH  19  21
ENDBRANCH  18  19
ENDBRANCH  16  18
ENDBRANCH   8  16
TORSDOF 6
ENDMDL
MODEL 6
REMARK VINA RESULT:      -7.5      3.770      4.810
REMARK  Name = 
REMARK  7 active torsions:
REMARK  status: ('A' for Active; 'I' for Inactive)
REMARK    1  A    between atoms: C_1  and  O_2
REMARK    2  A    between atoms: O_2  and  C_3
REMARK    3  A    between atoms: C_10  and  C_12
REMARK    4  A    between atoms: C_12  and  C_14
REMARK    5  A    between atoms: C_14  and  C_15
REMARK    6  A    between atoms: C_15  and  C_17
REMARK    7  A    between atoms: C_20  and  N_21
REMARK                            x       y       z     vdW  Elec       q    Type
REMARK                         _______ _______ _______ _____ _____    ______ ____
ROOT
ATOM      1  C   UNL     1      -3.687  11.351  17.198  0.00  0.00    +0.000 A 
ATOM      2  C   UNL     1      -3.026  10.199  16.780  0.00  0.00    +0.000 A 
ATOM      3  C   UNL     1      -1.955   9.687  17.517  0.00  0.00    +0.000 A 
ATOM      4  C   UNL     1      -1.527  10.344  18.692  0.00  0.00    +0.000 A 
ATOM      5  N   UNL     1      -0.500   9.931  19.503  0.00  0.00    +0.000 NA
ATOM      6  C   UNL     1      -0.366  10.767  20.494  0.00  0.00    +0.000 A 
ATOM      7  N   UNL     1       0.522  10.682  21.529  0.00  0.00    +0.000 N 
ATOM      8  C   UNL     1       1.218   9.534  21.829  0.00  0.00    +0.000 C 
ATOM      9  O   UNL     1       2.010   9.442  22.761  0.00  0.00    +0.000 OA
ATOM     10  S   UNL     1      -1.419  12.103  20.521  0.00  0.00    +0.000 S 
ATOM     11  C   UNL     1      -2.193  11.503  19.095  0.00  0.00    +0.000 A 
ATOM     12  C   UNL     1      -3.284  12.014  18.369  0.00  0.00    +0.000 A 
ATOM     13  H   UNL     1       0.692  11.483  22.113  0.00  0.00    +0.000 HD
ENDROOT
BRANCH   1  15
ATOM     14  C   UNL     1      -5.837  12.362  17.343  0.00  0.00    +0.000 C 
ATOM     15  O   UNL     1      -4.738  11.937  16.543  0.00  0.00    +0.000 OA
ENDBRANCH   1  15
BRANCH   8  16
ATOM     16  C   UNL     1       0.949   8.295  20.992  0.00  0.00    +0.000 C 
ATOM     17  O   UNL     1      -0.057   7.630  21.237  0.00  0.00    +0.000 OA
BRANCH  16  18
ATOM     18  C   UNL     1       1.913   7.955  19.888  0.00  0.00    +0.000 C 
BRANCH  18  19
ATOM     19  C   UNL     1       2.366   6.516  19.794  0.00  0.00    +0.000 C 
ATOM     20  O   UNL     1       2.101   5.648  20.619  0.00  0.00    +0.000 OA
BRANCH  19  21
ATOM     21  C   UNL     1       3.246   6.112  18.669  0.00  0.00    +0.000 A 
ATOM     22  C   UNL     1       3.385   4.738  18.416  0.00  0.00    +0.000 A 
ATOM     23  C   UNL     1       4.206   4.288  17.381  0.00  0.00    +0.000 A 
ATOM     24  C   UNL     1       4.878   5.224  16.585  0.00  0.00    +0.000 A 
ATOM     25  C   UNL     1       4.728   6.599  16.824  0.00  0.00    +0.000 A 
ATOM     26  C   UNL     1       3.911   7.044  17.867  0.00  0.00    +0.000 A 
BRANCH  24  27
ATOM     27  N   UNL     1       5.744   4.762  15.498  0.00  0.00    +0.000 N 
ATOM     28  O   UNL     1       6.956   4.652  15.729  0.00  0.00    +0.000 OA
ATOM     29  O   UNL     1       5.211   4.518  14.405  0.00  0.00    +0.000 OA
ENDBRANCH  24  27
ENDBRANCH  19  21
ENDBRANCH  18  19
ENDBRANCH  16  18
ENDBRANCH   8  16
TORSDOF 6
ENDMDL
MODEL 7
REMARK VINA RESULT:      -7.4      4.818      7.980
REMARK  Name = 
REMARK  7 active torsions:
REMARK  status: ('A' for Active; 'I' for Inactive)
REMARK    1  A    between atoms: C_1  and  O_2
REMARK    2  A    between atoms: O_2  and  C_3
REMARK    3  A    between atoms: C_10  and  C_12
REMARK    4  A    between atoms: C_12  and  C_14
REMARK    5  A    between atoms: C_14  and  C_15
REMARK    6  A    between atoms: C_15  and  C_17
REMARK    7  A    between atoms: C_20  and  N_21
REMARK                            x       y       z     vdW  Elec       q    Type
REMARK                         _______ _______ _______ _____ _____    ______ ____
ROOT
ATOM      1  C   UNL     1      -3.515  10.602  16.281  0.00  0.00    +0.000 A 
ATOM      2  C   UNL     1      -2.162  10.472  16.584  0.00  0.00    +0.000 A 
ATOM      3  C   UNL     1      -1.654  10.958  17.791  0.00  0.00    +0.000 A 
ATOM      4  C   UNL     1      -2.512  11.597  18.713  0.00  0.00    +0.000 A 
ATOM      5  N   UNL     1      -2.133  12.102  19.931  0.00  0.00    +0.000 NA
ATOM      6  C   UNL     1      -3.167  12.630  20.523  0.00  0.00    +0.000 A 
ATOM      7  N   UNL     1      -3.203  13.203  21.763  0.00  0.00    +0.000 N 
ATOM      8  C   UNL     1      -2.203  13.044  22.693  0.00  0.00    +0.000 C 
ATOM      9  O   UNL     1      -2.228  13.544  23.812  0.00  0.00    +0.000 OA
ATOM     10  S   UNL     1      -4.642  12.590  19.675  0.00  0.00    +0.000 S 
ATOM     11  C   UNL     1      -3.864  11.730  18.392  0.00  0.00    +0.000 A 
ATOM     12  C   UNL     1      -4.386  11.226  17.187  0.00  0.00    +0.000 A 
ATOM     13  H   UNL     1      -3.989  13.772  22.032  0.00  0.00    +0.000 HD
ENDROOT
BRANCH   1  15
ATOM     14  C   UNL     1      -3.282  10.117  13.962  0.00  0.00    +0.000 C 
ATOM     15  O   UNL     1      -4.106  10.170  15.123  0.00  0.00    +0.000 OA
ENDBRANCH   1  15
BRANCH   8  16
ATOM     16  C   UNL     1      -1.026  12.155  22.332  0.00  0.00    +0.000 C 
ATOM     17  O   UNL     1       0.032  12.688  22.000  0.00  0.00    +0.000 OA
BRANCH  16  18
ATOM     18  C   UNL     1      -1.203  10.663  22.420  0.00  0.00    +0.000 C 
BRANCH  18  19
ATOM     19  C   UNL     1       0.038   9.840  22.680  0.00  0.00    +0.000 C 
ATOM     20  O   UNL     1       0.592   9.742  23.770  0.00  0.00    +0.000 OA
BRANCH  19  21
ATOM     21  C   UNL     1       0.688   9.141  21.543  0.00  0.00    +0.000 A 
ATOM     22  C   UNL     1       0.786   9.834  20.326  0.00  0.00    +0.000 A 
ATOM     23  C   UNL     1       1.375   9.232  19.213  0.00  0.00    +0.000 A 
ATOM     24  C   UNL     1       1.884   7.933  19.329  0.00  0.00    +0.000 A 
ATOM     25  C   UNL     1       1.805   7.243  20.549  0.00  0.00    +0.000 A 
ATOM     26  C   UNL     1       1.206   7.848  21.658  0.00  0.00    +0.000 A 
BRANCH  24  27
ATOM     27  N   UNL     1       2.502   7.291  18.166  0.00  0.00    +0.000 N 
ATOM     28  O   UNL     1       3.241   7.977  17.448  0.00  0.00    +0.000 OA
ATOM     29  O   UNL     1       2.237   6.095  17.964  0.00  0.00    +0.000 OA
ENDBRANCH  24  27
ENDBRANCH  19  21
ENDBRANCH  18  19
ENDBRANCH  16  18
ENDBRANCH   8  16
TORSDOF 6
ENDMDL
MODEL 8
REMARK VINA RESULT:      -7.3      1.819      2.160
REMARK  Name = 
REMARK  7 active torsions:
REMARK  status: ('A' for Active; 'I' for Inactive)
REMARK    1  A    between atoms: C_1  and  O_2
REMARK    2  A    between atoms: O_2  and  C_3
REMARK    3  A    between atoms: C_10  and  C_12
REMARK    4  A    between atoms: C_12  and  C_14
REMARK    5  A    between atoms: C_14  and  C_15
REMARK    6  A    between atoms: C_15  and  C_17
REMARK    7  A    between atoms: C_20  and  N_21
REMARK                            x       y       z     vdW  Elec       q    Type
REMARK                         _______ _______ _______ _____ _____    ______ ____
ROOT
ATOM      1  C   UNL     1       2.171   9.141  17.950  0.00  0.00    +0.000 A 
ATOM      2  C   UNL     1       2.560   8.096  17.116  0.00  0.00    +0.000 A 
ATOM      3  C   UNL     1       2.597   6.783  17.592  0.00  0.00    +0.000 A 
ATOM      4  C   UNL     1       2.248   6.507  18.933  0.00  0.00    +0.000 A 
ATOM      5  N   UNL     1       2.234   5.261  19.509  0.00  0.00    +0.000 NA
ATOM      6  C   UNL     1       1.873   5.364  20.757  0.00  0.00    +0.000 A 
ATOM      7  N   UNL     1       1.707   4.346  21.653  0.00  0.00    +0.000 N 
ATOM      8  C   UNL     1       1.618   3.025  21.281  0.00  0.00    +0.000 C 
ATOM      9  O   UNL     1       1.459   2.104  22.074  0.00  0.00    +0.000 OA
ATOM     10  S   UNL     1       1.555   6.931  21.339  0.00  0.00    +0.000 S 
ATOM     11  C   UNL     1       1.869   7.565  19.761  0.00  0.00    +0.000 A 
ATOM     12  C   UNL     1       1.812   8.887  19.283  0.00  0.00    +0.000 A 
ATOM     13  H   UNL     1       1.645   4.547  22.637  0.00  0.00    +0.000 HD
ENDROOT
BRANCH   1  15
ATOM     14  C   UNL     1       1.781  11.395  18.605  0.00  0.00    +0.000 C 
ATOM     15  O   UNL     1       2.112  10.460  17.583  0.00  0.00    +0.000 OA
ENDBRANCH   1  15
BRANCH   8  16
ATOM     16  C   UNL     1       1.665   2.695  19.799  0.00  0.00    +0.000 C 
ATOM     17  O   UNL     1       0.778   3.141  19.071  0.00  0.00    +0.000 OA
BRANCH  16  18
ATOM     18  C   UNL     1       2.807   1.860  19.288  0.00  0.00    +0.000 C 
BRANCH  18  19
ATOM     19  C   UNL     1       4.204   2.363  19.572  0.00  0.00    +0.000 C 
ATOM     20  O   UNL     1       4.917   1.956  20.484  0.00  0.00    +0.000 OA
BRANCH  19  21
ATOM     21  C   UNL     1       4.753   3.468  18.747  0.00  0.00    +0.000 A 
ATOM     22  C   UNL     1       4.405   3.497  17.388  0.00  0.00    +0.000 A 
ATOM     23  C   UNL     1       4.896   4.502  16.553  0.00  0.00    +0.000 A 
ATOM     24  C   UNL     1       5.727   5.492  17.091  0.00  0.00    +0.000 A 
ATOM     25  C   UNL     1       6.063   5.477  18.453  0.00  0.00    +0.000 A 
ATOM     26  C   UNL     1       5.576   4.463  19.283  0.00  0.00    +0.000 A 
BRANCH  24  27
ATOM     27  N   UNL     1       6.250   6.550  16.222  0.00  0.00    +0.000 N 
ATOM     28  O   UNL     1       5.641   6.792  15.172  0.00  0.00    +0.000 OA
ATOM     29  O   UNL     1       7.282   7.133  16.587  0.00  0.00    +0.000 OA
ENDBRANCH  24  27
ENDBRANCH  19  21
ENDBRANCH  18  19
ENDBRANCH  16  18
ENDBRANCH   8  16
TORSDOF 6
ENDMDL
MODEL 9
REMARK VINA RESULT:      -7.3      6.522      9.774
REMARK  Name = 
REMARK  7 active torsions:
REMARK  status: ('A' for Active; 'I' for Inactive)
REMARK    1  A    between atoms: C_1  and  O_2
REMARK    2  A    between atoms: O_2  and  C_3
REMARK    3  A    between atoms: C_10  and  C_12
REMARK    4  A    between atoms: C_12  and  C_14
REMARK    5  A    between atoms: C_14  and  C_15
REMARK    6  A    between atoms: C_15  and  C_17
REMARK    7  A    between atoms: C_20  and  N_21
REMARK                            x       y       z     vdW  Elec       q    Type
REMARK                         _______ _______ _______ _____ _____    ______ ____
ROOT
ATOM      1  C   UNL     1      -2.742  10.744  16.590  0.00  0.00    +0.000 A 
ATOM      2  C   UNL     1      -1.800  11.542  17.233  0.00  0.00    +0.000 A 
ATOM      3  C   UNL     1      -2.126  12.220  18.410  0.00  0.00    +0.000 A 
ATOM      4  C   UNL     1      -3.425  12.107  18.954  0.00  0.00    +0.000 A 
ATOM      5  N   UNL     1      -3.859  12.712  20.107  0.00  0.00    +0.000 NA
ATOM      6  C   UNL     1      -5.108  12.406  20.315  0.00  0.00    +0.000 A 
ATOM      7  N   UNL     1      -5.883  12.785  21.375  0.00  0.00    +0.000 N 
ATOM      8  C   UNL     1      -5.365  13.315  22.533  0.00  0.00    +0.000 C 
ATOM      9  O   UNL     1      -6.049  13.650  23.494  0.00  0.00    +0.000 OA
ATOM     10  S   UNL     1      -5.859  11.410  19.158  0.00  0.00    +0.000 S 
ATOM     11  C   UNL     1      -4.364  11.311  18.294  0.00  0.00    +0.000 A 
ATOM     12  C   UNL     1      -4.037  10.611  17.119  0.00  0.00    +0.000 A 
ATOM     13  H   UNL     1      -6.883  12.681  21.329  0.00  0.00    +0.000 HD
ENDROOT
BRANCH   1  15
ATOM     14  C   UNL     1      -3.548  10.119  14.440  0.00  0.00    +0.000 C 
ATOM     15  O   UNL     1      -2.525  10.050  15.429  0.00  0.00    +0.000 OA
ENDBRANCH   1  15
BRANCH   8  16
ATOM     16  C   UNL     1      -3.856  13.443  22.648  0.00  0.00    +0.000 C 
ATOM     17  O   UNL     1      -3.326  14.488  22.271  0.00  0.00    +0.000 OA
BRANCH  16  18
ATOM     18  C   UNL     1      -3.084  12.295  23.239  0.00  0.00    +0.000 C 
BRANCH  18  19
ATOM     19  C   UNL     1      -1.576  12.387  23.194  0.00  0.00    +0.000 C 
ATOM     20  O   UNL     1      -0.919  13.291  23.701  0.00  0.00    +0.000 OA
BRANCH  19  21
ATOM     21  C   UNL     1      -0.815  11.361  22.438  0.00  0.00    +0.000 A 
ATOM     22  C   UNL     1      -0.670  10.096  23.027  0.00  0.00    +0.000 A 
ATOM     23  C   UNL     1       0.043   9.089  22.376  0.00  0.00    +0.000 A 
ATOM     24  C   UNL     1       0.600   9.350  21.117  0.00  0.00    +0.000 A 
ATOM     25  C   UNL     1       0.442  10.609  20.516  0.00  0.00    +0.000 A 
ATOM     26  C   UNL     1      -0.266  11.616  21.177  0.00  0.00    +0.000 A 
BRANCH  24  27
ATOM     27  N   UNL     1       1.353   8.300  20.427  0.00  0.00    +0.000 N 
ATOM     28  O   UNL     1       1.421   7.186  20.962  0.00  0.00    +0.000 OA
ATOM     29  O   UNL     1       1.890   8.596  19.348  0.00  0.00    +0.000 OA
ENDBRANCH  24  27
ENDBRANCH  19  21
ENDBRANCH  18  19
ENDBRANCH  16  18
ENDBRANCH   8  16
TORSDOF 6
ENDMDL
