MODEL 1
REMARK VINA RESULT:      -8.2      0.000      0.000
REMARK  Name = 
REMARK  8 active torsions:
REMARK  status: ('A' for Active; 'I' for Inactive)
REMARK    1  A    between atoms: C_2  and  C_3
REMARK    2  A    between atoms: C_6  and  C_7
REMARK    3  A    between atoms: C_7  and  N_8
REMARK    4  A    between atoms: C_12  and  C_13
REMARK    5  A    between atoms: C_13  and  N_14
REMARK    6  A    between atoms: N_14  and  C_15
REMARK    7  A    between atoms: N_18  and  C_19
REMARK    8  A    between atoms: C_19  and  C_20
REMARK                            x       y       z     vdW  Elec       q    Type
REMARK                         _______ _______ _______ _____ _____    ______ ____
ROOT
ATOM      1  N   UNL     1       1.512   7.531  21.465  0.00  0.00    +0.000 NA
ATOM      2  H   UNL     1       0.604   7.397  21.910  0.00  0.00    +0.000 HD
ENDROOT
BRANCH   1   3
ATOM      3  C   UNL     1       1.542   6.765  20.205  0.00  0.00    +0.000 C 
ATOM      4  C   UNL     1       2.357   7.488  19.125  0.00  0.00    +0.000 C 
ATOM      5  C   UNL     1       2.797   6.362  18.201  0.00  0.00    +0.000 C 
ATOM      6  N   UNL     1       2.966   5.247  19.098  0.00  0.00    +0.000 N 
ATOM      7  C   UNL     1       2.283   5.420  20.293  0.00  0.00    +0.000 C 
ATOM      8  O   UNL     1       2.257   4.624  21.218  0.00  0.00    +0.000 OA
BRANCH   6   9
ATOM      9  C   UNL     1       3.601   3.999  18.715  0.00  0.00    +0.000 C 
BRANCH   9  10
ATOM     10  C   UNL     1       4.883   4.207  17.944  0.00  0.00    +0.000 A 
ATOM     11  C   UNL     1       6.033   4.696  18.583  0.00  0.00    +0.000 A 
ATOM     12  C   UNL     1       7.214   4.904  17.865  0.00  0.00    +0.000 A 
ATOM     13  C   UNL     1       7.261   4.624  16.500  0.00  0.00    +0.000 A 
ATOM     14  C   UNL     1       6.128   4.131  15.858  0.00  0.00    +0.000 A 
ATOM     15 CL   UNL     1       6.192   3.775  14.175  0.00  0.00    +0.000 Cl
ATOM     16  C   UNL     1       4.944   3.925  16.569  0.00  0.00    +0.000 A 
ENDBRANCH   9  10
ENDBRANCH   6   9
ENDBRANCH   1   3
BRANCH   1  17
ATOM     17  C   UNL     1       1.681   8.961  21.221  0.00  0.00    +0.000 C 
BRANCH  17  22
ATOM     18  N   UNL     1       0.054  10.915  21.535  0.00  0.00    +0.000 N 
ATOM     19  C   UNL     1      -0.937  11.207  22.436  0.00  0.00    +0.000 A 
ATOM     20  N   UNL     1      -0.937  10.377  23.450  0.00  0.00    +0.000 NA
ATOM     21  C   UNL     1       0.054   9.477  23.169  0.00  0.00    +0.000 A 
ATOM     22  C   UNL     1       0.662   9.754  21.958  0.00  0.00    +0.000 A 
BRANCH  18  23
ATOM     23  C   UNL     1       0.278  11.656  20.304  0.00  0.00    +0.000 C 
BRANCH  23  27
ATOM     24  C   UNL     1      -2.234  10.584  16.937  0.00  0.00    +0.000 A 
ATOM     25  C   UNL     1      -2.517  11.715  17.706  0.00  0.00    +0.000 A 
ATOM     26  C   UNL     1      -1.723  12.034  18.812  0.00  0.00    +0.000 A 
ATOM     27  C   UNL     1      -0.629  11.229  19.169  0.00  0.00    +0.000 A 
ATOM     28  C   UNL     1      -0.364  10.083  18.400  0.00  0.00    +0.000 A 
ATOM     29  C   UNL     1      -1.161   9.762  17.295  0.00  0.00    +0.000 A 
BRANCH  24  31
ATOM     30  N   UNL     1      -3.654  10.057  14.837  0.00  0.00    +0.000 NA
ATOM     31  C   UNL     1      -3.020  10.285  15.781  0.00  0.00    +0.000 C 
ENDBRANCH  24  31
ENDBRANCH  23  27
ENDBRANCH  18  23
ENDBRANCH  17  22
ENDBRANCH   1  17
TORSDOF 8
ENDMDL
MODEL 2
REMARK VINA RESULT:      -7.9      2.991      8.712
REMARK  Name = 
REMARK  8 active torsions:
REMARK  status: ('A' for Active; 'I' for Inactive)
REMARK    1  A    between atoms: C_2  and  C_3
REMARK    2  A    between atoms: C_6  and  C_7
REMARK    3  A    between atoms: C_7  and  N_8
REMARK    4  A    between atoms: C_12  and  C_13
REMARK    5  A    between atoms: C_13  and  N_14
REMARK    6  A    between atoms: N_14  and  C_15
REMARK    7  A    between atoms: N_18  and  C_19
REMARK    8  A    between atoms: C_19  and  C_20
REMARK                            x       y       z     vdW  Elec       q    Type
REMARK                         _______ _______ _______ _____ _____    ______ ____
ROOT
ATOM      1  N   UNL     1       1.571   6.700  20.570  0.00  0.00    +0.000 NA
ATOM      2  H   UNL     1       1.333   6.839  21.553  0.00  0.00    +0.000 HD
ENDROOT
BRANCH   1   3
ATOM      3  C   UNL     1       2.002   7.988  19.997  0.00  0.00    +0.000 C 
ATOM      4  C   UNL     1       2.071   7.930  18.466  0.00  0.00    +0.000 C 
ATOM      5  C   UNL     1       1.903   9.383  18.048  0.00  0.00    +0.000 C 
ATOM      6  N   UNL     1       1.023   9.916  19.057  0.00  0.00    +0.000 N 
ATOM      7  C   UNL     1       1.011   9.145  20.211  0.00  0.00    +0.000 C 
ATOM      8  O   UNL     1       0.356   9.378  21.215  0.00  0.00    +0.000 OA
BRANCH   6   9
ATOM      9  C   UNL     1       0.386  11.216  18.960  0.00  0.00    +0.000 C 
BRANCH   9  10
ATOM     10  C   UNL     1      -1.043  11.134  18.475  0.00  0.00    +0.000 A 
ATOM     11  C   UNL     1      -2.081  11.746  19.193  0.00  0.00    +0.000 A 
ATOM     12  C   UNL     1      -3.404  11.655  18.753  0.00  0.00    +0.000 A 
ATOM     13  C   UNL     1      -3.706  10.952  17.587  0.00  0.00    +0.000 A 
ATOM     14  C   UNL     1      -2.682  10.346  16.863  0.00  0.00    +0.000 A 
ATOM     15 CL   UNL     1      -3.056   9.488  15.419  0.00  0.00    +0.000 Cl
ATOM     16  C   UNL     1      -1.358  10.431  17.301  0.00  0.00    +0.000 A 
ENDBRANCH   9  10
ENDBRANCH   6   9
ENDBRANCH   1   3
BRANCH   1  17
ATOM     17  C   UNL     1       2.639   5.706  20.507  0.00  0.00    +0.000 C 
BRANCH  17  22
ATOM     18  N   UNL     1       2.884   3.313  19.624  0.00  0.00    +0.000 N 
ATOM     19  C   UNL     1       2.014   2.281  19.387  0.00  0.00    +0.000 A 
ATOM     20  N   UNL     1       0.764   2.663  19.481  0.00  0.00    +0.000 NA
ATOM     21  C   UNL     1       0.824   3.979  19.850  0.00  0.00    +0.000 A 
ATOM     22  C   UNL     1       2.131   4.405  19.996  0.00  0.00    +0.000 A 
BRANCH  18  23
ATOM     23  C   UNL     1       4.332   3.177  19.608  0.00  0.00    +0.000 C 
BRANCH  23  27
ATOM     24  C   UNL     1       6.326   4.681  16.065  0.00  0.00    +0.000 A 
ATOM     25  C   UNL     1       6.870   4.894  17.334  0.00  0.00    +0.000 A 
ATOM     26  C   UNL     1       6.202   4.436  18.475  0.00  0.00    +0.000 A 
ATOM     27  C   UNL     1       4.979   3.755  18.367  0.00  0.00    +0.000 A 
ATOM     28  C   UNL     1       4.431   3.563  17.088  0.00  0.00    +0.000 A 
ATOM     29  C   UNL     1       5.098   4.025  15.947  0.00  0.00    +0.000 A 
BRANCH  24  31
ATOM     30  N   UNL     1       7.618   5.449  13.956  0.00  0.00    +0.000 NA
ATOM     31  C   UNL     1       7.033   5.110  14.898  0.00  0.00    +0.000 C 
ENDBRANCH  24  31
ENDBRANCH  23  27
ENDBRANCH  18  23
ENDBRANCH  17  22
ENDBRANCH   1  17
TORSDOF 8
ENDMDL
MODEL 3
REMARK VINA RESULT:      -7.9      3.339      5.762
REMARK  Name = 
REMARK  8 active torsions:
REMARK  status: ('A' for Active; 'I' for Inactive)
REMARK    1  A    between atoms: C_2  and  C_3
REMARK    2  A    between atoms: C_6  and  C_7
REMARK    3  A    between atoms: C_7  and  N_8
REMARK    4  A    between atoms: C_12  and  C_13
REMARK    5  A    between atoms: C_13  and  N_14
REMARK    6  A    between atoms: N_14  and  C_15
REMARK    7  A    between atoms: N_18  and  C_19
REMARK    8  A    between atoms: C_19  and  C_20
REMARK                            x       y       z     vdW  Elec       q    Type
REMARK                         _______ _______ _______ _____ _____    ______ ____
ROOT
ATOM      1  N   UNL     1       5.100   2.684  19.267  0.00  0.00    +0.000 NA
ATOM      2  H   UNL     1       4.816   2.068  18.503  0.00  0.00    +0.000 HD
ENDROOT
BRANCH   1   3
ATOM      3  C   UNL     1       5.081   4.078  18.786  0.00  0.00    +0.000 C 
ATOM      4  C   UNL     1       6.490   4.685  18.765  0.00  0.00    +0.000 C 
ATOM      5  C   UNL     1       6.385   5.786  17.721  0.00  0.00    +0.000 C 
ATOM      6  N   UNL     1       5.439   5.253  16.773  0.00  0.00    +0.000 N 
ATOM      7  C   UNL     1       4.661   4.240  17.315  0.00  0.00    +0.000 C 
ATOM      8  O   UNL     1       3.784   3.626  16.728  0.00  0.00    +0.000 OA
BRANCH   6   9
ATOM      9  C   UNL     1       5.184   5.845  15.474  0.00  0.00    +0.000 C 
BRANCH   9  10
ATOM     10  C   UNL     1       5.935   5.156  14.358  0.00  0.00    +0.000 A 
ATOM     11  C   UNL     1       7.256   5.515  14.053  0.00  0.00    +0.000 A 
ATOM     12  C   UNL     1       7.944   4.888  13.011  0.00  0.00    +0.000 A 
ATOM     13  C   UNL     1       7.319   3.893  12.261  0.00  0.00    +0.000 A 
ATOM     14  C   UNL     1       6.010   3.523  12.560  0.00  0.00    +0.000 A 
ATOM     15 CL   UNL     1       5.245   2.286  11.640  0.00  0.00    +0.000 Cl
ATOM     16  C   UNL     1       5.317   4.149  13.598  0.00  0.00    +0.000 A 
ENDBRANCH   9  10
ENDBRANCH   6   9
ENDBRANCH   1   3
BRANCH   1  17
ATOM     17  C   UNL     1       4.159   2.489  20.368  0.00  0.00    +0.000 C 
BRANCH  17  22
ATOM     18  N   UNL     1       1.888   3.665  20.223  0.00  0.00    +0.000 N 
ATOM     19  C   UNL     1       0.769   3.505  19.447  0.00  0.00    +0.000 A 
ATOM     20  N   UNL     1       0.819   2.405  18.737  0.00  0.00    +0.000 NA
ATOM     21  C   UNL     1       2.040   1.858  19.018  0.00  0.00    +0.000 A 
ATOM     22  C   UNL     1       2.754   2.643  19.905  0.00  0.00    +0.000 A 
BRANCH  18  23
ATOM     23  C   UNL     1       2.115   4.804  21.097  0.00  0.00    +0.000 C 
BRANCH  23  27
ATOM     24  C   UNL     1       1.998   8.531  18.887  0.00  0.00    +0.000 A 
ATOM     25  C   UNL     1       2.651   7.413  18.363  0.00  0.00    +0.000 A 
ATOM     26  C   UNL     1       2.715   6.225  19.098  0.00  0.00    +0.000 A 
ATOM     27  C   UNL     1       2.125   6.132  20.369  0.00  0.00    +0.000 A 
ATOM     28  C   UNL     1       1.488   7.269  20.894  0.00  0.00    +0.000 A 
ATOM     29  C   UNL     1       1.427   8.459  20.160  0.00  0.00    +0.000 A 
BRANCH  24  31
ATOM     30  N   UNL     1       1.818  10.695  17.475  0.00  0.00    +0.000 NA
ATOM     31  C   UNL     1       1.895   9.731  18.114  0.00  0.00    +0.000 C 
ENDBRANCH  24  31
ENDBRANCH  23  27
ENDBRANCH  18  23
ENDBRANCH  17  22
ENDBRANCH   1  17
TORSDOF 8
ENDMDL
MODEL 4
REMARK VINA RESULT:      -7.9      3.654      9.097
REMARK  Name = 
REMARK  8 active torsions:
REMARK  status: ('A' for Active; 'I' for Inactive)
REMARK    1  A    between atoms: C_2  and  C_3
REMARK    2  A    between atoms: C_6  and  C_7
REMARK    3  A    between atoms: C_7  and  N_8
REMARK    4  A    between atoms: C_12  and  C_13
REMARK    5  A    between atoms: C_13  and  N_14
REMARK    6  A    between atoms: N_14  and  C_15
REMARK    7  A    between atoms: N_18  and  C_19
REMARK    8  A    between atoms: C_19  and  C_20
REMARK                            x       y       z     vdW  Elec       q    Type
REMARK                         _______ _______ _______ _____ _____    ______ ____
ROOT
ATOM      1  N   UNL     1       3.546   7.345  18.537  0.00  0.00    +0.000 NA
ATOM      2  H   UNL     1       4.170   8.126  18.747  0.00  0.00    +0.000 HD
ENDROOT
BRANCH   1   3
ATOM      3  C   UNL     1       2.154   7.774  18.768  0.00  0.00    +0.000 C 
ATOM      4  C   UNL     1       1.816   7.808  20.264  0.00  0.00    +0.000 C 
ATOM      5  C   UNL     1       0.673   8.809  20.347  0.00  0.00    +0.000 C 
ATOM      6  N   UNL     1       0.985   9.751  19.301  0.00  0.00    +0.000 N 
ATOM      7  C   UNL     1       1.859   9.228  18.360  0.00  0.00    +0.000 C 
ATOM      8  O   UNL     1       2.276   9.815  17.373  0.00  0.00    +0.000 OA
BRANCH   6   9
ATOM      9  C   UNL     1       0.303  11.022  19.138  0.00  0.00    +0.000 C 
BRANCH   9  10
ATOM     10  C   UNL     1      -1.076  10.874  18.540  0.00  0.00    +0.000 A 
ATOM     11  C   UNL     1      -1.298  10.015  17.453  0.00  0.00    +0.000 A 
ATOM     12  C   UNL     1      -2.571   9.892  16.889  0.00  0.00    +0.000 A 
ATOM     13  C   UNL     1      -3.638  10.625  17.406  0.00  0.00    +0.000 A 
ATOM     14  C   UNL     1      -3.430  11.475  18.490  0.00  0.00    +0.000 A 
ATOM     15 CL   UNL     1      -4.752  12.370  19.133  0.00  0.00    +0.000 Cl
ATOM     16  C   UNL     1      -2.160  11.605  19.054  0.00  0.00    +0.000 A 
ENDBRANCH   9  10
ENDBRANCH   6   9
ENDBRANCH   1   3
BRANCH   1  17
ATOM     17  C   UNL     1       3.760   6.968  17.142  0.00  0.00    +0.000 C 
BRANCH  17  22
ATOM     18  N   UNL     1       5.461   5.131  16.593  0.00  0.00    +0.000 N 
ATOM     19  C   UNL     1       6.808   5.111  16.343  0.00  0.00    +0.000 A 
ATOM     20  N   UNL     1       7.372   6.265  16.602  0.00  0.00    +0.000 NA
ATOM     21  C   UNL     1       6.344   7.083  16.980  0.00  0.00    +0.000 A 
ATOM     22  C   UNL     1       5.129   6.422  16.940  0.00  0.00    +0.000 A 
BRANCH  18  23
ATOM     23  C   UNL     1       4.576   3.998  16.376  0.00  0.00    +0.000 C 
BRANCH  23  27
ATOM     24  C   UNL     1       2.505   2.913  20.026  0.00  0.00    +0.000 A 
ATOM     25  C   UNL     1       3.886   3.126  20.027  0.00  0.00    +0.000 A 
ATOM     26  C   UNL     1       4.551   3.441  18.838  0.00  0.00    +0.000 A 
ATOM     27  C   UNL     1       3.849   3.551  17.627  0.00  0.00    +0.000 A 
ATOM     28  C   UNL     1       2.464   3.315  17.634  0.00  0.00    +0.000 A 
ATOM     29  C   UNL     1       1.798   2.997  18.824  0.00  0.00    +0.000 A 
BRANCH  24  31
ATOM     30  N   UNL     1       1.278   2.410  22.251  0.00  0.00    +0.000 NA
ATOM     31  C   UNL     1       1.820   2.635  21.251  0.00  0.00    +0.000 C 
ENDBRANCH  24  31
ENDBRANCH  23  27
ENDBRANCH  18  23
ENDBRANCH  17  22
ENDBRANCH   1  17
TORSDOF 8
ENDMDL
MODEL 5
REMARK VINA RESULT:      -7.8      3.030      8.703
REMARK  Name = 
REMARK  8 active torsions:
REMARK  status: ('A' for Active; 'I' for Inactive)
REMARK    1  A    between atoms: C_2  and  C_3
REMARK    2  A    between atoms: C_6  and  C_7
REMARK    3  A    between atoms: C_7  and  N_8
REMARK    4  A    between atoms: C_12  and  C_13
REMARK    5  A    between atoms: C_13  and  N_14
REMARK    6  A    between atoms: N_14  and  C_15
REMARK    7  A    between atoms: N_18  and  C_19
REMARK    8  A    between atoms: C_19  and  C_20
REMARK                            x       y       z     vdW  Elec       q    Type
REMARK                         _______ _______ _______ _____ _____    ______ ____
ROOT
ATOM      1  N   UNL     1       2.074   6.028  19.433  0.00  0.00    +0.000 NA
ATOM      2  H   UNL     1       2.781   5.591  20.026  0.00  0.00    +0.000 HD
ENDROOT
BRANCH   1   3
ATOM      3  C   UNL     1       2.414   7.453  19.261  0.00  0.00    +0.000 C 
ATOM      4  C   UNL     1       2.261   7.896  17.801  0.00  0.00    +0.000 C 
ATOM      5  C   UNL     1       2.028   9.396  17.908  0.00  0.00    +0.000 C 
ATOM      6  N   UNL     1       1.300   9.528  19.145  0.00  0.00    +0.000 N 
ATOM      7  C   UNL     1       1.459   8.426  19.973  0.00  0.00    +0.000 C 
ATOM      8  O   UNL     1       0.955   8.289  21.077  0.00  0.00    +0.000 OA
BRANCH   6   9
ATOM      9  C   UNL     1       0.651  10.756  19.565  0.00  0.00    +0.000 C 
BRANCH   9  10
ATOM     10  C   UNL     1      -0.730  10.920  18.974  0.00  0.00    +0.000 A 
ATOM     11  C   UNL     1      -1.674  11.762  19.579  0.00  0.00    +0.000 A 
ATOM     12  C   UNL     1      -2.956  11.900  19.041  0.00  0.00    +0.000 A 
ATOM     13  C   UNL     1      -3.310  11.200  17.888  0.00  0.00    +0.000 A 
ATOM     14  C   UNL     1      -2.377  10.367  17.275  0.00  0.00    +0.000 A 
ATOM     15 CL   UNL     1      -2.812   9.511  15.846  0.00  0.00    +0.000 Cl
ATOM     16  C   UNL     1      -1.096  10.222  17.811  0.00  0.00    +0.000 A 
ENDBRANCH   9  10
ENDBRANCH   6   9
ENDBRANCH   1   3
BRANCH   1  17
ATOM     17  C   UNL     1       2.070   5.325  18.153  0.00  0.00    +0.000 C 
BRANCH  17  22
ATOM     18  N   UNL     1       3.272   3.115  17.669  0.00  0.00    +0.000 N 
ATOM     19  C   UNL     1       3.303   1.884  18.270  0.00  0.00    +0.000 A 
ATOM     20  N   UNL     1       2.390   1.772  19.204  0.00  0.00    +0.000 NA
ATOM     21  C   UNL     1       1.781   2.996  19.250  0.00  0.00    +0.000 A 
ATOM     22  C   UNL     1       2.338   3.874  18.338  0.00  0.00    +0.000 A 
BRANCH  18  23
ATOM     23  C   UNL     1       4.183   3.527  16.613  0.00  0.00    +0.000 C 
BRANCH  23  27
ATOM     24  C   UNL     1       6.778   6.859  17.589  0.00  0.00    +0.000 A 
ATOM     25  C   UNL     1       6.792   5.695  18.362  0.00  0.00    +0.000 A 
ATOM     26  C   UNL     1       5.927   4.639  18.061  0.00  0.00    +0.000 A 
ATOM     27  C   UNL     1       5.033   4.725  16.982  0.00  0.00    +0.000 A 
ATOM     28  C   UNL     1       5.013   5.908  16.224  0.00  0.00    +0.000 A 
ATOM     29  C   UNL     1       5.877   6.967  16.526  0.00  0.00    +0.000 A 
BRANCH  24  31
ATOM     30  N   UNL     1       8.438   8.785  18.084  0.00  0.00    +0.000 NA
ATOM     31  C   UNL     1       7.696   7.920  17.871  0.00  0.00    +0.000 C 
ENDBRANCH  24  31
ENDBRANCH  23  27
ENDBRANCH  18  23
ENDBRANCH  17  22
ENDBRANCH   1  17
TORSDOF 8
ENDMDL
MODEL 6
REMARK VINA RESULT:      -7.7      3.040      8.736
REMARK  Name = 
REMARK  8 active torsions:
REMARK  status: ('A' for Active; 'I' for Inactive)
REMARK    1  A    between atoms: C_2  and  C_3
REMARK    2  A    between atoms: C_6  and  C_7
REMARK    3  A    between atoms: C_7  and  N_8
REMARK    4  A    between atoms: C_12  and  C_13
REMARK    5  A    between atoms: C_13  and  N_14
REMARK    6  A    between atoms: N_14  and  C_15
REMARK    7  A    between atoms: N_18  and  C_19
REMARK    8  A    between atoms: C_19  and  C_20
REMARK                            x       y       z     vdW  Elec       q    Type
REMARK                         _______ _______ _______ _____ _____    ______ ____
ROOT
ATOM      1  N   UNL     1       2.718   6.681  19.960  0.00  0.00    +0.000 NA
ATOM      2  H   UNL     1       3.523   7.265  19.729  0.00  0.00    +0.000 HD
ENDROOT
BRANCH   1   3
ATOM      3  C   UNL     1       1.517   7.534  20.027  0.00  0.00    +0.000 C 
ATOM      4  C   UNL     1       1.363   8.183  21.408  0.00  0.00    +0.000 C 
ATOM      5  C   UNL     1       0.531   9.426  21.124  0.00  0.00    +0.000 C 
ATOM      6  N   UNL     1       0.959   9.814  19.804  0.00  0.00    +0.000 N 
ATOM      7  C   UNL     1       1.562   8.772  19.115  0.00  0.00    +0.000 C 
ATOM      8  O   UNL     1       2.007   8.834  17.979  0.00  0.00    +0.000 OA
BRANCH   6   9
ATOM      9  C   UNL     1       0.614  11.082  19.190  0.00  0.00    +0.000 C 
BRANCH   9  10
ATOM     10  C   UNL     1      -0.819  11.131  18.714  0.00  0.00    +0.000 A 
ATOM     11  C   UNL     1      -1.784  11.868  19.418  0.00  0.00    +0.000 A 
ATOM     12  C   UNL     1      -3.113  11.898  18.986  0.00  0.00    +0.000 A 
ATOM     13  C   UNL     1      -3.493  11.195  17.844  0.00  0.00    +0.000 A 
ATOM     14  C   UNL     1      -2.542  10.468  17.134  0.00  0.00    +0.000 A 
ATOM     15 CL   UNL     1      -3.012   9.609  15.718  0.00  0.00    +0.000 Cl
ATOM     16  C   UNL     1      -1.214  10.430  17.563  0.00  0.00    +0.000 A 
ENDBRANCH   9  10
ENDBRANCH   6   9
ENDBRANCH   1   3
BRANCH   1  17
ATOM     17  C   UNL     1       2.591   5.665  18.918  0.00  0.00    +0.000 C 
BRANCH  17  22
ATOM     18  N   UNL     1       3.993   3.523  18.807  0.00  0.00    +0.000 N 
ATOM     19  C   UNL     1       4.247   2.493  19.674  0.00  0.00    +0.000 A 
ATOM     20  N   UNL     1       3.472   2.539  20.730  0.00  0.00    +0.000 NA
ATOM     21  C   UNL     1       2.726   3.674  20.571  0.00  0.00    +0.000 A 
ATOM     22  C   UNL     1       3.058   4.339  19.404  0.00  0.00    +0.000 A 
BRANCH  18  23
ATOM     23  C   UNL     1       4.714   3.735  17.562  0.00  0.00    +0.000 C 
BRANCH  23  27
ATOM     24  C   UNL     1       7.224   7.264  17.774  0.00  0.00    +0.000 A 
ATOM     25  C   UNL     1       6.123   7.222  16.914  0.00  0.00    +0.000 A 
ATOM     26  C   UNL     1       5.340   6.067  16.826  0.00  0.00    +0.000 A 
ATOM     27  C   UNL     1       5.640   4.933  17.597  0.00  0.00    +0.000 A 
ATOM     28  C   UNL     1       6.760   4.979  18.444  0.00  0.00    +0.000 A 
ATOM     29  C   UNL     1       7.546   6.133  18.530  0.00  0.00    +0.000 A 
BRANCH  24  31
ATOM     30  N   UNL     1       8.622   9.434  17.980  0.00  0.00    +0.000 NA
ATOM     31  C   UNL     1       7.996   8.461  17.896  0.00  0.00    +0.000 C 
ENDBRANCH  24  31
ENDBRANCH  23  27
ENDBRANCH  18  23
ENDBRANCH  17  22
ENDBRANCH   1  17
TORSDOF 8
ENDMDL
MODEL 7
REMARK VINA RESULT:      -7.7      3.329      8.858
REMARK  Name = 
REMARK  8 active torsions:
REMARK  status: ('A' for Active; 'I' for Inactive)
REMARK    1  A    between atoms: C_2  and  C_3
REMARK    2  A    between atoms: C_6  and  C_7
REMARK    3  A    between atoms: C_7  and  N_8
REMARK    4  A    between atoms: C_12  and  C_13
REMARK    5  A    between atoms: C_13  and  N_14
REMARK    6  A    between atoms: N_14  and  C_15
REMARK    7  A    between atoms: N_18  and  C_19
REMARK    8  A    between atoms: C_19  and  C_20
REMARK                            x       y       z     vdW  Elec       q    Type
REMARK                         _______ _______ _______ _____ _____    ______ ____
ROOT
ATOM      1  N   UNL     1       3.633   7.241  17.378  0.00  0.00    +0.000 NA
ATOM      2  H   UNL     1       3.395   6.727  16.528  0.00  0.00    +0.000 HD
ENDROOT
BRANCH   1   3
ATOM      3  C   UNL     1       2.399   7.488  18.145  0.00  0.00    +0.000 C 
ATOM      4  C   UNL     1       2.503   6.937  19.573  0.00  0.00    +0.000 C 
ATOM      5  C   UNL     1       1.505   7.780  20.352  0.00  0.00    +0.000 C 
ATOM      6  N   UNL     1       1.573   9.061  19.696  0.00  0.00    +0.000 N 
ATOM      7  C   UNL     1       2.103   8.973  18.417  0.00  0.00    +0.000 C 
ATOM      8  O   UNL     1       2.264   9.909  17.648  0.00  0.00    +0.000 OA
BRANCH   6   9
ATOM      9  C   UNL     1       0.966  10.267  20.226  0.00  0.00    +0.000 C 
BRANCH   9  10
ATOM     10  C   UNL     1      -0.124  10.816  19.334  0.00  0.00    +0.000 A 
ATOM     11  C   UNL     1      -0.100  12.154  18.912  0.00  0.00    +0.000 A 
ATOM     12  C   UNL     1      -1.116  12.664  18.101  0.00  0.00    +0.000 A 
ATOM     13  C   UNL     1      -2.169  11.843  17.700  0.00  0.00    +0.000 A 
ATOM     14  C   UNL     1      -2.199  10.512  18.107  0.00  0.00    +0.000 A 
ATOM     15 CL   UNL     1      -3.495   9.497  17.602  0.00  0.00    +0.000 Cl
ATOM     16  C   UNL     1      -1.188   9.997  18.921  0.00  0.00    +0.000 A 
ENDBRANCH   9  10
ENDBRANCH   6   9
ENDBRANCH   1   3
BRANCH   1  17
ATOM     17  C   UNL     1       4.578   6.427  18.139  0.00  0.00    +0.000 C 
BRANCH  17  22
ATOM     18  N   UNL     1       5.531   4.795  16.408  0.00  0.00    +0.000 N 
ATOM     19  C   UNL     1       6.681   4.745  15.664  0.00  0.00    +0.000 A 
ATOM     20  N   UNL     1       7.551   5.647  16.046  0.00  0.00    +0.000 NA
ATOM     21  C   UNL     1       6.921   6.348  17.037  0.00  0.00    +0.000 A 
ATOM     22  C   UNL     1       5.641   5.875  17.257  0.00  0.00    +0.000 A 
BRANCH  18  23
ATOM     23  C   UNL     1       4.385   3.927  16.194  0.00  0.00    +0.000 C 
BRANCH  23  27
ATOM     24  C   UNL     1       2.463   2.936  19.951  0.00  0.00    +0.000 A 
ATOM     25  C   UNL     1       3.829   2.704  19.766  0.00  0.00    +0.000 A 
ATOM     26  C   UNL     1       4.433   2.994  18.539  0.00  0.00    +0.000 A 
ATOM     27  C   UNL     1       3.685   3.522  17.475  0.00  0.00    +0.000 A 
ATOM     28  C   UNL     1       2.310   3.733  17.666  0.00  0.00    +0.000 A 
ATOM     29  C   UNL     1       1.703   3.441  18.893  0.00  0.00    +0.000 A 
BRANCH  24  31
ATOM     30  N   UNL     1       1.379   2.478  22.258  0.00  0.00    +0.000 NA
ATOM     31  C   UNL     1       1.857   2.682  21.222  0.00  0.00    +0.000 C 
ENDBRANCH  24  31
ENDBRANCH  23  27
ENDBRANCH  18  23
ENDBRANCH  17  22
ENDBRANCH   1  17
TORSDOF 8
ENDMDL
MODEL 8
REMARK VINA RESULT:      -7.7      3.554      8.655
REMARK  Name = 
REMARK  8 active torsions:
REMARK  status: ('A' for Active; 'I' for Inactive)
REMARK    1  A    between atoms: C_2  and  C_3
REMARK    2  A    between atoms: C_6  and  C_7
REMARK    3  A    between atoms: C_7  and  N_8
REMARK    4  A    between atoms: C_12  and  C_13
REMARK    5  A    between atoms: C_13  and  N_14
REMARK    6  A    between atoms: N_14  and  C_15
REMARK    7  A    between atoms: N_18  and  C_19
REMARK    8  A    between atoms: C_19  and  C_20
REMARK                            x       y       z     vdW  Elec       q    Type
REMARK                         _______ _______ _______ _____ _____    ______ ____
ROOT
ATOM      1  N   UNL     1       1.786   6.269  20.577  0.00  0.00    +0.000 NA
ATOM      2  H   UNL     1       1.749   6.451  21.581  0.00  0.00    +0.000 HD
ENDROOT
BRANCH   1   3
ATOM      3  C   UNL     1       2.274   7.480  19.892  0.00  0.00    +0.000 C 
ATOM      4  C   UNL     1       2.273   7.304  18.369  0.00  0.00    +0.000 C 
ATOM      5  C   UNL     1       2.180   8.730  17.847  0.00  0.00    +0.000 C 
ATOM      6  N   UNL     1       1.379   9.394  18.845  0.00  0.00    +0.000 N 
ATOM      7  C   UNL     1       1.368   8.713  20.054  0.00  0.00    +0.000 C 
ATOM      8  O   UNL     1       0.773   9.063  21.061  0.00  0.00    +0.000 OA
BRANCH   6   9
ATOM      9  C   UNL     1       0.823  10.723  18.673  0.00  0.00    +0.000 C 
BRANCH   9  10
ATOM     10  C   UNL     1      -0.665  10.705  18.409  0.00  0.00    +0.000 A 
ATOM     11  C   UNL     1      -1.211   9.854  17.436  0.00  0.00    +0.000 A 
ATOM     12  C   UNL     1      -2.585   9.851  17.181  0.00  0.00    +0.000 A 
ATOM     13  C   UNL     1      -3.431  10.696  17.898  0.00  0.00    +0.000 A 
ATOM     14  C   UNL     1      -2.900  11.539  18.871  0.00  0.00    +0.000 A 
ATOM     15 CL   UNL     1      -3.948  12.574  19.762  0.00  0.00    +0.000 Cl
ATOM     16  C   UNL     1      -1.528  11.550  19.127  0.00  0.00    +0.000 A 
ENDBRANCH   9  10
ENDBRANCH   6   9
ENDBRANCH   1   3
BRANCH   1  17
ATOM     17  C   UNL     1       2.687   5.138  20.364  0.00  0.00    +0.000 C 
BRANCH  17  22
ATOM     18  N   UNL     1       2.567   2.911  19.103  0.00  0.00    +0.000 N 
ATOM     19  C   UNL     1       1.554   2.056  18.754  0.00  0.00    +0.000 A 
ATOM     20  N   UNL     1       0.373   2.579  18.977  0.00  0.00    +0.000 NA
ATOM     21  C   UNL     1       0.627   3.796  19.545  0.00  0.00    +0.000 A 
ATOM     22  C   UNL     1       1.986   4.017  19.683  0.00  0.00    +0.000 A 
BRANCH  18  23
ATOM     23  C   UNL     1       3.979   2.590  18.985  0.00  0.00    +0.000 C 
BRANCH  23  27
ATOM     24  C   UNL     1       6.260   6.077  17.790  0.00  0.00    +0.000 A 
ATOM     25  C   UNL     1       5.325   5.506  16.923  0.00  0.00    +0.000 A 
ATOM     26  C   UNL     1       4.619   4.360  17.303  0.00  0.00    +0.000 A 
ATOM     27  C   UNL     1       4.833   3.765  18.556  0.00  0.00    +0.000 A 
ATOM     28  C   UNL     1       5.790   4.336  19.412  0.00  0.00    +0.000 A 
ATOM     29  C   UNL     1       6.499   5.481  19.031  0.00  0.00    +0.000 A 
BRANCH  24  31
ATOM     30  N   UNL     1       7.512   8.238  17.103  0.00  0.00    +0.000 NA
ATOM     31  C   UNL     1       6.948   7.274  17.417  0.00  0.00    +0.000 C 
ENDBRANCH  24  31
ENDBRANCH  23  27
ENDBRANCH  18  23
ENDBRANCH  17  22
ENDBRANCH   1  17
TORSDOF 8
ENDMDL
MODEL 9
REMARK VINA RESULT:      -7.7      3.055      8.625
REMARK  Name = 
REMARK  8 active torsions:
REMARK  status: ('A' for Active; 'I' for Inactive)
REMARK    1  A    between atoms: C_2  and  C_3
REMARK    2  A    between atoms: C_6  and  C_7
REMARK    3  A    between atoms: C_7  and  N_8
REMARK    4  A    between atoms: C_12  and  C_13
REMARK    5  A    between atoms: C_13  and  N_14
REMARK    6  A    between atoms: N_14  and  C_15
REMARK    7  A    between atoms: N_18  and  C_19
REMARK    8  A    between atoms: C_19  and  C_20
REMARK                            x       y       z     vdW  Elec       q    Type
REMARK                         _______ _______ _______ _____ _____    ______ ____
ROOT
ATOM      1  N   UNL     1       2.741   6.273  20.411  0.00  0.00    +0.000 NA
ATOM      2  H   UNL     1       3.380   6.424  19.629  0.00  0.00    +0.000 HD
ENDROOT
BRANCH   1   3
ATOM      3  C   UNL     1       1.596   7.190  20.273  0.00  0.00    +0.000 C 
ATOM      4  C   UNL     1       1.395   8.036  21.536  0.00  0.00    +0.000 C 
ATOM      5  C   UNL     1       0.664   9.269  21.026  0.00  0.00    +0.000 C 
ATOM      6  N   UNL     1       1.201   9.443  19.699  0.00  0.00    +0.000 N 
ATOM      7  C   UNL     1       1.779   8.283  19.205  0.00  0.00    +0.000 C 
ATOM      8  O   UNL     1       2.299   8.160  18.107  0.00  0.00    +0.000 OA
BRANCH   6   9
ATOM      9  C   UNL     1       0.978  10.629  18.894  0.00  0.00    +0.000 C 
BRANCH   9  10
ATOM     10  C   UNL     1      -0.481  10.850  18.568  0.00  0.00    +0.000 A 
ATOM     11  C   UNL     1      -1.256  11.748  19.318  0.00  0.00    +0.000 A 
ATOM     12  C   UNL     1      -2.609  11.939  19.027  0.00  0.00    +0.000 A 
ATOM     13  C   UNL     1      -3.205  11.236  17.981  0.00  0.00    +0.000 A 
ATOM     14  C   UNL     1      -2.443  10.347  17.226  0.00  0.00    +0.000 A 
ATOM     15 CL   UNL     1      -3.179   9.488  15.928  0.00  0.00    +0.000 Cl
ATOM     16  C   UNL     1      -1.092  10.150  17.515  0.00  0.00    +0.000 A 
ENDBRANCH   9  10
ENDBRANCH   6   9
ENDBRANCH   1   3
BRANCH   1  17
ATOM     17  C   UNL     1       2.312   4.877  20.371  0.00  0.00    +0.000 C 
BRANCH  17  22
ATOM     18  N   UNL     1       3.595   3.834  18.414  0.00  0.00    +0.000 N 
ATOM     19  C   UNL     1       3.234   3.256  17.226  0.00  0.00    +0.000 A 
ATOM     20  N   UNL     1       1.960   3.423  16.967  0.00  0.00    +0.000 NA
ATOM     21  C   UNL     1       1.463   4.084  18.056  0.00  0.00    +0.000 A 
ATOM     22  C   UNL     1       2.446   4.315  19.001  0.00  0.00    +0.000 A 
BRANCH  18  23
ATOM     23  C   UNL     1       4.940   3.789  18.965  0.00  0.00    +0.000 C 
BRANCH  23  27
ATOM     24  C   UNL     1       7.259   7.324  18.008  0.00  0.00    +0.000 A 
ATOM     25  C   UNL     1       5.977   7.147  17.479  0.00  0.00    +0.000 A 
ATOM     26  C   UNL     1       5.250   5.987  17.765  0.00  0.00    +0.000 A 
ATOM     27  C   UNL     1       5.789   4.984  18.585  0.00  0.00    +0.000 A 
ATOM     28  C   UNL     1       7.086   5.163  19.096  0.00  0.00    +0.000 A 
ATOM     29  C   UNL     1       7.815   6.322  18.808  0.00  0.00    +0.000 A 
BRANCH  24  31
ATOM     30  N   UNL     1       8.569   9.512  17.559  0.00  0.00    +0.000 NA
ATOM     31  C   UNL     1       7.982   8.531  17.751  0.00  0.00    +0.000 C 
ENDBRANCH  24  31
ENDBRANCH  23  27
ENDBRANCH  18  23
ENDBRANCH  17  22
ENDBRANCH   1  17
TORSDOF 8
ENDMDL
