MODEL 1
REMARK VINA RESULT:      -7.4      0.000      0.000
REMARK  Name = 
REMARK  13 active torsions:
REMARK  status: ('A' for Active; 'I' for Inactive)
REMARK    1  A    between atoms: C_1  and  C_2
REMARK    2  A    between atoms: C_2  and  C_3
REMARK    3  A    between atoms: C_3  and  C_4
REMARK    4  A    between atoms: C_4  and  C_5
REMARK    5  A    between atoms: C_5  and  N_6
REMARK    6  A    between atoms: N_10  and  C_11
REMARK    7  A    between atoms: N_10  and  C_12
REMARK    8  A    between atoms: C_12  and  C_13
REMARK    9  A    between atoms: C_13  and  C_14
REMARK   10  A    between atoms: C_14  and  C_15
REMARK   11  A    between atoms: N_19  and  C_20
REMARK   12  A    between atoms: C_20  and  C_21
REMARK   13  A    between atoms: C_21  and  O_23
REMARK                            x       y       z     vdW  Elec       q    Type
REMARK                         _______ _______ _______ _____ _____    ______ ____
ROOT
ATOM      1  N   UNL     1       5.578   4.424  14.097  0.00  0.00    +0.000 N 
ATOM      2  C   UNL     1       5.587   4.397  15.489  0.00  0.00    +0.000 A 
ATOM      3  N   UNL     1       6.451   5.192  16.154  0.00  0.00    +0.000 NA
ATOM      4  C   UNL     1       6.490   5.217  17.520  0.00  0.00    +0.000 A 
ATOM      5  N   UNL     1       7.427   6.027  18.146  0.00  0.00    +0.000 N 
ATOM      6  C   UNL     1       7.830   5.775  19.519  0.00  0.00    +0.000 C 
ATOM      7  C   UNL     1       5.540   4.414  18.188  0.00  0.00    +0.000 A 
ATOM      8  N   UNL     1       5.235   4.242  19.526  0.00  0.00    +0.000 NA
ATOM      9  C   UNL     1       4.224   3.404  19.549  0.00  0.00    +0.000 A 
ATOM     10  N   UNL     1       3.877   3.001  18.288  0.00  0.00    +0.000 N 
ATOM     11  C   UNL     1       4.700   3.643  17.399  0.00  0.00    +0.000 A 
ATOM     12  N   UNL     1       4.692   3.563  16.059  0.00  0.00    +0.000 NA
ATOM     13  H   UNL     1       5.123   3.580  13.775  0.00  0.00    +0.000 HD
ENDROOT
BRANCH   1  14
ATOM     14  C   UNL     1       6.843   4.757  13.455  0.00  0.00    +0.000 C 
BRANCH  14  15
ATOM     15  C   UNL     1       6.984   4.027  12.111  0.00  0.00    +0.000 C 
BRANCH  15  16
ATOM     16  C   UNL     1       6.158   2.738  12.034  0.00  0.00    +0.000 C 
BRANCH  16  18
ATOM     17  C   UNL     1       6.163   0.342  11.241  0.00  0.00    +0.000 C 
ATOM     18  C   UNL     1       6.770   1.727  11.060  0.00  0.00    +0.000 C 
ENDBRANCH  16  18
ENDBRANCH  15  16
ENDBRANCH  14  15
ENDBRANCH   1  14
BRANCH   5  19
ATOM     19  C   UNL     1       7.720   7.334  17.560  0.00  0.00    +0.000 C 
BRANCH  19  20
ATOM     20  C   UNL     1       8.424   8.269  18.555  0.00  0.00    +0.000 C 
BRANCH  20  21
ATOM     21  C   UNL     1       8.532   9.700  18.023  0.00  0.00    +0.000 C 
ATOM     22  C   UNL     1       9.350  10.572  18.965  0.00  0.00    +0.000 C 
ENDBRANCH  20  21
ENDBRANCH  19  20
ENDBRANCH   5  19
BRANCH  10  23
ATOM     23  C   UNL     1       2.786   2.104  17.984  0.00  0.00    +0.000 C 
BRANCH  23  24
ATOM     24  C   UNL     1       1.444   2.727  18.259  0.00  0.00    +0.000 C 
ATOM     25  O   UNL     1       0.636   2.268  19.059  0.00  0.00    +0.000 OA
BRANCH  24  26
ATOM     26  O   UNL     1       1.191   3.856  17.553  0.00  0.00    +0.000 OA
ATOM     27  H   UNL     1       1.636   4.661  17.876  0.00  0.00    +0.000 HD
ENDBRANCH  24  26
ENDBRANCH  23  24
ENDBRANCH  10  23
TORSDOF 10
ENDMDL
MODEL 2
REMARK VINA RESULT:      -7.1      3.845      6.117
REMARK  Name = 
REMARK  13 active torsions:
REMARK  status: ('A' for Active; 'I' for Inactive)
REMARK    1  A    between atoms: C_1  and  C_2
REMARK    2  A    between atoms: C_2  and  C_3
REMARK    3  A    between atoms: C_3  and  C_4
REMARK    4  A    between atoms: C_4  and  C_5
REMARK    5  A    between atoms: C_5  and  N_6
REMARK    6  A    between atoms: N_10  and  C_11
REMARK    7  A    between atoms: N_10  and  C_12
REMARK    8  A    between atoms: C_12  and  C_13
REMARK    9  A    between atoms: C_13  and  C_14
REMARK   10  A    between atoms: C_14  and  C_15
REMARK   11  A    between atoms: N_19  and  C_20
REMARK   12  A    between atoms: C_20  and  C_21
REMARK   13  A    between atoms: C_21  and  O_23
REMARK                            x       y       z     vdW  Elec       q    Type
REMARK                         _______ _______ _______ _____ _____    ______ ____
ROOT
ATOM      1  N   UNL     1       2.341   7.651  18.924  0.00  0.00    +0.000 N 
ATOM      2  C   UNL     1       2.791   6.387  18.549  0.00  0.00    +0.000 A 
ATOM      3  N   UNL     1       3.857   6.289  17.727  0.00  0.00    +0.000 NA
ATOM      4  C   UNL     1       4.349   5.074  17.342  0.00  0.00    +0.000 A 
ATOM      5  N   UNL     1       5.425   5.038  16.465  0.00  0.00    +0.000 N 
ATOM      6  C   UNL     1       5.703   3.850  15.676  0.00  0.00    +0.000 C 
ATOM      7  C   UNL     1       3.720   3.939  17.897  0.00  0.00    +0.000 A 
ATOM      8  N   UNL     1       3.981   2.584  17.802  0.00  0.00    +0.000 NA
ATOM      9  C   UNL     1       3.093   2.002  18.574  0.00  0.00    +0.000 A 
ATOM     10  N   UNL     1       2.248   2.915  19.145  0.00  0.00    +0.000 N 
ATOM     11  C   UNL     1       2.637   4.164  18.732  0.00  0.00    +0.000 A 
ATOM     12  N   UNL     1       2.105   5.349  19.071  0.00  0.00    +0.000 NA
ATOM     13  H   UNL     1       1.392   7.553  19.260  0.00  0.00    +0.000 HD
ENDROOT
BRANCH   1  14
ATOM     14  C   UNL     1       2.576   8.724  17.967  0.00  0.00    +0.000 C 
BRANCH  14  15
ATOM     15  C   UNL     1       1.312   9.579  17.781  0.00  0.00    +0.000 C 
BRANCH  15  16
ATOM     16  C   UNL     1       0.949  10.398  19.025  0.00  0.00    +0.000 C 
BRANCH  16  18
ATOM     17  C   UNL     1      -1.514  10.825  18.681  0.00  0.00    +0.000 C 
ATOM     18  C   UNL     1      -0.469  10.093  19.513  0.00  0.00    +0.000 C 
ENDBRANCH  16  18
ENDBRANCH  15  16
ENDBRANCH  14  15
ENDBRANCH   1  14
BRANCH   5  19
ATOM     19  C   UNL     1       6.478   6.041  16.614  0.00  0.00    +0.000 C 
BRANCH  19  20
ATOM     20  C   UNL     1       7.447   5.698  17.755  0.00  0.00    +0.000 C 
BRANCH  20  21
ATOM     21  C   UNL     1       7.995   6.950  18.442  0.00  0.00    +0.000 C 
ATOM     22  C   UNL     1       7.741   8.191  17.599  0.00  0.00    +0.000 C 
ENDBRANCH  20  21
ENDBRANCH  19  20
ENDBRANCH   5  19
BRANCH  10  23
ATOM     23  C   UNL     1       1.183   2.586  20.065  0.00  0.00    +0.000 C 
BRANCH  23  24
ATOM     24  C   UNL     1       1.571   2.840  21.496  0.00  0.00    +0.000 C 
ATOM     25  O   UNL     1       1.313   2.069  22.414  0.00  0.00    +0.000 OA
BRANCH  24  26
ATOM     26  O   UNL     1       2.245   3.998  21.702  0.00  0.00    +0.000 OA
ATOM     27  H   UNL     1       2.211   4.347  22.611  0.00  0.00    +0.000 HD
ENDBRANCH  24  26
ENDBRANCH  23  24
ENDBRANCH  10  23
TORSDOF 10
ENDMDL
MODEL 3
REMARK VINA RESULT:      -7.1      0.899      1.288
REMARK  Name = 
REMARK  13 active torsions:
REMARK  status: ('A' for Active; 'I' for Inactive)
REMARK    1  A    between atoms: C_1  and  C_2
REMARK    2  A    between atoms: C_2  and  C_3
REMARK    3  A    between atoms: C_3  and  C_4
REMARK    4  A    between atoms: C_4  and  C_5
REMARK    5  A    between atoms: C_5  and  N_6
REMARK    6  A    between atoms: N_10  and  C_11
REMARK    7  A    between atoms: N_10  and  C_12
REMARK    8  A    between atoms: C_12  and  C_13
REMARK    9  A    between atoms: C_13  and  C_14
REMARK   10  A    between atoms: C_14  and  C_15
REMARK   11  A    between atoms: N_19  and  C_20
REMARK   12  A    between atoms: C_20  and  C_21
REMARK   13  A    between atoms: C_21  and  O_23
REMARK                            x       y       z     vdW  Elec       q    Type
REMARK                         _______ _______ _______ _____ _____    ______ ____
ROOT
ATOM      1  N   UNL     1       5.108   4.277  14.253  0.00  0.00    +0.000 N 
ATOM      2  C   UNL     1       5.234   4.275  15.640  0.00  0.00    +0.000 A 
ATOM      3  N   UNL     1       6.182   5.047  16.212  0.00  0.00    +0.000 NA
ATOM      4  C   UNL     1       6.337   5.095  17.569  0.00  0.00    +0.000 A 
ATOM      5  N   UNL     1       7.355   5.878  18.095  0.00  0.00    +0.000 N 
ATOM      6  C   UNL     1       7.864   5.636  19.435  0.00  0.00    +0.000 C 
ATOM      7  C   UNL     1       5.417   4.344  18.332  0.00  0.00    +0.000 A 
ATOM      8  N   UNL     1       5.221   4.209  19.694  0.00  0.00    +0.000 NA
ATOM      9  C   UNL     1       4.184   3.414  19.821  0.00  0.00    +0.000 A 
ATOM     10  N   UNL     1       3.715   3.002  18.602  0.00  0.00    +0.000 N 
ATOM     11  C   UNL     1       4.485   3.593  17.634  0.00  0.00    +0.000 A 
ATOM     12  N   UNL     1       4.359   3.488  16.301  0.00  0.00    +0.000 NA
ATOM     13  H   UNL     1       4.594   3.446  13.989  0.00  0.00    +0.000 HD
ENDROOT
BRANCH   1  14
ATOM     14  C   UNL     1       6.325   4.546  13.500  0.00  0.00    +0.000 C 
BRANCH  14  15
ATOM     15  C   UNL     1       6.580   3.446  12.458  0.00  0.00    +0.000 C 
BRANCH  15  16
ATOM     16  C   UNL     1       5.291   2.807  11.927  0.00  0.00    +0.000 C 
BRANCH  16  18
ATOM     17  C   UNL     1       3.154   3.177  10.637  0.00  0.00    +0.000 C 
ATOM     18  C   UNL     1       4.391   3.833  11.234  0.00  0.00    +0.000 C 
ENDBRANCH  16  18
ENDBRANCH  15  16
ENDBRANCH  14  15
ENDBRANCH   1  14
BRANCH   5  19
ATOM     19  C   UNL     1       7.647   7.162  17.458  0.00  0.00    +0.000 C 
BRANCH  19  20
ATOM     20  C   UNL     1       8.324   8.146  18.424  0.00  0.00    +0.000 C 
BRANCH  20  21
ATOM     21  C   UNL     1       8.168   9.598  17.969  0.00  0.00    +0.000 C 
ATOM     22  C   UNL     1       9.291  10.466  18.519  0.00  0.00    +0.000 C 
ENDBRANCH  20  21
ENDBRANCH  19  20
ENDBRANCH   5  19
BRANCH  10  23
ATOM     23  C   UNL     1       2.569   2.143  18.412  0.00  0.00    +0.000 C 
BRANCH  23  24
ATOM     24  C   UNL     1       1.273   2.906  18.464  0.00  0.00    +0.000 C 
ATOM     25  O   UNL     1       0.940   3.733  17.622  0.00  0.00    +0.000 OA
BRANCH  24  26
ATOM     26  O   UNL     1       0.482   2.604  19.522  0.00  0.00    +0.000 OA
ATOM     27  H   UNL     1      -0.335   3.130  19.599  0.00  0.00    +0.000 HD
ENDBRANCH  24  26
ENDBRANCH  23  24
ENDBRANCH  10  23
TORSDOF 10
ENDMDL
MODEL 4
REMARK VINA RESULT:      -7.0      3.687      6.111
REMARK  Name = 
REMARK  13 active torsions:
REMARK  status: ('A' for Active; 'I' for Inactive)
REMARK    1  A    between atoms: C_1  and  C_2
REMARK    2  A    between atoms: C_2  and  C_3
REMARK    3  A    between atoms: C_3  and  C_4
REMARK    4  A    between atoms: C_4  and  C_5
REMARK    5  A    between atoms: C_5  and  N_6
REMARK    6  A    between atoms: N_10  and  C_11
REMARK    7  A    between atoms: N_10  and  C_12
REMARK    8  A    between atoms: C_12  and  C_13
REMARK    9  A    between atoms: C_13  and  C_14
REMARK   10  A    between atoms: C_14  and  C_15
REMARK   11  A    between atoms: N_19  and  C_20
REMARK   12  A    between atoms: C_20  and  C_21
REMARK   13  A    between atoms: C_21  and  O_23
REMARK                            x       y       z     vdW  Elec       q    Type
REMARK                         _______ _______ _______ _____ _____    ______ ____
ROOT
ATOM      1  N   UNL     1       2.309   7.546  18.986  0.00  0.00    +0.000 N 
ATOM      2  C   UNL     1       2.804   6.299  18.611  0.00  0.00    +0.000 A 
ATOM      3  N   UNL     1       3.877   6.239  17.795  0.00  0.00    +0.000 NA
ATOM      4  C   UNL     1       4.413   5.042  17.410  0.00  0.00    +0.000 A 
ATOM      5  N   UNL     1       5.493   5.045  16.539  0.00  0.00    +0.000 N 
ATOM      6  C   UNL     1       5.816   3.869  15.749  0.00  0.00    +0.000 C 
ATOM      7  C   UNL     1       3.819   3.885  17.959  0.00  0.00    +0.000 A 
ATOM      8  N   UNL     1       4.126   2.540  17.862  0.00  0.00    +0.000 NA
ATOM      9  C   UNL     1       3.254   1.927  18.628  0.00  0.00    +0.000 A 
ATOM     10  N   UNL     1       2.375   2.809  19.196  0.00  0.00    +0.000 N 
ATOM     11  C   UNL     1       2.724   4.071  18.789  0.00  0.00    +0.000 A 
ATOM     12  N   UNL     1       2.150   5.237  19.126  0.00  0.00    +0.000 NA
ATOM     13  H   UNL     1       1.362   7.415  19.317  0.00  0.00    +0.000 HD
ENDROOT
BRANCH   1  14
ATOM     14  C   UNL     1       2.513   8.628  18.033  0.00  0.00    +0.000 C 
BRANCH  14  15
ATOM     15  C   UNL     1       1.271   9.530  17.953  0.00  0.00    +0.000 C 
BRANCH  15  16
ATOM     16  C   UNL     1       1.154  10.501  19.134  0.00  0.00    +0.000 C 
BRANCH  16  18
ATOM     17  C   UNL     1       2.372  12.558  18.325  0.00  0.00    +0.000 C 
ATOM     18  C   UNL     1       1.017  11.952  18.665  0.00  0.00    +0.000 C 
ENDBRANCH  16  18
ENDBRANCH  15  16
ENDBRANCH  14  15
ENDBRANCH   1  14
BRANCH   5  19
ATOM     19  C   UNL     1       6.512   6.083  16.696  0.00  0.00    +0.000 C 
BRANCH  19  20
ATOM     20  C   UNL     1       7.421   5.822  17.906  0.00  0.00    +0.000 C 
BRANCH  20  21
ATOM     21  C   UNL     1       8.110   7.098  18.394  0.00  0.00    +0.000 C 
ATOM     22  C   UNL     1       7.690   8.299  17.558  0.00  0.00    +0.000 C 
ENDBRANCH  20  21
ENDBRANCH  19  20
ENDBRANCH   5  19
BRANCH  10  23
ATOM     23  C   UNL     1       1.317   2.442  20.109  0.00  0.00    +0.000 C 
BRANCH  23  24
ATOM     24  C   UNL     1       1.764   2.490  21.544  0.00  0.00    +0.000 C 
ATOM     25  O   UNL     1       2.939   2.577  21.885  0.00  0.00    +0.000 OA
BRANCH  24  26
ATOM     26  O   UNL     1       0.758   2.438  22.451  0.00  0.00    +0.000 OA
ATOM     27  H   UNL     1       0.990   2.043  23.312  0.00  0.00    +0.000 HD
ENDBRANCH  24  26
ENDBRANCH  23  24
ENDBRANCH  10  23
TORSDOF 10
ENDMDL
MODEL 5
REMARK VINA RESULT:      -6.7      1.060      1.133
REMARK  Name = 
REMARK  13 active torsions:
REMARK  status: ('A' for Active; 'I' for Inactive)
REMARK    1  A    between atoms: C_1  and  C_2
REMARK    2  A    between atoms: C_2  and  C_3
REMARK    3  A    between atoms: C_3  and  C_4
REMARK    4  A    between atoms: C_4  and  C_5
REMARK    5  A    between atoms: C_5  and  N_6
REMARK    6  A    between atoms: N_10  and  C_11
REMARK    7  A    between atoms: N_10  and  C_12
REMARK    8  A    between atoms: C_12  and  C_13
REMARK    9  A    between atoms: C_13  and  C_14
REMARK   10  A    between atoms: C_14  and  C_15
REMARK   11  A    between atoms: N_19  and  C_20
REMARK   12  A    between atoms: C_20  and  C_21
REMARK   13  A    between atoms: C_21  and  O_23
REMARK                            x       y       z     vdW  Elec       q    Type
REMARK                         _______ _______ _______ _____ _____    ______ ____
ROOT
ATOM      1  N   UNL     1       5.040   4.097  14.317  0.00  0.00    +0.000 N 
ATOM      2  C   UNL     1       4.975   4.396  15.676  0.00  0.00    +0.000 A 
ATOM      3  N   UNL     1       6.046   4.960  16.273  0.00  0.00    +0.000 NA
ATOM      4  C   UNL     1       6.030   5.289  17.600  0.00  0.00    +0.000 A 
ATOM      5  N   UNL     1       7.176   5.830  18.166  0.00  0.00    +0.000 N 
ATOM      6  C   UNL     1       7.391   5.780  19.602  0.00  0.00    +0.000 C 
ATOM      7  C   UNL     1       4.818   5.061  18.287  0.00  0.00    +0.000 A 
ATOM      8  N   UNL     1       4.411   5.329  19.582  0.00  0.00    +0.000 NA
ATOM      9  C   UNL     1       3.159   4.941  19.642  0.00  0.00    +0.000 A 
ATOM     10  N   UNL     1       2.741   4.406  18.453  0.00  0.00    +0.000 N 
ATOM     11  C   UNL     1       3.785   4.482  17.567  0.00  0.00    +0.000 A 
ATOM     12  N   UNL     1       3.806   4.098  16.281  0.00  0.00    +0.000 NA
ATOM     13  H   UNL     1       4.313   3.423  14.116  0.00  0.00    +0.000 HD
ENDROOT
BRANCH   1  14
ATOM     14  C   UNL     1       6.363   3.793  13.791  0.00  0.00    +0.000 C 
BRANCH  14  15
ATOM     15  C   UNL     1       6.343   3.736  12.256  0.00  0.00    +0.000 C 
BRANCH  15  16
ATOM     16  C   UNL     1       5.662   2.476  11.708  0.00  0.00    +0.000 C 
BRANCH  16  18
ATOM     17  C   UNL     1       6.138   0.039  11.257  0.00  0.00    +0.000 C 
ATOM     18  C   UNL     1       6.681   1.460  11.185  0.00  0.00    +0.000 C 
ENDBRANCH  16  18
ENDBRANCH  15  16
ENDBRANCH  14  15
ENDBRANCH   1  14
BRANCH   5  19
ATOM     19  C   UNL     1       7.968   6.769  17.373  0.00  0.00    +0.000 C 
BRANCH  19  20
ATOM     20  C   UNL     1       7.622   8.231  17.690  0.00  0.00    +0.000 C 
BRANCH  20  21
ATOM     21  C   UNL     1       8.720   8.919  18.503  0.00  0.00    +0.000 C 
ATOM     22  C   UNL     1       8.870  10.378  18.095  0.00  0.00    +0.000 C 
ENDBRANCH  20  21
ENDBRANCH  19  20
ENDBRANCH   5  19
BRANCH  10  23
ATOM     23  C   UNL     1       1.406   3.916  18.197  0.00  0.00    +0.000 C 
BRANCH  23  24
ATOM     24  C   UNL     1       1.300   2.428  18.391  0.00  0.00    +0.000 C 
ATOM     25  O   UNL     1       0.274   1.865  18.755  0.00  0.00    +0.000 OA
BRANCH  24  26
ATOM     26  O   UNL     1       2.437   1.741  18.122  0.00  0.00    +0.000 OA
ATOM     27  H   UNL     1       2.311   0.866  17.712  0.00  0.00    +0.000 HD
ENDBRANCH  24  26
ENDBRANCH  23  24
ENDBRANCH  10  23
TORSDOF 10
ENDMDL
MODEL 6
REMARK VINA RESULT:      -6.7      4.002      6.508
REMARK  Name = 
REMARK  13 active torsions:
REMARK  status: ('A' for Active; 'I' for Inactive)
REMARK    1  A    between atoms: C_1  and  C_2
REMARK    2  A    between atoms: C_2  and  C_3
REMARK    3  A    between atoms: C_3  and  C_4
REMARK    4  A    between atoms: C_4  and  C_5
REMARK    5  A    between atoms: C_5  and  N_6
REMARK    6  A    between atoms: N_10  and  C_11
REMARK    7  A    between atoms: N_10  and  C_12
REMARK    8  A    between atoms: C_12  and  C_13
REMARK    9  A    between atoms: C_13  and  C_14
REMARK   10  A    between atoms: C_14  and  C_15
REMARK   11  A    between atoms: N_19  and  C_20
REMARK   12  A    between atoms: C_20  and  C_21
REMARK   13  A    between atoms: C_21  and  O_23
REMARK                            x       y       z     vdW  Elec       q    Type
REMARK                         _______ _______ _______ _____ _____    ______ ____
ROOT
ATOM      1  N   UNL     1       2.048   7.973  19.143  0.00  0.00    +0.000 N 
ATOM      2  C   UNL     1       2.512   6.732  18.712  0.00  0.00    +0.000 A 
ATOM      3  N   UNL     1       3.509   6.686  17.804  0.00  0.00    +0.000 NA
ATOM      4  C   UNL     1       4.013   5.496  17.360  0.00  0.00    +0.000 A 
ATOM      5  N   UNL     1       5.012   5.512  16.397  0.00  0.00    +0.000 N 
ATOM      6  C   UNL     1       5.267   4.346  15.569  0.00  0.00    +0.000 C 
ATOM      7  C   UNL     1       3.473   4.330  17.946  0.00  0.00    +0.000 A 
ATOM      8  N   UNL     1       3.775   2.987  17.807  0.00  0.00    +0.000 NA
ATOM      9  C   UNL     1       2.976   2.362  18.640  0.00  0.00    +0.000 A 
ATOM     10  N   UNL     1       2.148   3.235  19.293  0.00  0.00    +0.000 N 
ATOM     11  C   UNL     1       2.456   4.502  18.871  0.00  0.00    +0.000 A 
ATOM     12  N   UNL     1       1.910   5.662  19.271  0.00  0.00    +0.000 NA
ATOM     13  H   UNL     1       1.135   7.834  19.555  0.00  0.00    +0.000 HD
ENDROOT
BRANCH   1  14
ATOM     14  C   UNL     1       2.163   9.066  18.188  0.00  0.00    +0.000 C 
BRANCH  14  15
ATOM     15  C   UNL     1       0.922   9.971  18.238  0.00  0.00    +0.000 C 
BRANCH  15  16
ATOM     16  C   UNL     1       0.067   9.753  19.491  0.00  0.00    +0.000 C 
BRANCH  16  18
ATOM     17  C   UNL     1       0.360  10.086  21.976  0.00  0.00    +0.000 C 
ATOM     18  C   UNL     1       0.424  10.743  20.604  0.00  0.00    +0.000 C 
ENDBRANCH  16  18
ENDBRANCH  15  16
ENDBRANCH  14  15
ENDBRANCH   1  14
BRANCH   5  19
ATOM     19  C   UNL     1       6.037   6.553  16.475  0.00  0.00    +0.000 C 
BRANCH  19  20
ATOM     20  C   UNL     1       7.370   6.011  17.012  0.00  0.00    +0.000 C 
BRANCH  20  21
ATOM     21  C   UNL     1       7.808   6.727  18.292  0.00  0.00    +0.000 C 
ATOM     22  C   UNL     1       7.806   5.774  19.479  0.00  0.00    +0.000 C 
ENDBRANCH  20  21
ENDBRANCH  19  20
ENDBRANCH   5  19
BRANCH  10  23
ATOM     23  C   UNL     1       1.176   2.853  20.292  0.00  0.00    +0.000 C 
BRANCH  23  24
ATOM     24  C   UNL     1       1.815   2.553  21.620  0.00  0.00    +0.000 C 
ATOM     25  O   UNL     1       3.027   2.572  21.808  0.00  0.00    +0.000 OA
BRANCH  24  26
ATOM     26  O   UNL     1       0.941   2.264  22.615  0.00  0.00    +0.000 OA
ATOM     27  H   UNL     1       1.328   2.196  23.507  0.00  0.00    +0.000 HD
ENDBRANCH  24  26
ENDBRANCH  23  24
ENDBRANCH  10  23
TORSDOF 10
ENDMDL
MODEL 7
REMARK VINA RESULT:      -6.6      3.869      6.197
REMARK  Name = 
REMARK  13 active torsions:
REMARK  status: ('A' for Active; 'I' for Inactive)
REMARK    1  A    between atoms: C_1  and  C_2
REMARK    2  A    between atoms: C_2  and  C_3
REMARK    3  A    between atoms: C_3  and  C_4
REMARK    4  A    between atoms: C_4  and  C_5
REMARK    5  A    between atoms: C_5  and  N_6
REMARK    6  A    between atoms: N_10  and  C_11
REMARK    7  A    between atoms: N_10  and  C_12
REMARK    8  A    between atoms: C_12  and  C_13
REMARK    9  A    between atoms: C_13  and  C_14
REMARK   10  A    between atoms: C_14  and  C_15
REMARK   11  A    between atoms: N_19  and  C_20
REMARK   12  A    between atoms: C_20  and  C_21
REMARK   13  A    between atoms: C_21  and  O_23
REMARK                            x       y       z     vdW  Elec       q    Type
REMARK                         _______ _______ _______ _____ _____    ______ ____
ROOT
ATOM      1  N   UNL     1       1.950   7.843  18.650  0.00  0.00    +0.000 N 
ATOM      2  C   UNL     1       2.609   6.703  18.199  0.00  0.00    +0.000 A 
ATOM      3  N   UNL     1       3.801   6.837  17.581  0.00  0.00    +0.000 NA
ATOM      4  C   UNL     1       4.498   5.750  17.134  0.00  0.00    +0.000 A 
ATOM      5  N   UNL     1       5.701   5.956  16.472  0.00  0.00    +0.000 N 
ATOM      6  C   UNL     1       6.252   4.935  15.596  0.00  0.00    +0.000 C 
ATOM      7  C   UNL     1       3.931   4.487  17.408  0.00  0.00    +0.000 A 
ATOM      8  N   UNL     1       4.371   3.195  17.183  0.00  0.00    +0.000 NA
ATOM      9  C   UNL     1       3.446   2.417  17.695  0.00  0.00    +0.000 A 
ATOM     10  N   UNL     1       2.411   3.144  18.218  0.00  0.00    +0.000 N 
ATOM     11  C   UNL     1       2.705   4.473  18.054  0.00  0.00    +0.000 A 
ATOM     12  N   UNL     1       1.981   5.534  18.444  0.00  0.00    +0.000 NA
ATOM     13  H   UNL     1       0.978   7.601  18.792  0.00  0.00    +0.000 HD
ENDROOT
BRANCH   1  14
ATOM     14  C   UNL     1       2.205   9.068  17.904  0.00  0.00    +0.000 C 
BRANCH  14  15
ATOM     15  C   UNL     1       1.303  10.209  18.397  0.00  0.00    +0.000 C 
BRANCH  15  16
ATOM     16  C   UNL     1       1.979  11.584  18.333  0.00  0.00    +0.000 C 
BRANCH  16  18
ATOM     17  C   UNL     1      -0.001  13.146  18.412  0.00  0.00    +0.000 C 
ATOM     18  C   UNL     1       1.223  12.630  19.156  0.00  0.00    +0.000 C 
ENDBRANCH  16  18
ENDBRANCH  15  16
ENDBRANCH  14  15
ENDBRANCH   1  14
BRANCH   5  19
ATOM     19  C   UNL     1       6.582   7.023  16.942  0.00  0.00    +0.000 C 
BRANCH  19  20
ATOM     20  C   UNL     1       7.600   6.519  17.977  0.00  0.00    +0.000 C 
BRANCH  20  21
ATOM     21  C   UNL     1       8.354   7.667  18.650  0.00  0.00    +0.000 C 
ATOM     22  C   UNL     1       8.155   8.971  17.890  0.00  0.00    +0.000 C 
ENDBRANCH  20  21
ENDBRANCH  19  20
ENDBRANCH   5  19
BRANCH  10  23
ATOM     23  C   UNL     1       1.257   2.574  18.876  0.00  0.00    +0.000 C 
BRANCH  23  24
ATOM     24  C   UNL     1       1.182   2.962  20.327  0.00  0.00    +0.000 C 
ATOM     25  O   UNL     1       1.711   2.320  21.228  0.00  0.00    +0.000 OA
BRANCH  24  26
ATOM     26  O   UNL     1       0.482   4.097  20.573  0.00  0.00    +0.000 OA
ATOM     27  H   UNL     1       0.843   4.908  20.171  0.00  0.00    +0.000 HD
ENDBRANCH  24  26
ENDBRANCH  23  24
ENDBRANCH  10  23
TORSDOF 10
ENDMDL
MODEL 8
REMARK VINA RESULT:      -6.6      3.982      5.859
REMARK  Name = 
REMARK  13 active torsions:
REMARK  status: ('A' for Active; 'I' for Inactive)
REMARK    1  A    between atoms: C_1  and  C_2
REMARK    2  A    between atoms: C_2  and  C_3
REMARK    3  A    between atoms: C_3  and  C_4
REMARK    4  A    between atoms: C_4  and  C_5
REMARK    5  A    between atoms: C_5  and  N_6
REMARK    6  A    between atoms: N_10  and  C_11
REMARK    7  A    between atoms: N_10  and  C_12
REMARK    8  A    between atoms: C_12  and  C_13
REMARK    9  A    between atoms: C_13  and  C_14
REMARK   10  A    between atoms: C_14  and  C_15
REMARK   11  A    between atoms: N_19  and  C_20
REMARK   12  A    between atoms: C_20  and  C_21
REMARK   13  A    between atoms: C_21  and  O_23
REMARK                            x       y       z     vdW  Elec       q    Type
REMARK                         _______ _______ _______ _____ _____    ______ ____
ROOT
ATOM      1  N   UNL     1       5.020   5.743  16.739  0.00  0.00    +0.000 N 
ATOM      2  C   UNL     1       4.056   5.627  17.738  0.00  0.00    +0.000 A 
ATOM      3  N   UNL     1       3.490   6.747  18.233  0.00  0.00    +0.000 NA
ATOM      4  C   UNL     1       2.527   6.690  19.202  0.00  0.00    +0.000 A 
ATOM      5  N   UNL     1       2.010   7.878  19.699  0.00  0.00    +0.000 N 
ATOM      6  C   UNL     1       1.353   7.920  20.994  0.00  0.00    +0.000 C 
ATOM      7  C   UNL     1       2.121   5.399  19.606  0.00  0.00    +0.000 A 
ATOM      8  N   UNL     1       1.148   4.956  20.483  0.00  0.00    +0.000 NA
ATOM      9  C   UNL     1       1.192   3.646  20.420  0.00  0.00    +0.000 A 
ATOM     10  N   UNL     1       2.170   3.216  19.564  0.00  0.00    +0.000 N 
ATOM     11  C   UNL     1       2.771   4.323  19.023  0.00  0.00    +0.000 A 
ATOM     12  N   UNL     1       3.760   4.366  18.116  0.00  0.00    +0.000 NA
ATOM     13  H   UNL     1       5.542   4.876  16.713  0.00  0.00    +0.000 HD
ENDROOT
BRANCH   1  14
ATOM     14  C   UNL     1       5.808   6.967  16.749  0.00  0.00    +0.000 C 
BRANCH  14  15
ATOM     15  C   UNL     1       7.293   6.663  16.999  0.00  0.00    +0.000 C 
BRANCH  15  16
ATOM     16  C   UNL     1       7.903   7.515  18.119  0.00  0.00    +0.000 C 
BRANCH  16  18
ATOM     17  C   UNL     1       8.912   9.773  18.618  0.00  0.00    +0.000 C 
ATOM     18  C   UNL     1       7.923   9.002  17.755  0.00  0.00    +0.000 C 
ENDBRANCH  16  18
ENDBRANCH  15  16
ENDBRANCH  14  15
ENDBRANCH   1  14
BRANCH   5  19
ATOM     19  C   UNL     1       1.796   8.987  18.770  0.00  0.00    +0.000 C 
BRANCH  19  20
ATOM     20  C   UNL     1       0.590   9.851  19.169  0.00  0.00    +0.000 C 
BRANCH  20  21
ATOM     21  C   UNL     1       1.007  11.261  19.592  0.00  0.00    +0.000 C 
ATOM     22  C   UNL     1       0.318  12.315  18.736  0.00  0.00    +0.000 C 
ENDBRANCH  20  21
ENDBRANCH  19  20
ENDBRANCH   5  19
BRANCH  10  23
ATOM     23  C   UNL     1       2.446   1.830  19.261  0.00  0.00    +0.000 C 
BRANCH  23  24
ATOM     24  C   UNL     1       3.905   1.497  19.407  0.00  0.00    +0.000 C 
ATOM     25  O   UNL     1       4.621   1.964  20.286  0.00  0.00    +0.000 OA
BRANCH  24  26
ATOM     26  O   UNL     1       4.379   0.622  18.487  0.00  0.00    +0.000 OA
ATOM     27  H   UNL     1       5.290   0.308  18.637  0.00  0.00    +0.000 HD
ENDBRANCH  24  26
ENDBRANCH  23  24
ENDBRANCH  10  23
TORSDOF 10
ENDMDL
MODEL 9
REMARK VINA RESULT:      -6.6      3.838      4.640
REMARK  Name = 
REMARK  13 active torsions:
REMARK  status: ('A' for Active; 'I' for Inactive)
REMARK    1  A    between atoms: C_1  and  C_2
REMARK    2  A    between atoms: C_2  and  C_3
REMARK    3  A    between atoms: C_3  and  C_4
REMARK    4  A    between atoms: C_4  and  C_5
REMARK    5  A    between atoms: C_5  and  N_6
REMARK    6  A    between atoms: N_10  and  C_11
REMARK    7  A    between atoms: N_10  and  C_12
REMARK    8  A    between atoms: C_12  and  C_13
REMARK    9  A    between atoms: C_13  and  C_14
REMARK   10  A    between atoms: C_14  and  C_15
REMARK   11  A    between atoms: N_19  and  C_20
REMARK   12  A    between atoms: C_20  and  C_21
REMARK   13  A    between atoms: C_21  and  O_23
REMARK                            x       y       z     vdW  Elec       q    Type
REMARK                         _______ _______ _______ _____ _____    ______ ____
ROOT
ATOM      1  N   UNL     1       4.696   4.671  16.211  0.00  0.00    +0.000 N 
ATOM      2  C   UNL     1       3.964   4.911  17.371  0.00  0.00    +0.000 A 
ATOM      3  N   UNL     1       3.483   6.151  17.597  0.00  0.00    +0.000 NA
ATOM      4  C   UNL     1       2.744   6.437  18.710  0.00  0.00    +0.000 A 
ATOM      5  N   UNL     1       2.309   7.741  18.906  0.00  0.00    +0.000 N 
ATOM      6  C   UNL     1       1.934   8.210  20.229  0.00  0.00    +0.000 C 
ATOM      7  C   UNL     1       2.466   5.354  19.572  0.00  0.00    +0.000 A 
ATOM      8  N   UNL     1       1.709   5.245  20.725  0.00  0.00    +0.000 NA
ATOM      9  C   UNL     1       1.775   3.980  21.067  0.00  0.00    +0.000 A 
ATOM     10  N   UNL     1       2.564   3.266  20.206  0.00  0.00    +0.000 N 
ATOM     11  C   UNL     1       3.010   4.125  19.235  0.00  0.00    +0.000 A 
ATOM     12  N   UNL     1       3.788   3.843  18.177  0.00  0.00    +0.000 NA
ATOM     13  H   UNL     1       5.225   3.820  16.351  0.00  0.00    +0.000 HD
ENDROOT
BRANCH   1  14
ATOM     14  C   UNL     1       5.435   5.806  15.675  0.00  0.00    +0.000 C 
BRANCH  14  15
ATOM     15  C   UNL     1       6.480   5.344  14.647  0.00  0.00    +0.000 C 
BRANCH  15  16
ATOM     16  C   UNL     1       6.261   3.903  14.170  0.00  0.00    +0.000 C 
BRANCH  16  18
ATOM     17  C   UNL     1       5.190   3.220  11.989  0.00  0.00    +0.000 C 
ATOM     18  C   UNL     1       6.443   3.772  12.655  0.00  0.00    +0.000 C 
ENDBRANCH  16  18
ENDBRANCH  15  16
ENDBRANCH  14  15
ENDBRANCH   1  14
BRANCH   5  19
ATOM     19  C   UNL     1       1.877   8.513  17.741  0.00  0.00    +0.000 C 
BRANCH  19  20
ATOM     20  C   UNL     1       1.264   9.864  18.139  0.00  0.00    +0.000 C 
BRANCH  20  21
ATOM     21  C   UNL     1      -0.246   9.905  17.899  0.00  0.00    +0.000 C 
ATOM     22  C   UNL     1      -0.984  10.381  19.142  0.00  0.00    +0.000 C 
ENDBRANCH  20  21
ENDBRANCH  19  20
ENDBRANCH   5  19
BRANCH  10  23
ATOM     23  C   UNL     1       2.809   1.845  20.303  0.00  0.00    +0.000 C 
BRANCH  23  24
ATOM     24  C   UNL     1       4.219   1.485  19.924  0.00  0.00    +0.000 C 
ATOM     25  O   UNL     1       5.193   1.729  20.628  0.00  0.00    +0.000 OA
BRANCH  24  26
ATOM     26  O   UNL     1       4.339   0.852  18.731  0.00  0.00    +0.000 OA
ATOM     27  H   UNL     1       5.236   0.537  18.512  0.00  0.00    +0.000 HD
ENDBRANCH  24  26
ENDBRANCH  23  24
ENDBRANCH  10  23
TORSDOF 10
ENDMDL
