MODEL 1
REMARK VINA RESULT:      -9.2      0.000      0.000
REMARK  Name = 
REMARK  8 active torsions:
REMARK  status: ('A' for Active; 'I' for Inactive)
REMARK    1  A    between atoms: C_1  and  C_2
REMARK    2  A    between atoms: N_4  and  C_5
REMARK    3  A    between atoms: N_14  and  C_15
REMARK    4  A    between atoms: C_18  and  O_19
REMARK    5  A    between atoms: O_19  and  C_20
REMARK    6  A    between atoms: C_25  and  C_26
REMARK    7  A    between atoms: C_26  and  C_27
REMARK    8  A    between atoms: C_26  and  C_28
REMARK                            x       y       z     vdW  Elec       q    Type
REMARK                         _______ _______ _______ _____ _____    ______ ____
ROOT
ATOM      1  C   UNL     1       0.874   9.899  19.489  0.00  0.00    +0.000 A 
ATOM      2  C   UNL     1       0.642   9.230  20.639  0.00  0.00    +0.000 A 
ATOM      3  C   UNL     1       1.177   7.919  20.908  0.00  0.00    +0.000 A 
ATOM      4  C   UNL     1       2.011   7.336  20.036  0.00  0.00    +0.000 A 
ATOM      5  N   UNL     1       2.372   7.999  18.876  0.00  0.00    +0.000 N 
ATOM      6  C   UNL     1       1.804   9.216  18.503  0.00  0.00    +0.000 A 
ATOM      7  O   UNL     1       2.056   9.718  17.408  0.00  0.00    +0.000 OA
ATOM      8  C   UNL     1       3.241   7.333  17.912  0.00  0.00    +0.000 C 
ATOM      9  C   UNL     1       4.105   6.267  18.565  0.00  0.00    +0.000 C 
ATOM     10  N   UNL     1       3.296   5.350  19.355  0.00  0.00    +0.000 N 
ATOM     11  C   UNL     1       2.403   5.896  20.280  0.00  0.00    +0.000 C 
ATOM     12  O   UNL     1       1.858   5.240  21.164  0.00  0.00    +0.000 OA
ENDROOT
BRANCH   1  16
ATOM     13  C   UNL     1       0.143  14.804  18.711  0.00  0.00    +0.000 C 
ATOM     14  C   UNL     1      -0.009  13.343  18.871  0.00  0.00    +0.000 A 
ATOM     15  C   UNL     1       0.910  12.407  19.286  0.00  0.00    +0.000 A 
ATOM     16  N   UNL     1       0.296  11.161  19.209  0.00  0.00    +0.000 N 
ATOM     17  C   UNL     1      -0.993  11.458  18.798  0.00  0.00    +0.000 A 
ATOM     18  N   UNL     1      -1.196  12.738  18.584  0.00  0.00    +0.000 NA
ENDBRANCH   1  16
BRANCH  10  19
ATOM     19  C   UNL     1       3.048   3.969  18.841  0.00  0.00    +0.000 C 
ATOM     20  C   UNL     1       3.162   2.835  19.882  0.00  0.00    +0.000 C 
ATOM     21  C   UNL     1       3.737   1.952  18.770  0.00  0.00    +0.000 C 
ATOM     22  C   UNL     1       4.194   3.250  18.046  0.00  0.00    +0.000 C 
BRANCH  22  23
ATOM     23  O   UNL     1       4.039   3.299  16.604  0.00  0.00    +0.000 OA
BRANCH  23  24
ATOM     24  C   UNL     1       5.030   3.848  15.824  0.00  0.00    +0.000 A 
ATOM     25  C   UNL     1       6.017   4.714  16.275  0.00  0.00    +0.000 A 
ATOM     26  C   UNL     1       7.001   5.167  15.394  0.00  0.00    +0.000 A 
ATOM     27  C   UNL     1       6.976   4.798  14.045  0.00  0.00    +0.000 A 
ATOM     28 CL   UNL     1       8.247   5.414  13.047  0.00  0.00    +0.000 Cl
ATOM     29  C   UNL     1       5.955   3.968  13.545  0.00  0.00    +0.000 A 
ATOM     30  C   UNL     1       5.011   3.473  14.471  0.00  0.00    +0.000 A 
BRANCH  29  31
ATOM     31  C   UNL     1       5.860   3.630  12.059  0.00  0.00    +0.000 C 
ATOM     32  C   UNL     1       6.873   2.557  11.653  0.00  0.00    +0.000 C 
ATOM     33  C   UNL     1       4.453   3.224  11.600  0.00  0.00    +0.000 C 
ENDBRANCH  29  31
ENDBRANCH  23  24
ENDBRANCH  22  23
ENDBRANCH  10  19
TORSDOF 5
ENDMDL
MODEL 2
REMARK VINA RESULT:      -7.9      3.697      9.800
REMARK  Name = 
REMARK  8 active torsions:
REMARK  status: ('A' for Active; 'I' for Inactive)
REMARK    1  A    between atoms: C_1  and  C_2
REMARK    2  A    between atoms: N_4  and  C_5
REMARK    3  A    between atoms: N_14  and  C_15
REMARK    4  A    between atoms: C_18  and  O_19
REMARK    5  A    between atoms: O_19  and  C_20
REMARK    6  A    between atoms: C_25  and  C_26
REMARK    7  A    between atoms: C_26  and  C_27
REMARK    8  A    between atoms: C_26  and  C_28
REMARK                            x       y       z     vdW  Elec       q    Type
REMARK                         _______ _______ _______ _____ _____    ______ ____
ROOT
ATOM      1  C   UNL     1       2.349   7.243  19.043  0.00  0.00    +0.000 A 
ATOM      2  C   UNL     1       1.964   6.796  20.258  0.00  0.00    +0.000 A 
ATOM      3  C   UNL     1       1.163   7.579  21.166  0.00  0.00    +0.000 A 
ATOM      4  C   UNL     1       0.692   8.776  20.793  0.00  0.00    +0.000 A 
ATOM      5  N   UNL     1       0.965   9.263  19.526  0.00  0.00    +0.000 N 
ATOM      6  C   UNL     1       1.825   8.611  18.645  0.00  0.00    +0.000 A 
ATOM      7  O   UNL     1       2.142   9.132  17.576  0.00  0.00    +0.000 OA
ATOM      8  C   UNL     1       0.489  10.590  19.151  0.00  0.00    +0.000 C 
ATOM      9  C   UNL     1      -0.729  11.007  19.959  0.00  0.00    +0.000 C 
ATOM     10  N   UNL     1      -0.488  10.854  21.387  0.00  0.00    +0.000 N 
ATOM     11  C   UNL     1       0.008   9.628  21.839  0.00  0.00    +0.000 C 
ATOM     12  O   UNL     1       0.016   9.296  23.021  0.00  0.00    +0.000 OA
ENDROOT
BRANCH   1  16
ATOM     13  C   UNL     1       6.013   5.799  15.930  0.00  0.00    +0.000 C 
ATOM     14  C   UNL     1       4.819   5.871  16.798  0.00  0.00    +0.000 A 
ATOM     15  C   UNL     1       4.269   6.956  17.442  0.00  0.00    +0.000 A 
ATOM     16  N   UNL     1       3.187   6.492  18.182  0.00  0.00    +0.000 N 
ATOM     17  C   UNL     1       3.135   5.143  17.874  0.00  0.00    +0.000 A 
ATOM     18  N   UNL     1       4.093   4.750  17.066  0.00  0.00    +0.000 NA
ENDBRANCH   1  16
BRANCH  10  19
ATOM     19  C   UNL     1      -0.271  12.072  22.224  0.00  0.00    +0.000 C 
ATOM     20  C   UNL     1      -1.485  12.540  23.055  0.00  0.00    +0.000 C 
ATOM     21  C   UNL     1      -1.025  13.980  22.809  0.00  0.00    +0.000 C 
ATOM     22  C   UNL     1      -0.308  13.476  21.524  0.00  0.00    +0.000 C 
BRANCH  22  23
ATOM     23  O   UNL     1       1.001  14.029  21.232  0.00  0.00    +0.000 OA
BRANCH  23  24
ATOM     24  C   UNL     1       1.160  14.905  20.184  0.00  0.00    +0.000 A 
ATOM     25  C   UNL     1       0.138  15.633  19.587  0.00  0.00    +0.000 A 
ATOM     26  C   UNL     1       0.433  16.530  18.559  0.00  0.00    +0.000 A 
ATOM     27  C   UNL     1       1.742  16.672  18.087  0.00  0.00    +0.000 A 
ATOM     28 CL   UNL     1       1.991  17.817  16.815  0.00  0.00    +0.000 Cl
ATOM     29  C   UNL     1       2.790  15.906  18.632  0.00  0.00    +0.000 A 
ATOM     30  C   UNL     1       2.474  15.054  19.713  0.00  0.00    +0.000 A 
BRANCH  29  31
ATOM     31  C   UNL     1       4.207  15.980  18.069  0.00  0.00    +0.000 C 
ATOM     32  C   UNL     1       5.078  16.970  18.845  0.00  0.00    +0.000 C 
ATOM     33  C   UNL     1       4.913  14.620  17.976  0.00  0.00    +0.000 C 
ENDBRANCH  29  31
ENDBRANCH  23  24
ENDBRANCH  22  23
ENDBRANCH  10  19
TORSDOF 5
ENDMDL
MODEL 3
REMARK VINA RESULT:      -7.9      1.943      2.873
REMARK  Name = 
REMARK  8 active torsions:
REMARK  status: ('A' for Active; 'I' for Inactive)
REMARK    1  A    between atoms: C_1  and  C_2
REMARK    2  A    between atoms: N_4  and  C_5
REMARK    3  A    between atoms: N_14  and  C_15
REMARK    4  A    between atoms: C_18  and  O_19
REMARK    5  A    between atoms: O_19  and  C_20
REMARK    6  A    between atoms: C_25  and  C_26
REMARK    7  A    between atoms: C_26  and  C_27
REMARK    8  A    between atoms: C_26  and  C_28
REMARK                            x       y       z     vdW  Elec       q    Type
REMARK                         _______ _______ _______ _____ _____    ______ ____
ROOT
ATOM      1  C   UNL     1       1.079   9.116  20.174  0.00  0.00    +0.000 A 
ATOM      2  C   UNL     1       1.592   9.475  18.978  0.00  0.00    +0.000 A 
ATOM      3  C   UNL     1       2.406   8.597  18.175  0.00  0.00    +0.000 A 
ATOM      4  C   UNL     1       2.620   7.332  18.560  0.00  0.00    +0.000 A 
ATOM      5  N   UNL     1       2.049   6.859  19.730  0.00  0.00    +0.000 N 
ATOM      6  C   UNL     1       1.349   7.686  20.606  0.00  0.00    +0.000 A 
ATOM      7  O   UNL     1       0.960   7.262  21.695  0.00  0.00    +0.000 OA
ATOM      8  C   UNL     1       2.331   5.495  20.164  0.00  0.00    +0.000 C 
ATOM      9  C   UNL     1       2.714   4.596  19.001  0.00  0.00    +0.000 C 
ATOM     10  N   UNL     1       3.780   5.189  18.207  0.00  0.00    +0.000 N 
ATOM     11  C   UNL     1       3.619   6.509  17.778  0.00  0.00    +0.000 C 
ATOM     12  O   UNL     1       4.317   7.029  16.911  0.00  0.00    +0.000 OA
ENDROOT
BRANCH   1  16
ATOM     13  C   UNL     1      -2.248  12.490  21.832  0.00  0.00    +0.000 C 
ATOM     14  C   UNL     1      -1.152  11.507  21.699  0.00  0.00    +0.000 A 
ATOM     15  C   UNL     1      -0.663  10.887  20.572  0.00  0.00    +0.000 A 
ATOM     16  N   UNL     1       0.331  10.005  20.983  0.00  0.00    +0.000 N 
ATOM     17  C   UNL     1       0.404  10.210  22.351  0.00  0.00    +0.000 A 
ATOM     18  N   UNL     1      -0.467  11.086  22.799  0.00  0.00    +0.000 NA
ENDBRANCH   1  16
BRANCH  10  19
ATOM     19  C   UNL     1       5.161   4.627  18.305  0.00  0.00    +0.000 C 
ATOM     20  C   UNL     1       6.105   5.335  19.300  0.00  0.00    +0.000 C 
ATOM     21  C   UNL     1       7.251   5.051  18.325  0.00  0.00    +0.000 C 
ATOM     22  C   UNL     1       6.197   4.991  17.184  0.00  0.00    +0.000 C 
BRANCH  22  23
ATOM     23  O   UNL     1       6.366   3.963  16.174  0.00  0.00    +0.000 OA
BRANCH  23  24
ATOM     24  C   UNL     1       6.690   4.313  14.884  0.00  0.00    +0.000 A 
ATOM     25  C   UNL     1       7.569   5.327  14.526  0.00  0.00    +0.000 A 
ATOM     26  C   UNL     1       7.856   5.555  13.179  0.00  0.00    +0.000 A 
ATOM     27  C   UNL     1       7.230   4.805  12.178  0.00  0.00    +0.000 A 
ATOM     28 CL   UNL     1       7.666   5.170  10.544  0.00  0.00    +0.000 Cl
ATOM     29  C   UNL     1       6.291   3.809  12.506  0.00  0.00    +0.000 A 
ATOM     30  C   UNL     1       6.068   3.556  13.878  0.00  0.00    +0.000 A 
BRANCH  29  31
ATOM     31  C   UNL     1       5.530   3.044  11.426  0.00  0.00    +0.000 C 
ATOM     32  C   UNL     1       5.855   1.549  11.450  0.00  0.00    +0.000 C 
ATOM     33  C   UNL     1       4.010   3.251  11.468  0.00  0.00    +0.000 C 
ENDBRANCH  29  31
ENDBRANCH  23  24
ENDBRANCH  22  23
ENDBRANCH  10  19
TORSDOF 5
ENDMDL
MODEL 4
REMARK VINA RESULT:      -7.8      3.204      9.874
REMARK  Name = 
REMARK  8 active torsions:
REMARK  status: ('A' for Active; 'I' for Inactive)
REMARK    1  A    between atoms: C_1  and  C_2
REMARK    2  A    between atoms: N_4  and  C_5
REMARK    3  A    between atoms: N_14  and  C_15
REMARK    4  A    between atoms: C_18  and  O_19
REMARK    5  A    between atoms: O_19  and  C_20
REMARK    6  A    between atoms: C_25  and  C_26
REMARK    7  A    between atoms: C_26  and  C_27
REMARK    8  A    between atoms: C_26  and  C_28
REMARK                            x       y       z     vdW  Elec       q    Type
REMARK                         _______ _______ _______ _____ _____    ______ ____
ROOT
ATOM      1  C   UNL     1       3.865   6.149  18.205  0.00  0.00    +0.000 A 
ATOM      2  C   UNL     1       3.334   5.658  19.346  0.00  0.00    +0.000 A 
ATOM      3  C   UNL     1       2.401   6.396  20.160  0.00  0.00    +0.000 A 
ATOM      4  C   UNL     1       1.954   7.595  19.760  0.00  0.00    +0.000 A 
ATOM      5  N   UNL     1       2.380   8.125  18.554  0.00  0.00    +0.000 N 
ATOM      6  C   UNL     1       3.365   7.516  17.777  0.00  0.00    +0.000 A 
ATOM      7  O   UNL     1       3.808   8.075  16.774  0.00  0.00    +0.000 OA
ATOM      8  C   UNL     1       1.925   9.452  18.155  0.00  0.00    +0.000 C 
ATOM      9  C   UNL     1       0.602   9.819  18.805  0.00  0.00    +0.000 C 
ATOM     10  N   UNL     1       0.655   9.629  20.247  0.00  0.00    +0.000 N 
ATOM     11  C   UNL     1       1.117   8.401  20.728  0.00  0.00    +0.000 C 
ATOM     12  O   UNL     1       0.977   8.034  21.892  0.00  0.00    +0.000 OA
ENDROOT
BRANCH   1  16
ATOM     13  C   UNL     1       6.377   3.932  14.466  0.00  0.00    +0.000 C 
ATOM     14  C   UNL     1       5.925   4.460  15.771  0.00  0.00    +0.000 A 
ATOM     15  C   UNL     1       4.743   5.081  16.103  0.00  0.00    +0.000 A 
ATOM     16  N   UNL     1       4.827   5.441  17.444  0.00  0.00    +0.000 N 
ATOM     17  C   UNL     1       6.059   4.946  17.838  0.00  0.00    +0.000 A 
ATOM     18  N   UNL     1       6.730   4.370  16.866  0.00  0.00    +0.000 NA
ENDBRANCH   1  16
BRANCH  10  19
ATOM     19  C   UNL     1       0.730  10.826  21.138  0.00  0.00    +0.000 C 
ATOM     20  C   UNL     1      -0.594  11.242  21.815  0.00  0.00    +0.000 C 
ATOM     21  C   UNL     1      -0.144  12.698  21.670  0.00  0.00    +0.000 C 
ATOM     22  C   UNL     1       0.748  12.249  20.477  0.00  0.00    +0.000 C 
BRANCH  22  23
ATOM     23  O   UNL     1       2.068  12.840  20.373  0.00  0.00    +0.000 OA
BRANCH  23  24
ATOM     24  C   UNL     1       2.289  13.884  19.505  0.00  0.00    +0.000 A 
ATOM     25  C   UNL     1       3.319  13.948  18.575  0.00  0.00    +0.000 A 
ATOM     26  C   UNL     1       3.410  15.042  17.713  0.00  0.00    +0.000 A 
ATOM     27  C   UNL     1       2.503  16.102  17.805  0.00  0.00    +0.000 A 
ATOM     28 CL   UNL     1       2.708  17.402  16.683  0.00  0.00    +0.000 Cl
ATOM     29  C   UNL     1       1.483  16.094  18.776  0.00  0.00    +0.000 A 
ATOM     30  C   UNL     1       1.376  14.946  19.592  0.00  0.00    +0.000 A 
BRANCH  29  31
ATOM     31  C   UNL     1       0.542  17.283  18.952  0.00  0.00    +0.000 C 
ATOM     32  C   UNL     1      -0.661  17.202  18.010  0.00  0.00    +0.000 C 
ATOM     33  C   UNL     1       0.065  17.492  20.396  0.00  0.00    +0.000 C 
ENDBRANCH  29  31
ENDBRANCH  23  24
ENDBRANCH  22  23
ENDBRANCH  10  19
TORSDOF 5
ENDMDL
MODEL 5
REMARK VINA RESULT:      -7.7      3.972      9.554
REMARK  Name = 
REMARK  8 active torsions:
REMARK  status: ('A' for Active; 'I' for Inactive)
REMARK    1  A    between atoms: C_1  and  C_2
REMARK    2  A    between atoms: N_4  and  C_5
REMARK    3  A    between atoms: N_14  and  C_15
REMARK    4  A    between atoms: C_18  and  O_19
REMARK    5  A    between atoms: O_19  and  C_20
REMARK    6  A    between atoms: C_25  and  C_26
REMARK    7  A    between atoms: C_26  and  C_27
REMARK    8  A    between atoms: C_26  and  C_28
REMARK                            x       y       z     vdW  Elec       q    Type
REMARK                         _______ _______ _______ _____ _____    ______ ____
ROOT
ATOM      1  C   UNL     1       2.225   7.606  19.129  0.00  0.00    +0.000 A 
ATOM      2  C   UNL     1       1.940   7.324  20.418  0.00  0.00    +0.000 A 
ATOM      3  C   UNL     1       1.228   8.231  21.283  0.00  0.00    +0.000 A 
ATOM      4  C   UNL     1       0.740   9.382  20.802  0.00  0.00    +0.000 A 
ATOM      5  N   UNL     1       0.908   9.700  19.465  0.00  0.00    +0.000 N 
ATOM      6  C   UNL     1       1.682   8.923  18.605  0.00  0.00    +0.000 A 
ATOM      7  O   UNL     1       1.912   9.299  17.455  0.00  0.00    +0.000 OA
ATOM      8  C   UNL     1       0.415  10.979  18.966  0.00  0.00    +0.000 C 
ATOM      9  C   UNL     1      -0.724  11.520  19.813  0.00  0.00    +0.000 C 
ATOM     10  N   UNL     1      -0.363  11.543  21.223  0.00  0.00    +0.000 N 
ATOM     11  C   UNL     1       0.157  10.373  21.784  0.00  0.00    +0.000 C 
ATOM     12  O   UNL     1       0.262  10.192  22.995  0.00  0.00    +0.000 OA
ENDROOT
BRANCH   1  16
ATOM     13  C   UNL     1       5.693   5.662  16.063  0.00  0.00    +0.000 C 
ATOM     14  C   UNL     1       4.525   5.892  16.939  0.00  0.00    +0.000 A 
ATOM     15  C   UNL     1       4.084   7.056  17.526  0.00  0.00    +0.000 A 
ATOM     16  N   UNL     1       2.977   6.735  18.304  0.00  0.00    +0.000 N 
ATOM     17  C   UNL     1       2.799   5.380  18.075  0.00  0.00    +0.000 A 
ATOM     18  N   UNL     1       3.706   4.858  17.280  0.00  0.00    +0.000 NA
ENDBRANCH   1  16
BRANCH  10  19
ATOM     19  C   UNL     1      -0.063  12.852  21.878  0.00  0.00    +0.000 C 
ATOM     20  C   UNL     1      -1.191  13.904  21.825  0.00  0.00    +0.000 C 
ATOM     21  C   UNL     1      -0.107  14.977  21.697  0.00  0.00    +0.000 C 
ATOM     22  C   UNL     1       0.830  13.886  21.105  0.00  0.00    +0.000 C 
BRANCH  22  23
ATOM     23  O   UNL     1       2.219  13.902  21.524  0.00  0.00    +0.000 OA
BRANCH  23  24
ATOM     24  C   UNL     1       3.208  14.204  20.617  0.00  0.00    +0.000 A 
ATOM     25  C   UNL     1       3.096  14.080  19.238  0.00  0.00    +0.000 A 
ATOM     26  C   UNL     1       4.155  14.467  18.417  0.00  0.00    +0.000 A 
ATOM     27  C   UNL     1       5.353  14.935  18.968  0.00  0.00    +0.000 A 
ATOM     28 CL   UNL     1       6.596  15.391  17.854  0.00  0.00    +0.000 Cl
ATOM     29  C   UNL     1       5.519  15.018  20.363  0.00  0.00    +0.000 A 
ATOM     30  C   UNL     1       4.409  14.681  21.168  0.00  0.00    +0.000 A 
BRANCH  29  31
ATOM     31  C   UNL     1       6.849  15.438  20.984  0.00  0.00    +0.000 C 
ATOM     32  C   UNL     1       6.656  16.103  22.348  0.00  0.00    +0.000 C 
ATOM     33  C   UNL     1       7.873  14.301  21.094  0.00  0.00    +0.000 C 
ENDBRANCH  29  31
ENDBRANCH  23  24
ENDBRANCH  22  23
ENDBRANCH  10  19
TORSDOF 5
ENDMDL
MODEL 6
REMARK VINA RESULT:      -7.7      1.009      2.408
REMARK  Name = 
REMARK  8 active torsions:
REMARK  status: ('A' for Active; 'I' for Inactive)
REMARK    1  A    between atoms: C_1  and  C_2
REMARK    2  A    between atoms: N_4  and  C_5
REMARK    3  A    between atoms: N_14  and  C_15
REMARK    4  A    between atoms: C_18  and  O_19
REMARK    5  A    between atoms: O_19  and  C_20
REMARK    6  A    between atoms: C_25  and  C_26
REMARK    7  A    between atoms: C_26  and  C_27
REMARK    8  A    between atoms: C_26  and  C_28
REMARK                            x       y       z     vdW  Elec       q    Type
REMARK                         _______ _______ _______ _____ _____    ______ ____
ROOT
ATOM      1  C   UNL     1       0.657   9.966  19.800  0.00  0.00    +0.000 A 
ATOM      2  C   UNL     1       0.459   9.265  20.937  0.00  0.00    +0.000 A 
ATOM      3  C   UNL     1       0.966   7.930  21.136  0.00  0.00    +0.000 A 
ATOM      4  C   UNL     1       1.740   7.354  20.207  0.00  0.00    +0.000 A 
ATOM      5  N   UNL     1       2.067   8.046  19.053  0.00  0.00    +0.000 N 
ATOM      6  C   UNL     1       1.519   9.291  18.748  0.00  0.00    +0.000 A 
ATOM      7  O   UNL     1       1.735   9.823  17.659  0.00  0.00    +0.000 OA
ATOM      8  C   UNL     1       2.869   7.389  18.027  0.00  0.00    +0.000 C 
ATOM      9  C   UNL     1       3.729   6.277  18.603  0.00  0.00    +0.000 C 
ATOM     10  N   UNL     1       2.931   5.356  19.400  0.00  0.00    +0.000 N 
ATOM     11  C   UNL     1       2.099   5.896  20.384  0.00  0.00    +0.000 C 
ATOM     12  O   UNL     1       1.576   5.225  21.271  0.00  0.00    +0.000 OA
ENDROOT
BRANCH   1  16
ATOM     13  C   UNL     1       0.048  14.852  18.820  0.00  0.00    +0.000 C 
ATOM     14  C   UNL     1      -0.144  13.425  19.155  0.00  0.00    +0.000 A 
ATOM     15  C   UNL     1       0.795  12.440  19.360  0.00  0.00    +0.000 A 
ATOM     16  N   UNL     1       0.105  11.254  19.589  0.00  0.00    +0.000 N 
ATOM     17  C   UNL     1      -1.225  11.638  19.560  0.00  0.00    +0.000 A 
ATOM     18  N   UNL     1      -1.398  12.913  19.296  0.00  0.00    +0.000 NA
ENDBRANCH   1  16
BRANCH  10  19
ATOM     19  C   UNL     1       2.616   4.002  18.853  0.00  0.00    +0.000 C 
ATOM     20  C   UNL     1       2.503   2.867  19.894  0.00  0.00    +0.000 C 
ATOM     21  C   UNL     1       3.119   1.929  18.853  0.00  0.00    +0.000 C 
ATOM     22  C   UNL     1       3.776   3.175  18.193  0.00  0.00    +0.000 C 
BRANCH  22  23
ATOM     23  O   UNL     1       3.794   3.230  16.744  0.00  0.00    +0.000 OA
BRANCH  23  24
ATOM     24  C   UNL     1       4.872   3.779  16.090  0.00  0.00    +0.000 A 
ATOM     25  C   UNL     1       5.239   3.503  14.779  0.00  0.00    +0.000 A 
ATOM     26  C   UNL     1       6.329   4.164  14.208  0.00  0.00    +0.000 A 
ATOM     27  C   UNL     1       7.089   5.068  14.958  0.00  0.00    +0.000 A 
ATOM     28 CL   UNL     1       8.412   5.831  14.147  0.00  0.00    +0.000 Cl
ATOM     29  C   UNL     1       6.778   5.325  16.306  0.00  0.00    +0.000 A 
ATOM     30  C   UNL     1       5.633   4.692  16.838  0.00  0.00    +0.000 A 
BRANCH  29  31
ATOM     31  C   UNL     1       7.650   6.237  17.166  0.00  0.00    +0.000 C 
ATOM     32  C   UNL     1       7.138   7.679  17.167  0.00  0.00    +0.000 C 
ATOM     33  C   UNL     1       7.837   5.745  18.607  0.00  0.00    +0.000 C 
ENDBRANCH  29  31
ENDBRANCH  23  24
ENDBRANCH  22  23
ENDBRANCH  10  19
TORSDOF 5
ENDMDL
MODEL 7
REMARK VINA RESULT:      -7.7      4.138     10.254
REMARK  Name = 
REMARK  8 active torsions:
REMARK  status: ('A' for Active; 'I' for Inactive)
REMARK    1  A    between atoms: C_1  and  C_2
REMARK    2  A    between atoms: N_4  and  C_5
REMARK    3  A    between atoms: N_14  and  C_15
REMARK    4  A    between atoms: C_18  and  O_19
REMARK    5  A    between atoms: O_19  and  C_20
REMARK    6  A    between atoms: C_25  and  C_26
REMARK    7  A    between atoms: C_26  and  C_27
REMARK    8  A    between atoms: C_26  and  C_28
REMARK                            x       y       z     vdW  Elec       q    Type
REMARK                         _______ _______ _______ _____ _____    ______ ____
ROOT
ATOM      1  C   UNL     1       3.029   6.152  18.972  0.00  0.00    +0.000 A 
ATOM      2  C   UNL     1       3.287   7.028  17.978  0.00  0.00    +0.000 A 
ATOM      3  C   UNL     1       2.705   8.346  17.920  0.00  0.00    +0.000 A 
ATOM      4  C   UNL     1       1.931   8.788  18.919  0.00  0.00    +0.000 A 
ATOM      5  N   UNL     1       1.696   7.983  20.021  0.00  0.00    +0.000 N 
ATOM      6  C   UNL     1       2.134   6.661  20.087  0.00  0.00    +0.000 A 
ATOM      7  O   UNL     1       1.803   5.936  21.025  0.00  0.00    +0.000 OA
ATOM      8  C   UNL     1       0.811   8.458  21.079  0.00  0.00    +0.000 C 
ATOM      9  C   UNL     1       0.745   9.975  21.127  0.00  0.00    +0.000 C 
ATOM     10  N   UNL     1       0.437  10.528  19.816  0.00  0.00    +0.000 N 
ATOM     11  C   UNL     1       1.207  10.102  18.730  0.00  0.00    +0.000 C 
ATOM     12  O   UNL     1       1.212  10.669  17.640  0.00  0.00    +0.000 OA
ENDROOT
BRANCH   1  16
ATOM     13  C   UNL     1       3.682   1.207  18.404  0.00  0.00    +0.000 C 
ATOM     14  C   UNL     1       3.827   2.641  18.732  0.00  0.00    +0.000 A 
ATOM     15  C   UNL     1       2.919   3.666  18.598  0.00  0.00    +0.000 A 
ATOM     16  N   UNL     1       3.558   4.838  18.990  0.00  0.00    +0.000 N 
ATOM     17  C   UNL     1       4.811   4.408  19.393  0.00  0.00    +0.000 A 
ATOM     18  N   UNL     1       4.998   3.116  19.242  0.00  0.00    +0.000 NA
ENDBRANCH   1  16
BRANCH  10  19
ATOM     19  C   UNL     1      -0.926  11.083  19.560  0.00  0.00    +0.000 C 
ATOM     20  C   UNL     1      -1.739  10.380  18.452  0.00  0.00    +0.000 C 
ATOM     21  C   UNL     1      -2.322  11.749  18.092  0.00  0.00    +0.000 C 
ATOM     22  C   UNL     1      -1.050  12.396  18.710  0.00  0.00    +0.000 C 
BRANCH  22  23
ATOM     23  O   UNL     1      -1.231  13.600  19.499  0.00  0.00    +0.000 OA
BRANCH  23  24
ATOM     24  C   UNL     1      -0.147  14.385  19.815  0.00  0.00    +0.000 A 
ATOM     25  C   UNL     1       0.635  14.248  20.955  0.00  0.00    +0.000 A 
ATOM     26  C   UNL     1       1.743  15.076  21.141  0.00  0.00    +0.000 A 
ATOM     27  C   UNL     1       2.049  16.079  20.216  0.00  0.00    +0.000 A 
ATOM     28 CL   UNL     1       3.447  17.042  20.546  0.00  0.00    +0.000 Cl
ATOM     29  C   UNL     1       1.242  16.282  19.081  0.00  0.00    +0.000 A 
ATOM     30  C   UNL     1       0.166  15.389  18.884  0.00  0.00    +0.000 A 
BRANCH  29  31
ATOM     31  C   UNL     1       1.506  17.429  18.109  0.00  0.00    +0.000 C 
ATOM     32  C   UNL     1       2.579  17.068  17.079  0.00  0.00    +0.000 C 
ATOM     33  C   UNL     1       0.249  17.947  17.397  0.00  0.00    +0.000 C 
ENDBRANCH  29  31
ENDBRANCH  23  24
ENDBRANCH  22  23
ENDBRANCH  10  19
TORSDOF 5
ENDMDL
MODEL 8
REMARK VINA RESULT:      -7.6      3.360     10.065
REMARK  Name = 
REMARK  8 active torsions:
REMARK  status: ('A' for Active; 'I' for Inactive)
REMARK    1  A    between atoms: C_1  and  C_2
REMARK    2  A    between atoms: N_4  and  C_5
REMARK    3  A    between atoms: N_14  and  C_15
REMARK    4  A    between atoms: C_18  and  O_19
REMARK    5  A    between atoms: O_19  and  C_20
REMARK    6  A    between atoms: C_25  and  C_26
REMARK    7  A    between atoms: C_26  and  C_27
REMARK    8  A    between atoms: C_26  and  C_28
REMARK                            x       y       z     vdW  Elec       q    Type
REMARK                         _______ _______ _______ _____ _____    ______ ____
ROOT
ATOM      1  C   UNL     1       2.935   6.352  19.228  0.00  0.00    +0.000 A 
ATOM      2  C   UNL     1       2.251   5.899  20.300  0.00  0.00    +0.000 A 
ATOM      3  C   UNL     1       1.304   6.706  21.028  0.00  0.00    +0.000 A 
ATOM      4  C   UNL     1       1.001   7.941  20.605  0.00  0.00    +0.000 A 
ATOM      5  N   UNL     1       1.590   8.443  19.457  0.00  0.00    +0.000 N 
ATOM      6  C   UNL     1       2.595   7.760  18.774  0.00  0.00    +0.000 A 
ATOM      7  O   UNL     1       3.182   8.288  17.830  0.00  0.00    +0.000 OA
ATOM      8  C   UNL     1       1.289   9.806  19.036  0.00  0.00    +0.000 C 
ATOM      9  C   UNL     1      -0.059  10.278  19.555  0.00  0.00    +0.000 C 
ATOM     10  N   UNL     1      -0.169  10.073  20.992  0.00  0.00    +0.000 N 
ATOM     11  C   UNL     1       0.139   8.806  21.496  0.00  0.00    +0.000 C 
ATOM     12  O   UNL     1      -0.149   8.443  22.634  0.00  0.00    +0.000 OA
ENDROOT
BRANCH   1  16
ATOM     13  C   UNL     1       5.437   3.659  15.809  0.00  0.00    +0.000 C 
ATOM     14  C   UNL     1       5.001   4.376  17.026  0.00  0.00    +0.000 A 
ATOM     15  C   UNL     1       3.799   4.989  17.298  0.00  0.00    +0.000 A 
ATOM     16  N   UNL     1       3.908   5.573  18.555  0.00  0.00    +0.000 N 
ATOM     17  C   UNL     1       5.176   5.209  18.975  0.00  0.00    +0.000 A 
ATOM     18  N   UNL     1       5.845   4.510  18.086  0.00  0.00    +0.000 NA
ENDBRANCH   1  16
BRANCH  10  19
ATOM     19  C   UNL     1      -0.087  11.252  21.905  0.00  0.00    +0.000 C 
ATOM     20  C   UNL     1      -1.428  11.737  22.497  0.00  0.00    +0.000 C 
ATOM     21  C   UNL     1      -0.885  13.166  22.406  0.00  0.00    +0.000 C 
ATOM     22  C   UNL     1       0.060  12.680  21.270  0.00  0.00    +0.000 C 
BRANCH  22  23
ATOM     23  O   UNL     1       1.416  13.193  21.267  0.00  0.00    +0.000 OA
BRANCH  23  24
ATOM     24  C   UNL     1       1.837  14.021  20.253  0.00  0.00    +0.000 A 
ATOM     25  C   UNL     1       2.584  13.624  19.152  0.00  0.00    +0.000 A 
ATOM     26  C   UNL     1       2.909  14.551  18.161  0.00  0.00    +0.000 A 
ATOM     27  C   UNL     1       2.532  15.892  18.285  0.00  0.00    +0.000 A 
ATOM     28 CL   UNL     1       2.984  16.951  16.994  0.00  0.00    +0.000 Cl
ATOM     29  C   UNL     1       1.824  16.338  19.417  0.00  0.00    +0.000 A 
ATOM     30  C   UNL     1       1.453  15.367  20.373  0.00  0.00    +0.000 A 
BRANCH  29  31
ATOM     31  C   UNL     1       1.484  17.814  19.614  0.00  0.00    +0.000 C 
ATOM     32  C   UNL     1      -0.007  18.024  19.885  0.00  0.00    +0.000 C 
ATOM     33  C   UNL     1       2.317  18.506  20.701  0.00  0.00    +0.000 C 
ENDBRANCH  29  31
ENDBRANCH  23  24
ENDBRANCH  22  23
ENDBRANCH  10  19
TORSDOF 5
ENDMDL
MODEL 9
REMARK VINA RESULT:      -7.5      3.598      9.521
REMARK  Name = 
REMARK  8 active torsions:
REMARK  status: ('A' for Active; 'I' for Inactive)
REMARK    1  A    between atoms: C_1  and  C_2
REMARK    2  A    between atoms: N_4  and  C_5
REMARK    3  A    between atoms: N_14  and  C_15
REMARK    4  A    between atoms: C_18  and  O_19
REMARK    5  A    between atoms: O_19  and  C_20
REMARK    6  A    between atoms: C_25  and  C_26
REMARK    7  A    between atoms: C_26  and  C_27
REMARK    8  A    between atoms: C_26  and  C_28
REMARK                            x       y       z     vdW  Elec       q    Type
REMARK                         _______ _______ _______ _____ _____    ______ ____
ROOT
ATOM      1  C   UNL     1       2.684   6.751  19.037  0.00  0.00    +0.000 A 
ATOM      2  C   UNL     1       2.139   6.228  20.157  0.00  0.00    +0.000 A 
ATOM      3  C   UNL     1       1.243   6.965  21.013  0.00  0.00    +0.000 A 
ATOM      4  C   UNL     1       0.846   8.199  20.676  0.00  0.00    +0.000 A 
ATOM      5  N   UNL     1       1.287   8.769  19.493  0.00  0.00    +0.000 N 
ATOM      6  C   UNL     1       2.239   8.157  18.680  0.00  0.00    +0.000 A 
ATOM      7  O   UNL     1       2.700   8.745  17.701  0.00  0.00    +0.000 OA
ATOM      8  C   UNL     1       0.886  10.132  19.162  0.00  0.00    +0.000 C 
ATOM      9  C   UNL     1      -0.416  10.523  19.840  0.00  0.00    +0.000 C 
ATOM     10  N   UNL     1      -0.362  10.261  21.271  0.00  0.00    +0.000 N 
ATOM     11  C   UNL     1       0.050   8.992  21.688  0.00  0.00    +0.000 C 
ATOM     12  O   UNL     1      -0.099   8.575  22.834  0.00  0.00    +0.000 OA
ENDROOT
BRANCH   1  16
ATOM     13  C   UNL     1       6.846   5.204  16.696  0.00  0.00    +0.000 C 
ATOM     14  C   UNL     1       5.468   5.372  17.201  0.00  0.00    +0.000 A 
ATOM     15  C   UNL     1       4.937   6.372  17.984  0.00  0.00    +0.000 A 
ATOM     16  N   UNL     1       3.610   6.041  18.234  0.00  0.00    +0.000 N 
ATOM     17  C   UNL     1       3.425   4.870  17.519  0.00  0.00    +0.000 A 
ATOM     18  N   UNL     1       4.509   4.450  16.907  0.00  0.00    +0.000 NA
ENDBRANCH   1  16
BRANCH  10  19
ATOM     19  C   UNL     1      -0.230  11.409  22.218  0.00  0.00    +0.000 C 
ATOM     20  C   UNL     1      -1.534  11.856  22.914  0.00  0.00    +0.000 C 
ATOM     21  C   UNL     1      -1.012  13.294  22.838  0.00  0.00    +0.000 C 
ATOM     22  C   UNL     1      -0.141  12.860  21.625  0.00  0.00    +0.000 C 
BRANCH  22  23
ATOM     23  O   UNL     1       1.207  13.389  21.550  0.00  0.00    +0.000 OA
BRANCH  23  24
ATOM     24  C   UNL     1       1.576  14.183  20.489  0.00  0.00    +0.000 A 
ATOM     25  C   UNL     1       0.702  14.752  19.572  0.00  0.00    +0.000 A 
ATOM     26  C   UNL     1       1.195  15.581  18.564  0.00  0.00    +0.000 A 
ATOM     27  C   UNL     1       2.568  15.810  18.434  0.00  0.00    +0.000 A 
ATOM     28 CL   UNL     1       3.065  16.859  17.152  0.00  0.00    +0.000 Cl
ATOM     29  C   UNL     1       3.485  15.201  19.312  0.00  0.00    +0.000 A 
ATOM     30  C   UNL     1       2.955  14.419  20.361  0.00  0.00    +0.000 A 
BRANCH  29  31
ATOM     31  C   UNL     1       4.992  15.365  19.129  0.00  0.00    +0.000 C 
ATOM     32  C   UNL     1       5.479  14.738  17.821  0.00  0.00    +0.000 C 
ATOM     33  C   UNL     1       5.479  16.816  19.228  0.00  0.00    +0.000 C 
ENDBRANCH  29  31
ENDBRANCH  23  24
ENDBRANCH  22  23
ENDBRANCH  10  19
TORSDOF 5
ENDMDL
