MODEL 1
REMARK VINA RESULT:      -8.0      0.000      0.000
REMARK  Name = 
REMARK  9 active torsions:
REMARK  status: ('A' for Active; 'I' for Inactive)
REMARK    1  A    between atoms: N_1  and  S_2
REMARK    2  A    between atoms: S_2  and  C_5
REMARK    3  A    between atoms: C_5  and  C_6
REMARK    4  A    between atoms: C_6  and  C_7
REMARK    5  A    between atoms: C_7  and  C_8
REMARK    6  A    between atoms: N_10  and  C_11
REMARK    7  A    between atoms: C_11  and  C_12
REMARK    8  A    between atoms: C_12  and  C_13
REMARK    9  A    between atoms: C_13  and  N_14
REMARK                            x       y       z     vdW  Elec       q    Type
REMARK                         _______ _______ _______ _____ _____    ______ ____
ROOT
ATOM      1  N   UNL     1       4.100   4.808  17.591  0.00  0.00    +0.000 N 
ATOM      2  C   UNL     1       3.758   6.151  17.654  0.00  0.00    +0.000 A 
ATOM      3  O   UNL     1       4.176   6.998  16.867  0.00  0.00    +0.000 OA
ATOM      4  C   UNL     1       2.846   6.559  18.746  0.00  0.00    +0.000 A 
ATOM      5  C   UNL     1       2.492   7.916  18.857  0.00  0.00    +0.000 A 
ATOM      6  C   UNL     1       1.671   8.318  19.893  0.00  0.00    +0.000 A 
ATOM      7  F   UNL     1       1.337   9.606  20.012  0.00  0.00    +0.000 F 
ATOM      8  C   UNL     1       1.196   7.398  20.815  0.00  0.00    +0.000 A 
ATOM      9  C   UNL     1       1.542   6.044  20.697  0.00  0.00    +0.000 A 
ATOM     10  C   UNL     1       2.373   5.603  19.660  0.00  0.00    +0.000 A 
ATOM     11  N   UNL     1       2.772   4.264  19.471  0.00  0.00    +0.000 N 
ATOM     12  C   UNL     1       2.511   3.090  20.159  0.00  0.00    +0.000 A 
ATOM     13  S   UNL     1       1.633   2.728  21.517  0.00  0.00    +0.000 S 
ATOM     14  N   UNL     1       3.197   2.093  19.470  0.00  0.00    +0.000 N 
ATOM     15  N   UNL     1       3.875   2.619  18.417  0.00  0.00    +0.000 NA
ATOM     16  C   UNL     1       3.598   3.887  18.463  0.00  0.00    +0.000 A 
ATOM     17  H   UNL     1       3.238   1.107  19.702  0.00  0.00    +0.000 HD
ENDROOT
BRANCH   1  18
ATOM     18  C   UNL     1       5.054   4.388  16.566  0.00  0.00    +0.000 C 
BRANCH  18  19
ATOM     19  C   UNL     1       6.493   4.365  17.083  0.00  0.00    +0.000 C 
BRANCH  19  20
ATOM     20  C   UNL     1       7.412   5.123  16.128  0.00  0.00    +0.000 C 
BRANCH  20  23
ATOM     21  C   UNL     1       7.670   7.097  17.567  0.00  0.00    +0.000 C 
ATOM     22  O   UNL     1       8.011   6.430  18.530  0.00  0.00    +0.000 OA
ATOM     23  N   UNL     1       7.356   6.556  16.341  0.00  0.00    +0.000 N 
ATOM     24  H   UNL     1       7.083   7.152  15.568  0.00  0.00    +0.000 HD
BRANCH  21  25
ATOM     25  C   UNL     1       7.601   8.608  17.618  0.00  0.00    +0.000 C 
BRANCH  25  26
ATOM     26  C   UNL     1       8.615   9.166  18.611  0.00  0.00    +0.000 C 
BRANCH  26  27
ATOM     27  C   UNL     1       9.251  10.473  18.144  0.00  0.00    +0.000 C 
BRANCH  27  28
ATOM     28  S   UNL     1       9.883  11.393  19.547  0.00  0.00    +0.000 S 
ATOM     29  O   UNL     1      11.273  11.719  19.351  0.00  0.00    +0.000 OA
ATOM     30  O   UNL     1       9.388  10.790  20.763  0.00  0.00    +0.000 OA
BRANCH  28  31
ATOM     31  N   UNL     1       9.041  12.840  19.416  0.00  0.00    +0.000 NA
ATOM     32  H   UNL     1       8.600  13.038  20.319  0.00  0.00    +0.000 HD
ATOM     33  H   UNL     1       8.350  12.794  18.667  0.00  0.00    +0.000 HD
ENDBRANCH  28  31
ENDBRANCH  27  28
ENDBRANCH  26  27
ENDBRANCH  25  26
ENDBRANCH  21  25
ENDBRANCH  20  23
ENDBRANCH  19  20
ENDBRANCH  18  19
ENDBRANCH   1  18
TORSDOF 9
ENDMDL
MODEL 2
REMARK VINA RESULT:      -7.3      3.506      5.170
REMARK  Name = 
REMARK  9 active torsions:
REMARK  status: ('A' for Active; 'I' for Inactive)
REMARK    1  A    between atoms: N_1  and  S_2
REMARK    2  A    between atoms: S_2  and  C_5
REMARK    3  A    between atoms: C_5  and  C_6
REMARK    4  A    between atoms: C_6  and  C_7
REMARK    5  A    between atoms: C_7  and  C_8
REMARK    6  A    between atoms: N_10  and  C_11
REMARK    7  A    between atoms: C_11  and  C_12
REMARK    8  A    between atoms: C_12  and  C_13
REMARK    9  A    between atoms: C_13  and  N_14
REMARK                            x       y       z     vdW  Elec       q    Type
REMARK                         _______ _______ _______ _____ _____    ______ ____
ROOT
ATOM      1  N   UNL     1       6.836   5.816  17.782  0.00  0.00    +0.000 N 
ATOM      2  C   UNL     1       5.890   5.380  18.700  0.00  0.00    +0.000 A 
ATOM      3  O   UNL     1       5.900   5.693  19.889  0.00  0.00    +0.000 OA
ATOM      4  C   UNL     1       4.831   4.480  18.193  0.00  0.00    +0.000 A 
ATOM      5  C   UNL     1       3.866   3.999  19.096  0.00  0.00    +0.000 A 
ATOM      6  C   UNL     1       2.893   3.129  18.644  0.00  0.00    +0.000 A 
ATOM      7  F   UNL     1       1.976   2.659  19.497  0.00  0.00    +0.000 F 
ATOM      8  C   UNL     1       2.859   2.733  17.316  0.00  0.00    +0.000 A 
ATOM      9  C   UNL     1       3.817   3.221  16.415  0.00  0.00    +0.000 A 
ATOM     10  C   UNL     1       4.818   4.103  16.839  0.00  0.00    +0.000 A 
ATOM     11  N   UNL     1       5.819   4.638  16.002  0.00  0.00    +0.000 N 
ATOM     12  C   UNL     1       6.110   4.487  14.656  0.00  0.00    +0.000 A 
ATOM     13  S   UNL     1       5.431   3.604  13.428  0.00  0.00    +0.000 S 
ATOM     14  N   UNL     1       7.229   5.283  14.424  0.00  0.00    +0.000 N 
ATOM     15  N   UNL     1       7.635   5.883  15.573  0.00  0.00    +0.000 NA
ATOM     16  C   UNL     1       6.784   5.472  16.464  0.00  0.00    +0.000 A 
ATOM     17  H   UNL     1       7.722   5.404  13.547  0.00  0.00    +0.000 HD
ENDROOT
BRANCH   1  18
ATOM     18  C   UNL     1       7.934   6.649  18.269  0.00  0.00    +0.000 C 
BRANCH  18  19
ATOM     19  C   UNL     1       7.818   8.100  17.802  0.00  0.00    +0.000 C 
BRANCH  19  20
ATOM     20  C   UNL     1       8.617   9.019  18.723  0.00  0.00    +0.000 C 
BRANCH  20  23
ATOM     21  C   UNL     1       9.842  11.148  18.687  0.00  0.00    +0.000 C 
ATOM     22  O   UNL     1      10.021  11.141  19.894  0.00  0.00    +0.000 OA
ATOM     23  N   UNL     1       9.169  10.156  18.012  0.00  0.00    +0.000 N 
ATOM     24  H   UNL     1       9.050  10.204  17.006  0.00  0.00    +0.000 HD
BRANCH  21  25
ATOM     25  C   UNL     1      10.391  12.244  17.799  0.00  0.00    +0.000 C 
BRANCH  25  26
ATOM     26  C   UNL     1      10.521  13.555  18.568  0.00  0.00    +0.000 C 
BRANCH  26  27
ATOM     27  C   UNL     1       9.607  14.654  18.034  0.00  0.00    +0.000 C 
BRANCH  27  28
ATOM     28  S   UNL     1      10.562  16.115  17.627  0.00  0.00    +0.000 S 
ATOM     29  O   UNL     1      11.921  15.973  18.085  0.00  0.00    +0.000 OA
ATOM     30  O   UNL     1       9.765  17.288  17.905  0.00  0.00    +0.000 OA
BRANCH  28  31
ATOM     31  N   UNL     1      10.623  16.029  15.951  0.00  0.00    +0.000 NA
ATOM     32  H   UNL     1      10.782  16.974  15.587  0.00  0.00    +0.000 HD
ATOM     33  H   UNL     1       9.765  15.626  15.575  0.00  0.00    +0.000 HD
ENDBRANCH  28  31
ENDBRANCH  27  28
ENDBRANCH  26  27
ENDBRANCH  25  26
ENDBRANCH  21  25
ENDBRANCH  20  23
ENDBRANCH  19  20
ENDBRANCH  18  19
ENDBRANCH   1  18
TORSDOF 9
ENDMDL
MODEL 3
REMARK VINA RESULT:      -7.2      5.767      8.128
REMARK  Name = 
REMARK  9 active torsions:
REMARK  status: ('A' for Active; 'I' for Inactive)
REMARK    1  A    between atoms: N_1  and  S_2
REMARK    2  A    between atoms: S_2  and  C_5
REMARK    3  A    between atoms: C_5  and  C_6
REMARK    4  A    between atoms: C_6  and  C_7
REMARK    5  A    between atoms: C_7  and  C_8
REMARK    6  A    between atoms: N_10  and  C_11
REMARK    7  A    between atoms: C_11  and  C_12
REMARK    8  A    between atoms: C_12  and  C_13
REMARK    9  A    between atoms: C_13  and  N_14
REMARK                            x       y       z     vdW  Elec       q    Type
REMARK                         _______ _______ _______ _____ _____    ______ ____
ROOT
ATOM      1  N   UNL     1      -0.303  10.834  19.874  0.00  0.00    +0.000 N 
ATOM      2  C   UNL     1      -0.551  10.240  18.645  0.00  0.00    +0.000 A 
ATOM      3  O   UNL     1       0.243   9.493  18.076  0.00  0.00    +0.000 OA
ATOM      4  C   UNL     1      -1.847  10.550  18.001  0.00  0.00    +0.000 A 
ATOM      5  C   UNL     1      -2.128   9.985  16.744  0.00  0.00    +0.000 A 
ATOM      6  C   UNL     1      -3.318  10.296  16.114  0.00  0.00    +0.000 A 
ATOM      7  F   UNL     1      -3.590   9.771  14.915  0.00  0.00    +0.000 F 
ATOM      8  C   UNL     1      -4.231  11.151  16.711  0.00  0.00    +0.000 A 
ATOM      9  C   UNL     1      -3.953  11.705  17.968  0.00  0.00    +0.000 A 
ATOM     10  C   UNL     1      -2.757  11.414  18.634  0.00  0.00    +0.000 A 
ATOM     11  N   UNL     1      -2.398  11.931  19.896  0.00  0.00    +0.000 N 
ATOM     12  C   UNL     1      -3.026  12.789  20.783  0.00  0.00    +0.000 A 
ATOM     13  S   UNL     1      -4.467  13.608  20.760  0.00  0.00    +0.000 S 
ATOM     14  N   UNL     1      -2.156  12.912  21.864  0.00  0.00    +0.000 N 
ATOM     15  N   UNL     1      -1.027  12.187  21.654  0.00  0.00    +0.000 NA
ATOM     16  C   UNL     1      -1.215  11.637  20.492  0.00  0.00    +0.000 A 
ATOM     17  H   UNL     1      -2.291  13.475  22.696  0.00  0.00    +0.000 HD
ENDROOT
BRANCH   1  18
ATOM     18  C   UNL     1       0.998  10.602  20.500  0.00  0.00    +0.000 C 
BRANCH  18  19
ATOM     19  C   UNL     1       0.918   9.610  21.661  0.00  0.00    +0.000 C 
BRANCH  19  20
ATOM     20  C   UNL     1       1.050   8.179  21.147  0.00  0.00    +0.000 C 
BRANCH  20  23
ATOM     21  C   UNL     1       2.377   6.913  19.512  0.00  0.00    +0.000 C 
ATOM     22  O   UNL     1       2.228   5.860  20.109  0.00  0.00    +0.000 OA
ATOM     23  N   UNL     1       1.840   8.108  19.932  0.00  0.00    +0.000 N 
ATOM     24  H   UNL     1       1.987   8.957  19.398  0.00  0.00    +0.000 HD
BRANCH  21  25
ATOM     25  C   UNL     1       3.141   6.997  18.208  0.00  0.00    +0.000 C 
BRANCH  25  26
ATOM     26  C   UNL     1       4.187   5.890  18.116  0.00  0.00    +0.000 C 
BRANCH  26  27
ATOM     27  C   UNL     1       5.403   6.286  17.283  0.00  0.00    +0.000 C 
BRANCH  27  28
ATOM     28  S   UNL     1       6.426   4.852  16.957  0.00  0.00    +0.000 S 
ATOM     29  O   UNL     1       5.651   3.811  16.329  0.00  0.00    +0.000 OA
ATOM     30  O   UNL     1       7.272   4.609  18.103  0.00  0.00    +0.000 OA
BRANCH  28  31
ATOM     31  N   UNL     1       7.468   5.435  15.775  0.00  0.00    +0.000 NA
ATOM     32  H   UNL     1       8.317   4.861  15.785  0.00  0.00    +0.000 HD
ATOM     33  H   UNL     1       7.683   6.419  15.932  0.00  0.00    +0.000 HD
ENDBRANCH  28  31
ENDBRANCH  27  28
ENDBRANCH  26  27
ENDBRANCH  25  26
ENDBRANCH  21  25
ENDBRANCH  20  23
ENDBRANCH  19  20
ENDBRANCH  18  19
ENDBRANCH   1  18
TORSDOF 9
ENDMDL
MODEL 4
REMARK VINA RESULT:      -7.2      4.868      7.265
REMARK  Name = 
REMARK  9 active torsions:
REMARK  status: ('A' for Active; 'I' for Inactive)
REMARK    1  A    between atoms: N_1  and  S_2
REMARK    2  A    between atoms: S_2  and  C_5
REMARK    3  A    between atoms: C_5  and  C_6
REMARK    4  A    between atoms: C_6  and  C_7
REMARK    5  A    between atoms: C_7  and  C_8
REMARK    6  A    between atoms: N_10  and  C_11
REMARK    7  A    between atoms: C_11  and  C_12
REMARK    8  A    between atoms: C_12  and  C_13
REMARK    9  A    between atoms: C_13  and  N_14
REMARK                            x       y       z     vdW  Elec       q    Type
REMARK                         _______ _______ _______ _____ _____    ______ ____
ROOT
ATOM      1  N   UNL     1       2.789   7.158  18.907  0.00  0.00    +0.000 N 
ATOM      2  C   UNL     1       2.234   6.375  19.909  0.00  0.00    +0.000 A 
ATOM      3  O   UNL     1       1.473   6.811  20.772  0.00  0.00    +0.000 OA
ATOM      4  C   UNL     1       2.605   4.943  19.923  0.00  0.00    +0.000 A 
ATOM      5  C   UNL     1       2.080   4.120  20.937  0.00  0.00    +0.000 A 
ATOM      6  C   UNL     1       2.448   2.789  20.984  0.00  0.00    +0.000 A 
ATOM      7  F   UNL     1       1.962   2.001  21.948  0.00  0.00    +0.000 F 
ATOM      8  C   UNL     1       3.320   2.263  20.044  0.00  0.00    +0.000 A 
ATOM      9  C   UNL     1       3.834   3.082  19.029  0.00  0.00    +0.000 A 
ATOM     10  C   UNL     1       3.485   4.436  18.952  0.00  0.00    +0.000 A 
ATOM     11  N   UNL     1       3.958   5.329  17.969  0.00  0.00    +0.000 N 
ATOM     12  C   UNL     1       4.817   5.185  16.892  0.00  0.00    +0.000 A 
ATOM     13  S   UNL     1       5.687   3.913  16.280  0.00  0.00    +0.000 S 
ATOM     14  N   UNL     1       4.883   6.442  16.296  0.00  0.00    +0.000 N 
ATOM     15  N   UNL     1       4.124   7.337  16.981  0.00  0.00    +0.000 NA
ATOM     16  C   UNL     1       3.609   6.639  17.949  0.00  0.00    +0.000 A 
ATOM     17  H   UNL     1       5.430   6.707  15.484  0.00  0.00    +0.000 HD
ENDROOT
BRANCH   1  18
ATOM     18  C   UNL     1       2.496   8.590  18.911  0.00  0.00    +0.000 C 
BRANCH  18  19
ATOM     19  C   UNL     1       1.305   8.945  18.019  0.00  0.00    +0.000 C 
BRANCH  19  20
ATOM     20  C   UNL     1       1.242  10.453  17.794  0.00  0.00    +0.000 C 
BRANCH  20  23
ATOM     21  C   UNL     1      -0.858  11.059  18.916  0.00  0.00    +0.000 C 
ATOM     22  O   UNL     1      -1.540  10.436  18.118  0.00  0.00    +0.000 OA
ATOM     23  N   UNL     1       0.514  11.131  18.850  0.00  0.00    +0.000 N 
ATOM     24  H   UNL     1       1.037  11.657  19.540  0.00  0.00    +0.000 HD
BRANCH  21  25
ATOM     25  C   UNL     1      -1.465  11.785  20.097  0.00  0.00    +0.000 C 
BRANCH  25  26
ATOM     26  C   UNL     1      -0.502  11.803  21.279  0.00  0.00    +0.000 C 
BRANCH  26  27
ATOM     27  C   UNL     1      -1.045  11.066  22.501  0.00  0.00    +0.000 C 
BRANCH  27  28
ATOM     28  S   UNL     1      -0.105   9.567  22.790  0.00  0.00    +0.000 S 
ATOM     29  O   UNL     1      -0.832   8.416  22.317  0.00  0.00    +0.000 OA
ATOM     30  O   UNL     1       0.482   9.630  24.109  0.00  0.00    +0.000 OA
BRANCH  28  31
ATOM     31  N   UNL     1       1.189   9.765  21.738  0.00  0.00    +0.000 NA
ATOM     32  H   UNL     1       1.123  10.698  21.320  0.00  0.00    +0.000 HD
ATOM     33  H   UNL     1       1.193   9.037  21.023  0.00  0.00    +0.000 HD
ENDBRANCH  28  31
ENDBRANCH  27  28
ENDBRANCH  26  27
ENDBRANCH  25  26
ENDBRANCH  21  25
ENDBRANCH  20  23
ENDBRANCH  19  20
ENDBRANCH  18  19
ENDBRANCH   1  18
TORSDOF 9
ENDMDL
MODEL 5
REMARK VINA RESULT:      -7.1      1.174      1.328
REMARK  Name = 
REMARK  9 active torsions:
REMARK  status: ('A' for Active; 'I' for Inactive)
REMARK    1  A    between atoms: N_1  and  S_2
REMARK    2  A    between atoms: S_2  and  C_5
REMARK    3  A    between atoms: C_5  and  C_6
REMARK    4  A    between atoms: C_6  and  C_7
REMARK    5  A    between atoms: C_7  and  C_8
REMARK    6  A    between atoms: N_10  and  C_11
REMARK    7  A    between atoms: C_11  and  C_12
REMARK    8  A    between atoms: C_12  and  C_13
REMARK    9  A    between atoms: C_13  and  N_14
REMARK                            x       y       z     vdW  Elec       q    Type
REMARK                         _______ _______ _______ _____ _____    ______ ____
ROOT
ATOM      1  N   UNL     1       4.361   5.428  16.906  0.00  0.00    +0.000 N 
ATOM      2  C   UNL     1       3.902   6.630  17.428  0.00  0.00    +0.000 A 
ATOM      3  O   UNL     1       4.209   7.731  16.974  0.00  0.00    +0.000 OA
ATOM      4  C   UNL     1       3.006   6.551  18.602  0.00  0.00    +0.000 A 
ATOM      5  C   UNL     1       2.537   7.748  19.174  0.00  0.00    +0.000 A 
ATOM      6  C   UNL     1       1.729   7.691  20.293  0.00  0.00    +0.000 A 
ATOM      7  F   UNL     1       1.285   8.823  20.849  0.00  0.00    +0.000 F 
ATOM      8  C   UNL     1       1.378   6.471  20.850  0.00  0.00    +0.000 A 
ATOM      9  C   UNL     1       1.839   5.279  20.273  0.00  0.00    +0.000 A 
ATOM     10  C   UNL     1       2.660   5.300  19.140  0.00  0.00    +0.000 A 
ATOM     11  N   UNL     1       3.170   4.151  18.501  0.00  0.00    +0.000 N 
ATOM     12  C   UNL     1       3.046   2.794  18.749  0.00  0.00    +0.000 A 
ATOM     13  S   UNL     1       2.263   1.907  19.911  0.00  0.00    +0.000 S 
ATOM     14  N   UNL     1       3.788   2.162  17.754  0.00  0.00    +0.000 N 
ATOM     15  N   UNL     1       4.370   3.078  16.937  0.00  0.00    +0.000 NA
ATOM     16  C   UNL     1       3.982   4.222  17.417  0.00  0.00    +0.000 A 
ATOM     17  H   UNL     1       3.927   1.165  17.635  0.00  0.00    +0.000 HD
ENDROOT
BRANCH   1  18
ATOM     18  C   UNL     1       5.304   5.478  15.790  0.00  0.00    +0.000 C 
BRANCH  18  19
ATOM     19  C   UNL     1       6.652   4.846  16.137  0.00  0.00    +0.000 C 
BRANCH  19  20
ATOM     20  C   UNL     1       7.287   5.567  17.324  0.00  0.00    +0.000 C 
BRANCH  20  23
ATOM     21  C   UNL     1       8.033   7.806  18.007  0.00  0.00    +0.000 C 
ATOM     22  O   UNL     1       8.558   7.391  19.027  0.00  0.00    +0.000 OA
ATOM     23  N   UNL     1       7.385   6.997  17.102  0.00  0.00    +0.000 N 
ATOM     24  H   UNL     1       6.968   7.389  16.265  0.00  0.00    +0.000 HD
BRANCH  21  25
ATOM     25  C   UNL     1       8.084   9.267  17.613  0.00  0.00    +0.000 C 
BRANCH  25  26
ATOM     26  C   UNL     1       8.963  10.060  18.574  0.00  0.00    +0.000 C 
BRANCH  26  27
ATOM     27  C   UNL     1       8.960  11.559  18.287  0.00  0.00    +0.000 C 
BRANCH  27  28
ATOM     28  S   UNL     1      10.638  12.189  18.253  0.00  0.00    +0.000 S 
ATOM     29  O   UNL     1      10.980  12.643  16.929  0.00  0.00    +0.000 OA
ATOM     30  O   UNL     1      11.486  11.302  19.017  0.00  0.00    +0.000 OA
BRANCH  28  31
ATOM     31  N   UNL     1      10.504  13.570  19.200  0.00  0.00    +0.000 NA
ATOM     32  H   UNL     1      10.507  13.286  20.184  0.00  0.00    +0.000 HD
ATOM     33  H   UNL     1       9.659  14.092  18.966  0.00  0.00    +0.000 HD
ENDBRANCH  28  31
ENDBRANCH  27  28
ENDBRANCH  26  27
ENDBRANCH  25  26
ENDBRANCH  21  25
ENDBRANCH  20  23
ENDBRANCH  19  20
ENDBRANCH  18  19
ENDBRANCH   1  18
TORSDOF 9
ENDMDL
MODEL 6
REMARK VINA RESULT:      -7.1      1.149      1.346
REMARK  Name = 
REMARK  9 active torsions:
REMARK  status: ('A' for Active; 'I' for Inactive)
REMARK    1  A    between atoms: N_1  and  S_2
REMARK    2  A    between atoms: S_2  and  C_5
REMARK    3  A    between atoms: C_5  and  C_6
REMARK    4  A    between atoms: C_6  and  C_7
REMARK    5  A    between atoms: C_7  and  C_8
REMARK    6  A    between atoms: N_10  and  C_11
REMARK    7  A    between atoms: C_11  and  C_12
REMARK    8  A    between atoms: C_12  and  C_13
REMARK    9  A    between atoms: C_13  and  N_14
REMARK                            x       y       z     vdW  Elec       q    Type
REMARK                         _______ _______ _______ _____ _____    ______ ____
ROOT
ATOM      1  N   UNL     1       4.343   4.993  17.762  0.00  0.00    +0.000 N 
ATOM      2  C   UNL     1       3.875   6.299  17.719  0.00  0.00    +0.000 A 
ATOM      3  O   UNL     1       4.229   7.122  16.877  0.00  0.00    +0.000 OA
ATOM      4  C   UNL     1       2.906   6.697  18.763  0.00  0.00    +0.000 A 
ATOM      5  C   UNL     1       2.424   8.019  18.767  0.00  0.00    +0.000 A 
ATOM      6  C   UNL     1       1.547   8.415  19.758  0.00  0.00    +0.000 A 
ATOM      7  F   UNL     1       1.090   9.672  19.776  0.00  0.00    +0.000 F 
ATOM      8  C   UNL     1       1.140   7.524  20.740  0.00  0.00    +0.000 A 
ATOM      9  C   UNL     1       1.614   6.205  20.728  0.00  0.00    +0.000 A 
ATOM     10  C   UNL     1       2.505   5.770  19.739  0.00  0.00    +0.000 A 
ATOM     11  N   UNL     1       3.032   4.464  19.658  0.00  0.00    +0.000 N 
ATOM     12  C   UNL     1       2.868   3.325  20.428  0.00  0.00    +0.000 A 
ATOM     13  S   UNL     1       1.998   2.982  21.797  0.00  0.00    +0.000 S 
ATOM     14  N   UNL     1       3.659   2.350  19.825  0.00  0.00    +0.000 N 
ATOM     15  N   UNL     1       4.307   2.859  18.746  0.00  0.00    +0.000 NA
ATOM     16  C   UNL     1       3.911   4.095  18.693  0.00  0.00    +0.000 A 
ATOM     17  H   UNL     1       3.787   1.392  20.132  0.00  0.00    +0.000 HD
ENDROOT
BRANCH   1  18
ATOM     18  C   UNL     1       5.354   4.592  16.785  0.00  0.00    +0.000 C 
BRANCH  18  19
ATOM     19  C   UNL     1       6.036   5.791  16.125  0.00  0.00    +0.000 C 
BRANCH  19  20
ATOM     20  C   UNL     1       7.226   6.252  16.963  0.00  0.00    +0.000 C 
BRANCH  20  23
ATOM     21  C   UNL     1       8.079   8.341  17.935  0.00  0.00    +0.000 C 
ATOM     22  O   UNL     1       8.608   7.765  18.872  0.00  0.00    +0.000 OA
ATOM     23  N   UNL     1       7.380   7.694  16.943  0.00  0.00    +0.000 N 
ATOM     24  H   UNL     1       6.962   8.216  16.181  0.00  0.00    +0.000 HD
BRANCH  21  25
ATOM     25  C   UNL     1       8.183   9.839  17.750  0.00  0.00    +0.000 C 
BRANCH  25  26
ATOM     26  C   UNL     1       9.260  10.427  18.656  0.00  0.00    +0.000 C 
BRANCH  26  27
ATOM     27  C   UNL     1       9.519  11.908  18.393  0.00  0.00    +0.000 C 
BRANCH  27  28
ATOM     28  S   UNL     1      11.235  12.308  18.720  0.00  0.00    +0.000 S 
ATOM     29  O   UNL     1      11.834  11.306  19.565  0.00  0.00    +0.000 OA
ATOM     30  O   UNL     1      11.343  13.723  18.992  0.00  0.00    +0.000 OA
BRANCH  28  31
ATOM     31  N   UNL     1      11.928  12.112  17.202  0.00  0.00    +0.000 NA
ATOM     32  H   UNL     1      11.185  11.872  16.539  0.00  0.00    +0.000 HD
ATOM     33  H   UNL     1      12.653  11.395  17.222  0.00  0.00    +0.000 HD
ENDBRANCH  28  31
ENDBRANCH  27  28
ENDBRANCH  26  27
ENDBRANCH  25  26
ENDBRANCH  21  25
ENDBRANCH  20  23
ENDBRANCH  19  20
ENDBRANCH  18  19
ENDBRANCH   1  18
TORSDOF 9
ENDMDL
MODEL 7
REMARK VINA RESULT:      -7.1      5.058      7.258
REMARK  Name = 
REMARK  9 active torsions:
REMARK  status: ('A' for Active; 'I' for Inactive)
REMARK    1  A    between atoms: N_1  and  S_2
REMARK    2  A    between atoms: S_2  and  C_5
REMARK    3  A    between atoms: C_5  and  C_6
REMARK    4  A    between atoms: C_6  and  C_7
REMARK    5  A    between atoms: C_7  and  C_8
REMARK    6  A    between atoms: N_10  and  C_11
REMARK    7  A    between atoms: C_11  and  C_12
REMARK    8  A    between atoms: C_12  and  C_13
REMARK    9  A    between atoms: C_13  and  N_14
REMARK                            x       y       z     vdW  Elec       q    Type
REMARK                         _______ _______ _______ _____ _____    ______ ____
ROOT
ATOM      1  N   UNL     1       0.636   9.678  20.976  0.00  0.00    +0.000 N 
ATOM      2  C   UNL     1       0.129  10.233  22.143  0.00  0.00    +0.000 A 
ATOM      3  O   UNL     1       0.573   9.986  23.263  0.00  0.00    +0.000 OA
ATOM      4  C   UNL     1      -1.015  11.160  22.001  0.00  0.00    +0.000 A 
ATOM      5  C   UNL     1      -1.571  11.727  23.162  0.00  0.00    +0.000 A 
ATOM      6  C   UNL     1      -2.663  12.566  23.048  0.00  0.00    +0.000 A 
ATOM      7  F   UNL     1      -3.204  13.103  24.147  0.00  0.00    +0.000 F 
ATOM      8  C   UNL     1      -3.207  12.853  21.806  0.00  0.00    +0.000 A 
ATOM      9  C   UNL     1      -2.645  12.294  20.649  0.00  0.00    +0.000 A 
ATOM     10  C   UNL     1      -1.539  11.439  20.728  0.00  0.00    +0.000 A 
ATOM     11  N   UNL     1      -0.917  10.833  19.617  0.00  0.00    +0.000 N 
ATOM     12  C   UNL     1      -1.161  10.874  18.254  0.00  0.00    +0.000 A 
ATOM     13  S   UNL     1      -2.295  11.633  17.315  0.00  0.00    +0.000 S 
ATOM     14  N   UNL     1      -0.190  10.058  17.677  0.00  0.00    +0.000 N 
ATOM     15  N   UNL     1       0.606   9.512  18.632  0.00  0.00    +0.000 NA
ATOM     16  C   UNL     1       0.139   9.992  19.746  0.00  0.00    +0.000 A 
ATOM     17  H   UNL     1      -0.076   9.848  16.691  0.00  0.00    +0.000 HD
ENDROOT
BRANCH   1  18
ATOM     18  C   UNL     1       1.720   8.704  21.092  0.00  0.00    +0.000 C 
BRANCH  18  19
ATOM     19  C   UNL     1       1.211   7.302  21.429  0.00  0.00    +0.000 C 
BRANCH  19  20
ATOM     20  C   UNL     1       1.465   6.350  20.263  0.00  0.00    +0.000 C 
BRANCH  20  23
ATOM     21  C   UNL     1       3.564   5.274  19.577  0.00  0.00    +0.000 C 
ATOM     22  O   UNL     1       3.124   4.151  19.760  0.00  0.00    +0.000 OA
ATOM     23  N   UNL     1       2.835   6.421  19.791  0.00  0.00    +0.000 N 
ATOM     24  H   UNL     1       3.243   7.333  19.620  0.00  0.00    +0.000 HD
BRANCH  21  25
ATOM     25  C   UNL     1       4.962   5.514  19.048  0.00  0.00    +0.000 C 
BRANCH  25  26
ATOM     26  C   UNL     1       4.919   6.120  17.649  0.00  0.00    +0.000 C 
BRANCH  26  27
ATOM     27  C   UNL     1       5.431   5.169  16.571  0.00  0.00    +0.000 C 
BRANCH  27  28
ATOM     28  S   UNL     1       7.166   5.478  16.241  0.00  0.00    +0.000 S 
ATOM     29  O   UNL     1       7.584   6.712  16.858  0.00  0.00    +0.000 OA
ATOM     30  O   UNL     1       7.442   5.166  14.857  0.00  0.00    +0.000 OA
BRANCH  28  31
ATOM     31  N   UNL     1       7.906   4.247  17.112  0.00  0.00    +0.000 NA
ATOM     32  H   UNL     1       7.884   3.395  16.543  0.00  0.00    +0.000 HD
ATOM     33  H   UNL     1       7.443   4.107  18.010  0.00  0.00    +0.000 HD
ENDBRANCH  28  31
ENDBRANCH  27  28
ENDBRANCH  26  27
ENDBRANCH  25  26
ENDBRANCH  21  25
ENDBRANCH  20  23
ENDBRANCH  19  20
ENDBRANCH  18  19
ENDBRANCH   1  18
TORSDOF 9
ENDMDL
MODEL 8
REMARK VINA RESULT:      -7.0      6.000      9.105
REMARK  Name = 
REMARK  9 active torsions:
REMARK  status: ('A' for Active; 'I' for Inactive)
REMARK    1  A    between atoms: N_1  and  S_2
REMARK    2  A    between atoms: S_2  and  C_5
REMARK    3  A    between atoms: C_5  and  C_6
REMARK    4  A    between atoms: C_6  and  C_7
REMARK    5  A    between atoms: C_7  and  C_8
REMARK    6  A    between atoms: N_10  and  C_11
REMARK    7  A    between atoms: C_11  and  C_12
REMARK    8  A    between atoms: C_12  and  C_13
REMARK    9  A    between atoms: C_13  and  N_14
REMARK                            x       y       z     vdW  Elec       q    Type
REMARK                         _______ _______ _______ _____ _____    ______ ____
ROOT
ATOM      1  N   UNL     1      -0.844  11.096  19.989  0.00  0.00    +0.000 N 
ATOM      2  C   UNL     1      -0.862  10.492  18.740  0.00  0.00    +0.000 A 
ATOM      3  O   UNL     1       0.062   9.810  18.299  0.00  0.00    +0.000 OA
ATOM      4  C   UNL     1      -2.068  10.707  17.910  0.00  0.00    +0.000 A 
ATOM      5  C   UNL     1      -2.116  10.129  16.628  0.00  0.00    +0.000 A 
ATOM      6  C   UNL     1      -3.219  10.352  15.827  0.00  0.00    +0.000 A 
ATOM      7  F   UNL     1      -3.270   9.814  14.604  0.00  0.00    +0.000 F 
ATOM      8  C   UNL     1      -4.273  11.132  16.277  0.00  0.00    +0.000 A 
ATOM      9  C   UNL     1      -4.227  11.699  17.559  0.00  0.00    +0.000 A 
ATOM     10  C   UNL     1      -3.124  11.495  18.396  0.00  0.00    +0.000 A 
ATOM     11  N   UNL     1      -2.996  12.031  19.694  0.00  0.00    +0.000 N 
ATOM     12  C   UNL     1      -3.812  12.835  20.473  0.00  0.00    +0.000 A 
ATOM     13  S   UNL     1      -5.292  13.543  20.232  0.00  0.00    +0.000 S 
ATOM     14  N   UNL     1      -3.124  13.017  21.671  0.00  0.00    +0.000 N 
ATOM     15  N   UNL     1      -1.925  12.380  21.634  0.00  0.00    +0.000 NA
ATOM     16  C   UNL     1      -1.896  11.824  20.460  0.00  0.00    +0.000 A 
ATOM     17  H   UNL     1      -3.423  13.563  22.471  0.00  0.00    +0.000 HD
ENDROOT
BRANCH   1  18
ATOM     18  C   UNL     1       0.363  10.959  20.802  0.00  0.00    +0.000 C 
BRANCH  18  19
ATOM     19  C   UNL     1       0.302   9.752  21.739  0.00  0.00    +0.000 C 
BRANCH  19  20
ATOM     20  C   UNL     1       1.620   8.982  21.699  0.00  0.00    +0.000 C 
BRANCH  20  23
ATOM     21  C   UNL     1       1.835   7.021  20.236  0.00  0.00    +0.000 C 
ATOM     22  O   UNL     1       2.390   7.657  19.355  0.00  0.00    +0.000 OA
ATOM     23  N   UNL     1       1.419   7.573  21.425  0.00  0.00    +0.000 N 
ATOM     24  H   UNL     1       0.966   7.001  22.129  0.00  0.00    +0.000 HD
BRANCH  21  25
ATOM     25  C   UNL     1       1.588   5.532  20.119  0.00  0.00    +0.000 C 
BRANCH  25  26
ATOM     26  C   UNL     1       2.818   4.740  20.551  0.00  0.00    +0.000 C 
BRANCH  26  27
ATOM     27  C   UNL     1       2.653   3.234  20.366  0.00  0.00    +0.000 C 
BRANCH  27  28
ATOM     28  S   UNL     1       4.035   2.565  19.443  0.00  0.00    +0.000 S 
ATOM     29  O   UNL     1       4.963   1.907  20.328  0.00  0.00    +0.000 OA
ATOM     30  O   UNL     1       4.454   3.536  18.457  0.00  0.00    +0.000 OA
BRANCH  28  31
ATOM     31  N   UNL     1       3.297   1.347  18.553  0.00  0.00    +0.000 NA
ATOM     32  H   UNL     1       2.712   0.795  19.188  0.00  0.00    +0.000 HD
ATOM     33  H   UNL     1       3.991   0.763  18.086  0.00  0.00    +0.000 HD
ENDBRANCH  28  31
ENDBRANCH  27  28
ENDBRANCH  26  27
ENDBRANCH  25  26
ENDBRANCH  21  25
ENDBRANCH  20  23
ENDBRANCH  19  20
ENDBRANCH  18  19
ENDBRANCH   1  18
TORSDOF 9
ENDMDL
MODEL 9
REMARK VINA RESULT:      -7.0      2.480      3.358
REMARK  Name = 
REMARK  9 active torsions:
REMARK  status: ('A' for Active; 'I' for Inactive)
REMARK    1  A    between atoms: N_1  and  S_2
REMARK    2  A    between atoms: S_2  and  C_5
REMARK    3  A    between atoms: C_5  and  C_6
REMARK    4  A    between atoms: C_6  and  C_7
REMARK    5  A    between atoms: C_7  and  C_8
REMARK    6  A    between atoms: N_10  and  C_11
REMARK    7  A    between atoms: C_11  and  C_12
REMARK    8  A    between atoms: C_12  and  C_13
REMARK    9  A    between atoms: C_13  and  N_14
REMARK                            x       y       z     vdW  Elec       q    Type
REMARK                         _______ _______ _______ _____ _____    ______ ____
ROOT
ATOM      1  N   UNL     1       4.127   5.214  17.099  0.00  0.00    +0.000 N 
ATOM      2  C   UNL     1       3.932   3.987  17.717  0.00  0.00    +0.000 A 
ATOM      3  O   UNL     1       4.409   2.932  17.301  0.00  0.00    +0.000 OA
ATOM      4  C   UNL     1       3.091   3.975  18.934  0.00  0.00    +0.000 A 
ATOM      5  C   UNL     1       2.852   2.746  19.577  0.00  0.00    +0.000 A 
ATOM      6  C   UNL     1       2.038   2.715  20.693  0.00  0.00    +0.000 A 
ATOM      7  F   UNL     1       1.798   1.551  21.306  0.00  0.00    +0.000 F 
ATOM      8  C   UNL     1       1.463   3.878  21.181  0.00  0.00    +0.000 A 
ATOM      9  C   UNL     1       1.710   5.103  20.544  0.00  0.00    +0.000 A 
ATOM     10  C   UNL     1       2.529   5.171  19.410  0.00  0.00    +0.000 A 
ATOM     11  N   UNL     1       2.825   6.358  18.709  0.00  0.00    +0.000 N 
ATOM     12  C   UNL     1       2.453   7.681  18.883  0.00  0.00    +0.000 A 
ATOM     13  S   UNL     1       1.484   8.465  19.976  0.00  0.00    +0.000 S 
ATOM     14  N   UNL     1       3.080   8.383  17.858  0.00  0.00    +0.000 N 
ATOM     15  N   UNL     1       3.790   7.540  17.064  0.00  0.00    +0.000 NA
ATOM     16  C   UNL     1       3.606   6.371  17.600  0.00  0.00    +0.000 A 
ATOM     17  H   UNL     1       3.020   9.379  17.672  0.00  0.00    +0.000 HD
ENDROOT
BRANCH   1  18
ATOM     18  C   UNL     1       4.894   5.245  15.856  0.00  0.00    +0.000 C 
BRANCH  18  19
ATOM     19  C   UNL     1       6.394   5.060  16.091  0.00  0.00    +0.000 C 
BRANCH  19  20
ATOM     20  C   UNL     1       6.816   5.747  17.388  0.00  0.00    +0.000 C 
BRANCH  20  23
ATOM     21  C   UNL     1       7.932   7.839  18.029  0.00  0.00    +0.000 C 
ATOM     22  O   UNL     1       8.526   7.314  18.957  0.00  0.00    +0.000 OA
ATOM     23  N   UNL     1       7.072   7.161  17.196  0.00  0.00    +0.000 N 
ATOM     24  H   UNL     1       6.605   7.641  16.435  0.00  0.00    +0.000 HD
BRANCH  21  25
ATOM     25  C   UNL     1       8.123   9.299  17.675  0.00  0.00    +0.000 C 
BRANCH  25  26
ATOM     26  C   UNL     1       9.060   9.982  18.665  0.00  0.00    +0.000 C 
BRANCH  26  27
ATOM     27  C   UNL     1       9.180  11.486  18.432  0.00  0.00    +0.000 C 
BRANCH  27  28
ATOM     28  S   UNL     1      10.491  12.169  19.446  0.00  0.00    +0.000 S 
ATOM     29  O   UNL     1      11.689  11.378  19.322  0.00  0.00    +0.000 OA
ATOM     30  O   UNL     1       9.941  12.553  20.726  0.00  0.00    +0.000 OA
BRANCH  28  31
ATOM     31  N   UNL     1      10.808  13.622  18.665  0.00  0.00    +0.000 NA
ATOM     32  H   UNL     1      11.708  13.977  19.002  0.00  0.00    +0.000 HD
ATOM     33  H   UNL     1      10.058  14.294  18.828  0.00  0.00    +0.000 HD
ENDBRANCH  28  31
ENDBRANCH  27  28
ENDBRANCH  26  27
ENDBRANCH  25  26
ENDBRANCH  21  25
ENDBRANCH  20  23
ENDBRANCH  19  20
ENDBRANCH  18  19
ENDBRANCH   1  18
TORSDOF 9
ENDMDL
