MODEL 1
REMARK VINA RESULT:      -6.6      0.000      0.000
REMARK  Name = 
REMARK  10 active torsions:
REMARK  status: ('A' for Active; 'I' for Inactive)
REMARK    1  A    between atoms: C_1  and  C_2
REMARK    2  A    between atoms: C_3  and  C_4
REMARK    3  A    between atoms: C_5  and  C_6
REMARK    4  A    between atoms: C_6  and  O_8
REMARK    5  A    between atoms: O_8  and  C_9
REMARK    6  A    between atoms: C_10  and  O_11
REMARK    7  A    between atoms: O_11  and  C_12
REMARK    8  A    between atoms: N_20  and  C_21
REMARK    9  A    between atoms: C_26  and  O_27
REMARK   10  A    between atoms: O_27  and  C_28
REMARK                            x       y       z     vdW  Elec       q    Type
REMARK                         _______ _______ _______ _____ _____    ______ ____
ROOT
ATOM      1  C   UNL     1      -2.861  12.227  19.537  0.00  0.00    +0.000 A 
ATOM      2  C   UNL     1      -3.515  11.519  18.495  0.00  0.00    +0.000 A 
ATOM      3  C   UNL     1      -2.816  10.526  17.797  0.00  0.00    +0.000 A 
ATOM      4  C   UNL     1      -1.517  10.185  18.137  0.00  0.00    +0.000 A 
ATOM      5  C   UNL     1      -0.851  10.875  19.149  0.00  0.00    +0.000 A 
ATOM      6  C   UNL     1      -1.471  11.979  19.813  0.00  0.00    +0.000 A 
ATOM      7  C   UNL     1      -0.629  12.678  20.899  0.00  0.00    +0.000 C 
ATOM      8  C   UNL     1      -1.122  12.015  22.236  0.00  0.00    +0.000 C 
ATOM      9  C   UNL     1      -0.792  10.521  22.344  0.00  0.00    +0.000 C 
ATOM     10  N   UNL     1       0.629  10.303  22.120  0.00  0.00    +0.000 NA
ATOM     11  C   UNL     1       0.950   8.890  22.328  0.00  0.00    +0.000 C 
ATOM     12  C   UNL     1       1.121  10.868  20.841  0.00  0.00    +0.000 C 
ATOM     13  C   UNL     1       0.510  10.316  19.540  0.00  0.00    +0.000 C 
ATOM     14  C   UNL     1       0.909  12.396  20.831  0.00  0.00    +0.000 C 
ATOM     15  C   UNL     1       1.620  13.113  19.685  0.00  0.00    +0.000 C 
ATOM     16  C   UNL     1       1.213  14.241  19.079  0.00  0.00    +0.000 C 
ATOM     17  C   UNL     1      -0.007  14.874  19.633  0.00  0.00    +0.000 C 
ATOM     18  O   UNL     1      -0.458  15.951  19.221  0.00  0.00    +0.000 OA
ATOM     19  C   UNL     1      -0.685  14.226  20.800  0.00  0.00    +0.000 C 
ENDROOT
BRANCH   2  20
ATOM     20  O   UNL     1      -4.803  11.574  18.047  0.00  0.00    +0.000 OA
ATOM     21  C   UNL     1      -5.095  11.881  16.700  0.00  0.00    +0.000 C 
ENDBRANCH   2  20
BRANCH  16  22
ATOM     22  O   UNL     1       1.947  14.786  18.039  0.00  0.00    +0.000 OA
ATOM     23  C   UNL     1       3.365  14.615  18.096  0.00  0.00    +0.000 C 
ENDBRANCH  16  22
BRANCH   1  24
ATOM     24  O   UNL     1      -3.770  12.974  20.432  0.00  0.00    +0.000 OA
BRANCH  24  25
ATOM     25  C   UNL     1      -4.810  12.694  21.330  0.00  0.00    +0.000 C 
ATOM     26  O   UNL     1      -5.713  11.879  21.201  0.00  0.00    +0.000 OA
BRANCH  25  28
ATOM     27  C   UNL     1      -4.143  12.991  23.502  0.00  0.00    +0.000 C 
ATOM     28  C   UNL     1      -4.872  13.551  22.516  0.00  0.00    +0.000 C 
BRANCH  27  31
ATOM     29  C   UNL     1      -2.138  15.314  25.700  0.00  0.00    +0.000 C 
ATOM     30  C   UNL     1      -2.628  14.531  24.529  0.00  0.00    +0.000 C 
ATOM     31  C   UNL     1      -3.615  13.633  24.662  0.00  0.00    +0.000 C 
ENDBRANCH  27  31
ENDBRANCH  25  28
ENDBRANCH  24  25
ENDBRANCH   1  24
TORSDOF 6
ENDMDL
MODEL 2
REMARK VINA RESULT:      -6.6      3.178      6.603
REMARK  Name = 
REMARK  10 active torsions:
REMARK  status: ('A' for Active; 'I' for Inactive)
REMARK    1  A    between atoms: C_1  and  C_2
REMARK    2  A    between atoms: C_3  and  C_4
REMARK    3  A    between atoms: C_5  and  C_6
REMARK    4  A    between atoms: C_6  and  O_8
REMARK    5  A    between atoms: O_8  and  C_9
REMARK    6  A    between atoms: C_10  and  O_11
REMARK    7  A    between atoms: O_11  and  C_12
REMARK    8  A    between atoms: N_20  and  C_21
REMARK    9  A    between atoms: C_26  and  O_27
REMARK   10  A    between atoms: O_27  and  C_28
REMARK                            x       y       z     vdW  Elec       q    Type
REMARK                         _______ _______ _______ _____ _____    ______ ____
ROOT
ATOM      1  C   UNL     1       0.085  10.305  20.523  0.00  0.00    +0.000 A 
ATOM      2  C   UNL     1       0.136   9.176  21.383  0.00  0.00    +0.000 A 
ATOM      3  C   UNL     1      -0.371   9.282  22.684  0.00  0.00    +0.000 A 
ATOM      4  C   UNL     1      -0.968  10.449  23.132  0.00  0.00    +0.000 A 
ATOM      5  C   UNL     1      -1.018  11.574  22.310  0.00  0.00    +0.000 A 
ATOM      6  C   UNL     1      -0.408  11.563  21.017  0.00  0.00    +0.000 A 
ATOM      7  C   UNL     1      -0.508  12.872  20.208  0.00  0.00    +0.000 C 
ATOM      8  C   UNL     1      -1.746  12.634  19.268  0.00  0.00    +0.000 C 
ATOM      9  C   UNL     1      -3.076  12.500  20.020  0.00  0.00    +0.000 C 
ATOM     10  N   UNL     1      -3.273  13.642  20.901  0.00  0.00    +0.000 NA
ATOM     11  C   UNL     1      -4.590  13.556  21.533  0.00  0.00    +0.000 C 
ATOM     12  C   UNL     1      -2.148  13.866  21.840  0.00  0.00    +0.000 C 
ATOM     13  C   UNL     1      -1.830  12.745  22.847  0.00  0.00    +0.000 C 
ATOM     14  C   UNL     1      -0.855  14.146  21.047  0.00  0.00    +0.000 C 
ATOM     15  C   UNL     1       0.301  14.655  21.906  0.00  0.00    +0.000 C 
ATOM     16  C   UNL     1       1.609  14.453  21.678  0.00  0.00    +0.000 C 
ATOM     17  C   UNL     1       1.949  13.723  20.434  0.00  0.00    +0.000 C 
ATOM     18  O   UNL     1       3.112  13.524  20.061  0.00  0.00    +0.000 OA
ATOM     19  C   UNL     1       0.835  13.270  19.541  0.00  0.00    +0.000 C 
ENDROOT
BRANCH   2  20
ATOM     20  O   UNL     1       0.554   7.897  21.156  0.00  0.00    +0.000 OA
ATOM     21  C   UNL     1       1.926   7.562  21.182  0.00  0.00    +0.000 C 
ENDBRANCH   2  20
BRANCH  16  22
ATOM     22  O   UNL     1       2.562  14.962  22.544  0.00  0.00    +0.000 OA
ATOM     23  C   UNL     1       2.967  16.315  22.329  0.00  0.00    +0.000 C 
ENDBRANCH  16  22
BRANCH   1  24
ATOM     24  O   UNL     1       0.301   9.995  19.094  0.00  0.00    +0.000 OA
BRANCH  24  25
ATOM     25  C   UNL     1       1.383   9.789  18.225  0.00  0.00    +0.000 C 
ATOM     26  O   UNL     1       2.125  10.629  17.739  0.00  0.00    +0.000 OA
BRANCH  25  28
ATOM     27  C   UNL     1       2.895   8.120  17.802  0.00  0.00    +0.000 C 
ATOM     28  C   UNL     1       1.579   8.409  17.774  0.00  0.00    +0.000 C 
BRANCH  27  31
ATOM     29  C   UNL     1       3.307   4.368  17.856  0.00  0.00    +0.000 C 
ATOM     30  C   UNL     1       2.728   5.739  17.959  0.00  0.00    +0.000 C 
ATOM     31  C   UNL     1       3.500   6.827  17.821  0.00  0.00    +0.000 C 
ENDBRANCH  27  31
ENDBRANCH  25  28
ENDBRANCH  24  25
ENDBRANCH   1  24
TORSDOF 6
ENDMDL
MODEL 3
REMARK VINA RESULT:      -6.4      3.081      6.621
REMARK  Name = 
REMARK  10 active torsions:
REMARK  status: ('A' for Active; 'I' for Inactive)
REMARK    1  A    between atoms: C_1  and  C_2
REMARK    2  A    between atoms: C_3  and  C_4
REMARK    3  A    between atoms: C_5  and  C_6
REMARK    4  A    between atoms: C_6  and  O_8
REMARK    5  A    between atoms: O_8  and  C_9
REMARK    6  A    between atoms: C_10  and  O_11
REMARK    7  A    between atoms: O_11  and  C_12
REMARK    8  A    between atoms: N_20  and  C_21
REMARK    9  A    between atoms: C_26  and  O_27
REMARK   10  A    between atoms: O_27  and  C_28
REMARK                            x       y       z     vdW  Elec       q    Type
REMARK                         _______ _______ _______ _____ _____    ______ ____
ROOT
ATOM      1  C   UNL     1       0.442  11.029  21.008  0.00  0.00    +0.000 A 
ATOM      2  C   UNL     1       0.625   9.905  21.856  0.00  0.00    +0.000 A 
ATOM      3  C   UNL     1      -0.202   9.750  22.976  0.00  0.00    +0.000 A 
ATOM      4  C   UNL     1      -1.228  10.642  23.244  0.00  0.00    +0.000 A 
ATOM      5  C   UNL     1      -1.417  11.760  22.432  0.00  0.00    +0.000 A 
ATOM      6  C   UNL     1      -0.528  12.036  21.347  0.00  0.00    +0.000 A 
ATOM      7  C   UNL     1      -0.825  13.311  20.534  0.00  0.00    +0.000 C 
ATOM      8  C   UNL     1      -1.646  12.784  19.301  0.00  0.00    +0.000 C 
ATOM      9  C   UNL     1      -3.011  12.195  19.675  0.00  0.00    +0.000 C 
ATOM     10  N   UNL     1      -3.772  13.150  20.466  0.00  0.00    +0.000 NA
ATOM     11  C   UNL     1      -5.111  12.619  20.727  0.00  0.00    +0.000 C 
ATOM     12  C   UNL     1      -3.050  13.630  21.669  0.00  0.00    +0.000 C 
ATOM     13  C   UNL     1      -2.663  12.583  22.729  0.00  0.00    +0.000 C 
ATOM     14  C   UNL     1      -1.754  14.351  21.244  0.00  0.00    +0.000 C 
ATOM     15  C   UNL     1      -1.073  15.118  22.376  0.00  0.00    +0.000 C 
ATOM     16  C   UNL     1       0.246  15.340  22.504  0.00  0.00    +0.000 C 
ATOM     17  C   UNL     1       1.100  14.847  21.399  0.00  0.00    +0.000 C 
ATOM     18  O   UNL     1       2.322  15.041  21.348  0.00  0.00    +0.000 OA
ATOM     19  C   UNL     1       0.449  14.150  20.245  0.00  0.00    +0.000 C 
ENDROOT
BRANCH   2  20
ATOM     20  O   UNL     1       1.466   8.835  21.755  0.00  0.00    +0.000 OA
ATOM     21  C   UNL     1       1.009   7.592  21.266  0.00  0.00    +0.000 C 
ENDBRANCH   2  20
BRANCH  16  22
ATOM     22  O   UNL     1       0.740  16.045  23.590  0.00  0.00    +0.000 OA
ATOM     23  C   UNL     1      -0.224  16.576  24.501  0.00  0.00    +0.000 C 
ENDBRANCH  16  22
BRANCH   1  24
ATOM     24  O   UNL     1       1.099  10.912  19.689  0.00  0.00    +0.000 OA
BRANCH  24  25
ATOM     25  C   UNL     1       0.914  10.202  18.493  0.00  0.00    +0.000 C 
ATOM     26  O   UNL     1      -0.142   9.871  17.974  0.00  0.00    +0.000 OA
BRANCH  25  28
ATOM     27  C   UNL     1       2.367   8.450  18.238  0.00  0.00    +0.000 C 
ATOM     28  C   UNL     1       2.136   9.719  17.848  0.00  0.00    +0.000 C 
BRANCH  27  31
ATOM     29  C   UNL     1       3.974   5.153  17.343  0.00  0.00    +0.000 C 
ATOM     30  C   UNL     1       3.226   6.224  18.063  0.00  0.00    +0.000 C 
ATOM     31  C   UNL     1       3.191   7.479  17.593  0.00  0.00    +0.000 C 
ENDBRANCH  27  31
ENDBRANCH  25  28
ENDBRANCH  24  25
ENDBRANCH   1  24
TORSDOF 6
ENDMDL
MODEL 4
REMARK VINA RESULT:      -6.4      2.615      6.264
REMARK  Name = 
REMARK  10 active torsions:
REMARK  status: ('A' for Active; 'I' for Inactive)
REMARK    1  A    between atoms: C_1  and  C_2
REMARK    2  A    between atoms: C_3  and  C_4
REMARK    3  A    between atoms: C_5  and  C_6
REMARK    4  A    between atoms: C_6  and  O_8
REMARK    5  A    between atoms: O_8  and  C_9
REMARK    6  A    between atoms: C_10  and  O_11
REMARK    7  A    between atoms: O_11  and  C_12
REMARK    8  A    between atoms: N_20  and  C_21
REMARK    9  A    between atoms: C_26  and  O_27
REMARK   10  A    between atoms: O_27  and  C_28
REMARK                            x       y       z     vdW  Elec       q    Type
REMARK                         _______ _______ _______ _____ _____    ______ ____
ROOT
ATOM      1  C   UNL     1      -0.385  12.143  21.379  0.00  0.00    +0.000 A 
ATOM      2  C   UNL     1       0.070  10.833  21.678  0.00  0.00    +0.000 A 
ATOM      3  C   UNL     1      -0.564  10.102  22.690  0.00  0.00    +0.000 A 
ATOM      4  C   UNL     1      -1.658  10.610  23.370  0.00  0.00    +0.000 A 
ATOM      5  C   UNL     1      -2.115  11.900  23.101  0.00  0.00    +0.000 A 
ATOM      6  C   UNL     1      -1.432  12.738  22.166  0.00  0.00    +0.000 A 
ATOM      7  C   UNL     1      -2.016  14.151  21.969  0.00  0.00    +0.000 C 
ATOM      8  C   UNL     1      -2.916  14.006  20.688  0.00  0.00    +0.000 C 
ATOM      9  C   UNL     1      -4.120  13.075  20.881  0.00  0.00    +0.000 C 
ATOM     10  N   UNL     1      -4.892  13.486  22.044  0.00  0.00    +0.000 NA
ATOM     11  C   UNL     1      -6.092  12.657  22.157  0.00  0.00    +0.000 C 
ATOM     12  C   UNL     1      -4.086  13.582  23.285  0.00  0.00    +0.000 C 
ATOM     13  C   UNL     1      -3.411  12.295  23.795  0.00  0.00    +0.000 C 
ATOM     14  C   UNL     1      -2.976  14.638  23.104  0.00  0.00    +0.000 C 
ATOM     15  C   UNL     1      -2.261  15.013  24.401  0.00  0.00    +0.000 C 
ATOM     16  C   UNL     1      -0.982  15.408  24.517  0.00  0.00    +0.000 C 
ATOM     17  C   UNL     1      -0.228  15.555  23.250  0.00  0.00    +0.000 C 
ATOM     18  O   UNL     1       0.935  15.976  23.199  0.00  0.00    +0.000 OA
ATOM     19  C   UNL     1      -0.927  15.257  21.960  0.00  0.00    +0.000 C 
ENDROOT
BRANCH   2  20
ATOM     20  O   UNL     1       1.032  10.064  21.090  0.00  0.00    +0.000 OA
ATOM     21  C   UNL     1       1.269   8.739  21.516  0.00  0.00    +0.000 C 
ENDBRANCH   2  20
BRANCH  16  22
ATOM     22  O   UNL     1      -0.448  15.710  25.759  0.00  0.00    +0.000 OA
ATOM     23  C   UNL     1      -1.057  16.788  26.473  0.00  0.00    +0.000 C 
ENDBRANCH  16  22
BRANCH   1  24
ATOM     24  O   UNL     1       0.092  12.676  20.085  0.00  0.00    +0.000 OA
BRANCH  24  25
ATOM     25  C   UNL     1      -0.326  12.689  18.746  0.00  0.00    +0.000 C 
ATOM     26  O   UNL     1      -0.359  13.641  17.980  0.00  0.00    +0.000 OA
BRANCH  25  28
ATOM     27  C   UNL     1      -2.156  11.632  17.863  0.00  0.00    +0.000 C 
ATOM     28  C   UNL     1      -0.879  11.430  18.243  0.00  0.00    +0.000 C 
BRANCH  27  31
ATOM     29  C   UNL     1      -3.480  10.022  14.715  0.00  0.00    +0.000 C 
ATOM     30  C   UNL     1      -2.775  10.937  15.659  0.00  0.00    +0.000 C 
ATOM     31  C   UNL     1      -2.939  10.823  16.985  0.00  0.00    +0.000 C 
ENDBRANCH  27  31
ENDBRANCH  25  28
ENDBRANCH  24  25
ENDBRANCH   1  24
TORSDOF 6
ENDMDL
MODEL 5
REMARK VINA RESULT:      -6.4      2.450      5.399
REMARK  Name = 
REMARK  10 active torsions:
REMARK  status: ('A' for Active; 'I' for Inactive)
REMARK    1  A    between atoms: C_1  and  C_2
REMARK    2  A    between atoms: C_3  and  C_4
REMARK    3  A    between atoms: C_5  and  C_6
REMARK    4  A    between atoms: C_6  and  O_8
REMARK    5  A    between atoms: O_8  and  C_9
REMARK    6  A    between atoms: C_10  and  O_11
REMARK    7  A    between atoms: O_11  and  C_12
REMARK    8  A    between atoms: N_20  and  C_21
REMARK    9  A    between atoms: C_26  and  O_27
REMARK   10  A    between atoms: O_27  and  C_28
REMARK                            x       y       z     vdW  Elec       q    Type
REMARK                         _______ _______ _______ _____ _____    ______ ____
ROOT
ATOM      1  C   UNL     1      -0.758  11.381  20.514  0.00  0.00    +0.000 A 
ATOM      2  C   UNL     1      -0.254  10.141  20.986  0.00  0.00    +0.000 A 
ATOM      3  C   UNL     1      -0.422   9.802  22.335  0.00  0.00    +0.000 A 
ATOM      4  C   UNL     1      -1.113  10.629  23.205  0.00  0.00    +0.000 A 
ATOM      5  C   UNL     1      -1.606  11.857  22.766  0.00  0.00    +0.000 A 
ATOM      6  C   UNL     1      -1.359  12.310  21.433  0.00  0.00    +0.000 A 
ATOM      7  C   UNL     1      -1.934  13.693  21.069  0.00  0.00    +0.000 C 
ATOM      8  C   UNL     1      -3.294  13.355  20.356  0.00  0.00    +0.000 C 
ATOM      9  C   UNL     1      -4.328  12.698  21.278  0.00  0.00    +0.000 C 
ATOM     10  N   UNL     1      -4.526  13.509  22.471  0.00  0.00    +0.000 NA
ATOM     11  C   UNL     1      -5.589  12.927  23.291  0.00  0.00    +0.000 C 
ATOM     12  C   UNL     1      -3.270  13.804  23.201  0.00  0.00    +0.000 C 
ATOM     13  C   UNL     1      -2.478  12.609  23.762  0.00  0.00    +0.000 C 
ATOM     14  C   UNL     1      -2.312  14.597  22.289  0.00  0.00    +0.000 C 
ATOM     15  C   UNL     1      -1.107  15.186  23.020  0.00  0.00    +0.000 C 
ATOM     16  C   UNL     1       0.112  15.402  22.497  0.00  0.00    +0.000 C 
ATOM     17  C   UNL     1       0.265  15.099  21.055  0.00  0.00    +0.000 C 
ATOM     18  O   UNL     1       1.309  15.313  20.425  0.00  0.00    +0.000 OA
ATOM     19  C   UNL     1      -0.920  14.582  20.300  0.00  0.00    +0.000 C 
ENDROOT
BRANCH   2  20
ATOM     20  O   UNL     1       0.349   9.110  20.326  0.00  0.00    +0.000 OA
ATOM     21  C   UNL     1       1.343   8.325  20.950  0.00  0.00    +0.000 C 
ENDBRANCH   2  20
BRANCH  16  22
ATOM     22  O   UNL     1       1.128  15.934  23.274  0.00  0.00    +0.000 OA
ATOM     23  C   UNL     1       0.949  17.277  23.731  0.00  0.00    +0.000 C 
ENDBRANCH  16  22
BRANCH   1  24
ATOM     24  O   UNL     1      -0.857  11.480  19.042  0.00  0.00    +0.000 OA
BRANCH  24  25
ATOM     25  C   UNL     1      -1.480  10.790  17.991  0.00  0.00    +0.000 C 
ATOM     26  O   UNL     1      -1.074   9.801  17.399  0.00  0.00    +0.000 OA
BRANCH  25  28
ATOM     27  C   UNL     1      -3.758  10.612  17.832  0.00  0.00    +0.000 C 
ATOM     28  C   UNL     1      -2.715  11.391  17.484  0.00  0.00    +0.000 C 
BRANCH  27  31
ATOM     29  C   UNL     1      -6.950  12.586  17.424  0.00  0.00    +0.000 C 
ATOM     30  C   UNL     1      -5.509  12.206  17.497  0.00  0.00    +0.000 C 
ATOM     31  C   UNL     1      -5.136  10.981  17.892  0.00  0.00    +0.000 C 
ENDBRANCH  27  31
ENDBRANCH  25  28
ENDBRANCH  24  25
ENDBRANCH   1  24
TORSDOF 6
ENDMDL
MODEL 6
REMARK VINA RESULT:      -6.3      1.137      1.161
REMARK  Name = 
REMARK  10 active torsions:
REMARK  status: ('A' for Active; 'I' for Inactive)
REMARK    1  A    between atoms: C_1  and  C_2
REMARK    2  A    between atoms: C_3  and  C_4
REMARK    3  A    between atoms: C_5  and  C_6
REMARK    4  A    between atoms: C_6  and  O_8
REMARK    5  A    between atoms: O_8  and  C_9
REMARK    6  A    between atoms: C_10  and  O_11
REMARK    7  A    between atoms: O_11  and  C_12
REMARK    8  A    between atoms: N_20  and  C_21
REMARK    9  A    between atoms: C_26  and  O_27
REMARK   10  A    between atoms: O_27  and  C_28
REMARK                            x       y       z     vdW  Elec       q    Type
REMARK                         _______ _______ _______ _____ _____    ______ ____
ROOT
ATOM      1  C   UNL     1      -3.111  12.576  20.032  0.00  0.00    +0.000 A 
ATOM      2  C   UNL     1      -3.815  11.953  18.969  0.00  0.00    +0.000 A 
ATOM      3  C   UNL     1      -3.140  11.056  18.133  0.00  0.00    +0.000 A 
ATOM      4  C   UNL     1      -1.812  10.726  18.351  0.00  0.00    +0.000 A 
ATOM      5  C   UNL     1      -1.097  11.335  19.381  0.00  0.00    +0.000 A 
ATOM      6  C   UNL     1      -1.699  12.348  20.191  0.00  0.00    +0.000 A 
ATOM      7  C   UNL     1      -0.803  12.965  21.283  0.00  0.00    +0.000 C 
ATOM      8  C   UNL     1      -1.187  12.160  22.577  0.00  0.00    +0.000 C 
ATOM      9  C   UNL     1      -0.812  10.674  22.514  0.00  0.00    +0.000 C 
ATOM     10  N   UNL     1       0.596  10.525  22.178  0.00  0.00    +0.000 NA
ATOM     11  C   UNL     1       0.966   9.109  22.223  0.00  0.00    +0.000 C 
ATOM     12  C   UNL     1       0.984  11.228  20.932  0.00  0.00    +0.000 C 
ATOM     13  C   UNL     1       0.301  10.785  19.625  0.00  0.00    +0.000 C 
ATOM     14  C   UNL     1       0.733  12.741  21.088  0.00  0.00    +0.000 C 
ATOM     15  C   UNL     1       1.346  13.589  19.975  0.00  0.00    +0.000 C 
ATOM     16  C   UNL     1       0.869  14.757  19.512  0.00  0.00    +0.000 C 
ATOM     17  C   UNL     1      -0.326  15.293  20.204  0.00  0.00    +0.000 C 
ATOM     18  O   UNL     1      -0.832  16.390  19.932  0.00  0.00    +0.000 OA
ATOM     19  C   UNL     1      -0.907  14.513  21.343  0.00  0.00    +0.000 C 
ENDROOT
BRANCH   2  20
ATOM     20  O   UNL     1      -5.132  12.010  18.614  0.00  0.00    +0.000 OA
ATOM     21  C   UNL     1      -5.521  12.051  17.257  0.00  0.00    +0.000 C 
ENDBRANCH   2  20
BRANCH  16  22
ATOM     22  O   UNL     1       1.516  15.425  18.485  0.00  0.00    +0.000 OA
ATOM     23  C   UNL     1       2.904  15.707  18.679  0.00  0.00    +0.000 C 
ENDBRANCH  16  22
BRANCH   1  24
ATOM     24  O   UNL     1      -3.975  13.204  21.054  0.00  0.00    +0.000 OA
BRANCH  24  25
ATOM     25  C   UNL     1      -4.933  12.801  21.997  0.00  0.00    +0.000 C 
ATOM     26  O   UNL     1      -5.832  11.986  21.851  0.00  0.00    +0.000 OA
BRANCH  25  28
ATOM     27  C   UNL     1      -4.002  14.515  23.199  0.00  0.00    +0.000 C 
ATOM     28  C   UNL     1      -4.905  13.518  23.274  0.00  0.00    +0.000 C 
BRANCH  27  31
ATOM     29  C   UNL     1      -4.994  17.531  25.242  0.00  0.00    +0.000 C 
ATOM     30  C   UNL     1      -5.019  16.392  24.278  0.00  0.00    +0.000 C 
ATOM     31  C   UNL     1      -3.915  15.672  24.030  0.00  0.00    +0.000 C 
ENDBRANCH  27  31
ENDBRANCH  25  28
ENDBRANCH  24  25
ENDBRANCH   1  24
TORSDOF 6
ENDMDL
MODEL 7
REMARK VINA RESULT:      -6.3      2.330      6.745
REMARK  Name = 
REMARK  10 active torsions:
REMARK  status: ('A' for Active; 'I' for Inactive)
REMARK    1  A    between atoms: C_1  and  C_2
REMARK    2  A    between atoms: C_3  and  C_4
REMARK    3  A    between atoms: C_5  and  C_6
REMARK    4  A    between atoms: C_6  and  O_8
REMARK    5  A    between atoms: O_8  and  C_9
REMARK    6  A    between atoms: C_10  and  O_11
REMARK    7  A    between atoms: O_11  and  C_12
REMARK    8  A    between atoms: N_20  and  C_21
REMARK    9  A    between atoms: C_26  and  O_27
REMARK   10  A    between atoms: O_27  and  C_28
REMARK                            x       y       z     vdW  Elec       q    Type
REMARK                         _______ _______ _______ _____ _____    ______ ____
ROOT
ATOM      1  C   UNL     1       0.990  12.262  19.004  0.00  0.00    +0.000 A 
ATOM      2  C   UNL     1       1.762  13.349  18.517  0.00  0.00    +0.000 A 
ATOM      3  C   UNL     1       1.253  14.650  18.616  0.00  0.00    +0.000 A 
ATOM      4  C   UNL     1       0.035  14.904  19.224  0.00  0.00    +0.000 A 
ATOM      5  C   UNL     1      -0.746  13.851  19.699  0.00  0.00    +0.000 A 
ATOM      6  C   UNL     1      -0.334  12.494  19.516  0.00  0.00    +0.000 A 
ATOM      7  C   UNL     1      -1.291  11.416  20.063  0.00  0.00    +0.000 C 
ATOM      8  C   UNL     1      -0.692  11.067  21.473  0.00  0.00    +0.000 C 
ATOM      9  C   UNL     1      -0.750  12.228  22.474  0.00  0.00    +0.000 C 
ATOM     10  N   UNL     1      -2.109  12.740  22.571  0.00  0.00    +0.000 NA
ATOM     11  C   UNL     1      -2.173  13.775  23.603  0.00  0.00    +0.000 C 
ATOM     12  C   UNL     1      -2.690  13.130  21.264  0.00  0.00    +0.000 C 
ATOM     13  C   UNL     1      -1.987  14.255  20.483  0.00  0.00    +0.000 C 
ATOM     14  C   UNL     1      -2.753  11.900  20.335  0.00  0.00    +0.000 C 
ATOM     15  C   UNL     1      -3.578  12.124  19.068  0.00  0.00    +0.000 C 
ATOM     16  C   UNL     1      -3.377  11.537  17.876  0.00  0.00    +0.000 C 
ATOM     17  C   UNL     1      -2.291  10.531  17.820  0.00  0.00    +0.000 C 
ATOM     18  O   UNL     1      -2.038   9.863  16.809  0.00  0.00    +0.000 OA
ATOM     19  C   UNL     1      -1.511  10.246  19.066  0.00  0.00    +0.000 C 
ENDROOT
BRANCH   2  20
ATOM     20  O   UNL     1       3.021  13.387  17.991  0.00  0.00    +0.000 OA
ATOM     21  C   UNL     1       3.800  14.564  18.045  0.00  0.00    +0.000 C 
ENDBRANCH   2  20
BRANCH  16  22
ATOM     22  O   UNL     1      -4.193  11.836  16.798  0.00  0.00    +0.000 OA
ATOM     23  C   UNL     1      -5.555  12.151  17.093  0.00  0.00    +0.000 C 
ENDBRANCH  16  22
BRANCH   1  24
ATOM     24  O   UNL     1       1.748  11.006  19.187  0.00  0.00    +0.000 OA
BRANCH  24  25
ATOM     25  C   UNL     1       1.878   9.766  18.543  0.00  0.00    +0.000 C 
ATOM     26  O   UNL     1       2.056   9.555  17.353  0.00  0.00    +0.000 OA
BRANCH  25  28
ATOM     27  C   UNL     1       2.309   7.535  18.835  0.00  0.00    +0.000 C 
ATOM     28  C   UNL     1       1.678   8.589  19.390  0.00  0.00    +0.000 C 
BRANCH  27  31
ATOM     29  C   UNL     1       2.198   4.419  20.963  0.00  0.00    +0.000 C 
ATOM     30  C   UNL     1       1.881   5.750  20.368  0.00  0.00    +0.000 C 
ATOM     31  C   UNL     1       2.702   6.322  19.477  0.00  0.00    +0.000 C 
ENDBRANCH  27  31
ENDBRANCH  25  28
ENDBRANCH  24  25
ENDBRANCH   1  24
TORSDOF 6
ENDMDL
MODEL 8
REMARK VINA RESULT:      -6.3      1.550      2.800
REMARK  Name = 
REMARK  10 active torsions:
REMARK  status: ('A' for Active; 'I' for Inactive)
REMARK    1  A    between atoms: C_1  and  C_2
REMARK    2  A    between atoms: C_3  and  C_4
REMARK    3  A    between atoms: C_5  and  C_6
REMARK    4  A    between atoms: C_6  and  O_8
REMARK    5  A    between atoms: O_8  and  C_9
REMARK    6  A    between atoms: C_10  and  O_11
REMARK    7  A    between atoms: O_11  and  C_12
REMARK    8  A    between atoms: N_20  and  C_21
REMARK    9  A    between atoms: C_26  and  O_27
REMARK   10  A    between atoms: O_27  and  C_28
REMARK                            x       y       z     vdW  Elec       q    Type
REMARK                         _______ _______ _______ _____ _____    ______ ____
ROOT
ATOM      1  C   UNL     1      -2.877  12.501  19.539  0.00  0.00    +0.000 A 
ATOM      2  C   UNL     1      -3.529  11.711  18.556  0.00  0.00    +0.000 A 
ATOM      3  C   UNL     1      -2.902  10.551  18.084  0.00  0.00    +0.000 A 
ATOM      4  C   UNL     1      -1.684  10.131  18.593  0.00  0.00    +0.000 A 
ATOM      5  C   UNL     1      -1.020  10.898  19.550  0.00  0.00    +0.000 A 
ATOM      6  C   UNL     1      -1.553  12.153  19.980  0.00  0.00    +0.000 A 
ATOM      7  C   UNL     1      -0.720  12.922  21.025  0.00  0.00    +0.000 C 
ATOM      8  C   UNL     1      -1.391  12.537  22.393  0.00  0.00    +0.000 C 
ATOM      9  C   UNL     1      -1.253  11.052  22.753  0.00  0.00    +0.000 C 
ATOM     10  N   UNL     1       0.145  10.650  22.700  0.00  0.00    +0.000 NA
ATOM     11  C   UNL     1       0.276   9.263  23.146  0.00  0.00    +0.000 C 
ATOM     12  C   UNL     1       0.799  10.950  21.404  0.00  0.00    +0.000 C 
ATOM     13  C   UNL     1       0.229  10.266  20.147  0.00  0.00    +0.000 C 
ATOM     14  C   UNL     1       0.773  12.470  21.147  0.00  0.00    +0.000 C 
ATOM     15  C   UNL     1       1.653  12.916  19.980  0.00  0.00    +0.000 C 
ATOM     16  C   UNL     1       1.432  13.971  19.177  0.00  0.00    +0.000 C 
ATOM     17  C   UNL     1       0.258  14.810  19.511  0.00  0.00    +0.000 C 
ATOM     18  O   UNL     1      -0.027  15.850  18.902  0.00  0.00    +0.000 OA
ATOM     19  C   UNL     1      -0.582  14.432  20.691  0.00  0.00    +0.000 C 
ENDROOT
BRANCH   2  20
ATOM     20  O   UNL     1      -4.762  11.832  17.984  0.00  0.00    +0.000 OA
ATOM     21  C   UNL     1      -4.984  11.457  16.641  0.00  0.00    +0.000 C 
ENDBRANCH   2  20
BRANCH  16  22
ATOM     22  O   UNL     1       2.305  14.262  18.141  0.00  0.00    +0.000 OA
ATOM     23  C   UNL     1       3.647  14.589  18.507  0.00  0.00    +0.000 C 
ENDBRANCH  16  22
BRANCH   1  24
ATOM     24  O   UNL     1      -3.756  13.474  20.222  0.00  0.00    +0.000 OA
BRANCH  24  25
ATOM     25  C   UNL     1      -5.130  13.731  20.342  0.00  0.00    +0.000 C 
ATOM     26  O   UNL     1      -5.759  14.676  19.887  0.00  0.00    +0.000 OA
BRANCH  25  28
ATOM     27  C   UNL     1      -6.785  12.151  20.450  0.00  0.00    +0.000 C 
ATOM     28  C   UNL     1      -5.875  12.806  21.198  0.00  0.00    +0.000 C 
BRANCH  27  31
ATOM     29  C   UNL     1      -7.694   8.487  20.463  0.00  0.00    +0.000 C 
ATOM     30  C   UNL     1      -7.123   9.812  20.083  0.00  0.00    +0.000 C 
ATOM     31  C   UNL     1      -7.443  10.923  20.761  0.00  0.00    +0.000 C 
ENDBRANCH  27  31
ENDBRANCH  25  28
ENDBRANCH  24  25
ENDBRANCH   1  24
TORSDOF 6
ENDMDL
MODEL 9
REMARK VINA RESULT:      -6.1      2.794      6.055
REMARK  Name = 
REMARK  10 active torsions:
REMARK  status: ('A' for Active; 'I' for Inactive)
REMARK    1  A    between atoms: C_1  and  C_2
REMARK    2  A    between atoms: C_3  and  C_4
REMARK    3  A    between atoms: C_5  and  C_6
REMARK    4  A    between atoms: C_6  and  O_8
REMARK    5  A    between atoms: O_8  and  C_9
REMARK    6  A    between atoms: C_10  and  O_11
REMARK    7  A    between atoms: O_11  and  C_12
REMARK    8  A    between atoms: N_20  and  C_21
REMARK    9  A    between atoms: C_26  and  O_27
REMARK   10  A    between atoms: O_27  and  C_28
REMARK                            x       y       z     vdW  Elec       q    Type
REMARK                         _______ _______ _______ _____ _____    ______ ____
ROOT
ATOM      1  C   UNL     1       0.402  11.216  21.247  0.00  0.00    +0.000 A 
ATOM      2  C   UNL     1       0.608  10.032  22.002  0.00  0.00    +0.000 A 
ATOM      3  C   UNL     1      -0.256   9.737  23.064  0.00  0.00    +0.000 A 
ATOM      4  C   UNL     1      -1.337  10.551  23.361  0.00  0.00    +0.000 A 
ATOM      5  C   UNL     1      -1.551  11.726  22.641  0.00  0.00    +0.000 A 
ATOM      6  C   UNL     1      -0.633  12.140  21.627  0.00  0.00    +0.000 A 
ATOM      7  C   UNL     1      -0.962  13.467  20.915  0.00  0.00    +0.000 C 
ATOM      8  C   UNL     1      -1.701  13.012  19.604  0.00  0.00    +0.000 C 
ATOM      9  C   UNL     1      -3.049  12.327  19.861  0.00  0.00    +0.000 C 
ATOM     10  N   UNL     1      -3.891  13.170  20.696  0.00  0.00    +0.000 NA
ATOM     11  C   UNL     1      -5.210  12.553  20.848  0.00  0.00    +0.000 C 
ATOM     12  C   UNL     1      -3.246  13.575  21.968  0.00  0.00    +0.000 C 
ATOM     13  C   UNL     1      -2.850  12.458  22.950  0.00  0.00    +0.000 C 
ATOM     14  C   UNL     1      -1.973  14.393  21.669  0.00  0.00    +0.000 C 
ATOM     15  C   UNL     1      -1.382  15.088  22.894  0.00  0.00    +0.000 C 
ATOM     16  C   UNL     1      -0.083  15.362  23.101  0.00  0.00    +0.000 C 
ATOM     17  C   UNL     1       0.842  15.012  21.998  0.00  0.00    +0.000 C 
ATOM     18  O   UNL     1       2.053  15.268  22.021  0.00  0.00    +0.000 OA
ATOM     19  C   UNL     1       0.277  14.389  20.759  0.00  0.00    +0.000 C 
ENDROOT
BRANCH   2  20
ATOM     20  O   UNL     1       1.507   9.017  21.847  0.00  0.00    +0.000 OA
ATOM     21  C   UNL     1       1.166   7.840  21.146  0.00  0.00    +0.000 C 
ENDBRANCH   2  20
BRANCH  16  22
ATOM     22  O   UNL     1       0.327  15.991  24.266  0.00  0.00    +0.000 OA
ATOM     23  C   UNL     1      -0.678  16.687  25.006  0.00  0.00    +0.000 C 
ENDBRANCH  16  22
BRANCH   1  24
ATOM     24  O   UNL     1       1.119  11.250  19.955  0.00  0.00    +0.000 OA
BRANCH  24  25
ATOM     25  C   UNL     1       1.100  10.556  18.735  0.00  0.00    +0.000 C 
ATOM     26  O   UNL     1       1.925   9.759  18.313  0.00  0.00    +0.000 OA
BRANCH  25  28
ATOM     27  C   UNL     1      -0.834   9.861  17.723  0.00  0.00    +0.000 C 
ATOM     28  C   UNL     1       0.009  10.907  17.824  0.00  0.00    +0.000 C 
BRANCH  27  31
ATOM     29  C   UNL     1      -3.957  10.800  15.821  0.00  0.00    +0.000 C 
ATOM     30  C   UNL     1      -2.587  10.824  16.411  0.00  0.00    +0.000 C 
ATOM     31  C   UNL     1      -2.189   9.878  17.274  0.00  0.00    +0.000 C 
ENDBRANCH  27  31
ENDBRANCH  25  28
ENDBRANCH  24  25
ENDBRANCH   1  24
TORSDOF 6
ENDMDL
