MODEL 1
REMARK VINA RESULT:      -7.5      0.000      0.000
REMARK  Name = 
REMARK  20 active torsions:
REMARK  status: ('A' for Active; 'I' for Inactive)
REMARK    1  A    between atoms: C_1  and  C_2
REMARK    2  A    between atoms: N_4  and  CA_5
REMARK    3  A    between atoms: CA_5  and  C_6
REMARK    4  A    between atoms: CA_5  and  C_8
REMARK    5  A    between atoms: C_6  and  O_7
REMARK    6  A    between atoms: N_10  and  C_11
REMARK    7  A    between atoms: C_11  and  C_12
REMARK    8  A    between atoms: C_11  and  C_19
REMARK    9  A    between atoms: C_12  and  C_13
REMARK   10  A    between atoms: C_13  and  C_14
REMARK   11  A    between atoms: C_14  and  C_15
REMARK   12  A    between atoms: C_15  and  N_16
REMARK   13  A    between atoms: N_16  and  C_17
REMARK   14  A    between atoms: N_16  and  C_18
REMARK   15  A    between atoms: N_21  and  C_22
REMARK   16  A    between atoms: C_22  and  C_23
REMARK   17  A    between atoms: C_22  and  C_27
REMARK   18  A    between atoms: C_23  and  C_24
REMARK   19  A    between atoms: C_24  and  C_25
REMARK   20  A    between atoms: C_24  and  C_26
REMARK                            x       y       z     vdW  Elec       q    Type
REMARK                         _______ _______ _______ _____ _____    ______ ____
ROOT
ATOM      1  C   UNL     1       7.304   5.353  17.627  0.00  0.00    +0.000 C 
ENDROOT
BRANCH   1   4
ATOM      2  C   UNL     1       6.533   5.012  15.297  0.00  0.00    +0.000 C 
ATOM      3  O   UNL     1       5.838   6.023  15.316  0.00  0.00    +0.000 OA
ATOM      4  N   UNL     1       7.297   4.606  16.373  0.00  0.00    +0.000 N 
ATOM      5  H   UNL     1       7.627   3.649  16.426  0.00  0.00    +0.000 HD
BRANCH   2   6
ATOM      6  CA  UNL     1       6.678   4.136  14.039  0.00  0.00    +0.000 C 
BRANCH   6  10
ATOM      7  C   UNL     1       3.818   3.410  11.640  0.00  0.00    +0.000 C 
ATOM      8  C   UNL     1       5.189   3.299  12.245  0.00  0.00    +0.000 C 
ATOM      9  O   UNL     1       6.057   2.560  11.787  0.00  0.00    +0.000 OA
ATOM     10  N   UNL     1       5.386   4.078  13.357  0.00  0.00    +0.000 N 
ATOM     11  H   UNL     1       4.653   4.700  13.686  0.00  0.00    +0.000 HD
ENDBRANCH   6  10
BRANCH   6  12
ATOM     12  C   UNL     1       7.764   4.737  13.130  0.00  0.00    +0.000 C 
BRANCH  12  13
ATOM     13  O   UNL     1       8.494   5.817  13.709  0.00  0.00    +0.000 OA
ATOM     14  H   UNL     1       7.883   6.523  13.972  0.00  0.00    +0.000 HD
ENDBRANCH  12  13
ENDBRANCH   6  12
ENDBRANCH   2   6
ENDBRANCH   1   4
BRANCH   1  15
ATOM     15  C   UNL     1       6.031   4.983  18.418  0.00  0.00    +0.000 C 
ATOM     16  O   UNL     1       5.797   5.455  19.528  0.00  0.00    +0.000 OA
ATOM     17  N   UNL     1       5.219   4.048  17.805  0.00  0.00    +0.000 N 
ATOM     18  H   UNL     1       5.245   3.981  16.793  0.00  0.00    +0.000 HD
BRANCH  17  19
ATOM     19  C   UNL     1       4.032   3.482  18.482  0.00  0.00    +0.000 C 
BRANCH  19  20
ATOM     20  C   UNL     1       4.326   2.040  18.982  0.00  0.00    +0.000 C 
ATOM     21  N   UNL     1       5.001   1.924  20.166  0.00  0.00    +0.000 N 
ATOM     22  O   UNL     1       3.980   1.019  18.398  0.00  0.00    +0.000 OA
ATOM     23  H   UNL     1       4.854   2.629  20.873  0.00  0.00    +0.000 HD
ATOM     24  H   UNL     1       5.074   0.971  20.497  0.00  0.00    +0.000 HD
ENDBRANCH  19  20
BRANCH  19  25
ATOM     25  C   UNL     1       2.802   3.540  17.554  0.00  0.00    +0.000 C 
BRANCH  25  26
ATOM     26  C   UNL     1       1.431   3.681  18.253  0.00  0.00    +0.000 C 
ATOM     27  C   UNL     1       0.789   2.342  18.623  0.00  0.00    +0.000 C 
ATOM     28  C   UNL     1       1.547   4.557  19.505  0.00  0.00    +0.000 C 
ENDBRANCH  25  26
ENDBRANCH  19  25
ENDBRANCH  17  19
ENDBRANCH   1  15
BRANCH   1  29
ATOM     29  C   UNL     1       7.308   6.866  17.352  0.00  0.00    +0.000 C 
BRANCH  29  30
ATOM     30  C   UNL     1       8.129   7.639  18.385  0.00  0.00    +0.000 C 
BRANCH  30  31
ATOM     31  C   UNL     1       8.432   9.057  17.906  0.00  0.00    +0.000 C 
BRANCH  31  32
ATOM     32  C   UNL     1       9.009   9.897  19.053  0.00  0.00    +0.000 C 
BRANCH  32  33
ATOM     33  N   UNL     1       9.275  11.293  18.678  0.00  0.00    +0.000 NA
ATOM     34  C   UNL     1      10.630  11.475  18.154  0.00  0.00    +0.000 C 
ATOM     35  C   UNL     1       8.297  11.726  17.675  0.00  0.00    +0.000 C 
ENDBRANCH  32  33
ENDBRANCH  31  32
ENDBRANCH  30  31
ENDBRANCH  29  30
ENDBRANCH   1  29
TORSDOF 15
ENDMDL
MODEL 2
REMARK VINA RESULT:      -7.2      0.989      1.005
REMARK  Name = 
REMARK  20 active torsions:
REMARK  status: ('A' for Active; 'I' for Inactive)
REMARK    1  A    between atoms: C_1  and  C_2
REMARK    2  A    between atoms: N_4  and  CA_5
REMARK    3  A    between atoms: CA_5  and  C_6
REMARK    4  A    between atoms: CA_5  and  C_8
REMARK    5  A    between atoms: C_6  and  O_7
REMARK    6  A    between atoms: N_10  and  C_11
REMARK    7  A    between atoms: C_11  and  C_12
REMARK    8  A    between atoms: C_11  and  C_19
REMARK    9  A    between atoms: C_12  and  C_13
REMARK   10  A    between atoms: C_13  and  C_14
REMARK   11  A    between atoms: C_14  and  C_15
REMARK   12  A    between atoms: C_15  and  N_16
REMARK   13  A    between atoms: N_16  and  C_17
REMARK   14  A    between atoms: N_16  and  C_18
REMARK   15  A    between atoms: N_21  and  C_22
REMARK   16  A    between atoms: C_22  and  C_23
REMARK   17  A    between atoms: C_22  and  C_27
REMARK   18  A    between atoms: C_23  and  C_24
REMARK   19  A    between atoms: C_24  and  C_25
REMARK   20  A    between atoms: C_24  and  C_26
REMARK                            x       y       z     vdW  Elec       q    Type
REMARK                         _______ _______ _______ _____ _____    ______ ____
ROOT
ATOM      1  C   UNL     1       6.867   5.787  17.591  0.00  0.00    +0.000 C 
ENDROOT
BRANCH   1   4
ATOM      2  C   UNL     1       6.394   5.326  15.204  0.00  0.00    +0.000 C 
ATOM      3  O   UNL     1       5.449   6.109  15.178  0.00  0.00    +0.000 OA
ATOM      4  N   UNL     1       7.158   5.108  16.333  0.00  0.00    +0.000 N 
ATOM      5  H   UNL     1       7.733   4.275  16.402  0.00  0.00    +0.000 HD
BRANCH   2   6
ATOM      6  CA  UNL     1       6.867   4.564  13.952  0.00  0.00    +0.000 C 
BRANCH   6  10
ATOM      7  C   UNL     1       4.504   2.833  11.527  0.00  0.00    +0.000 C 
ATOM      8  C   UNL     1       5.813   3.242  12.140  0.00  0.00    +0.000 C 
ATOM      9  O   UNL     1       6.897   2.891  11.684  0.00  0.00    +0.000 OA
ATOM     10  N   UNL     1       5.695   4.028  13.259  0.00  0.00    +0.000 N 
ATOM     11  H   UNL     1       4.780   4.322  13.588  0.00  0.00    +0.000 HD
ENDBRANCH   6  10
BRANCH   6  12
ATOM     12  C   UNL     1       7.660   5.523  13.048  0.00  0.00    +0.000 C 
BRANCH  12  13
ATOM     13  O   UNL     1       8.929   5.917  13.568  0.00  0.00    +0.000 OA
ATOM     14  H   UNL     1       8.816   6.656  14.186  0.00  0.00    +0.000 HD
ENDBRANCH  12  13
ENDBRANCH   6  12
ENDBRANCH   2   6
ENDBRANCH   1   4
BRANCH   1  15
ATOM     15  C   UNL     1       5.489   5.306  18.094  0.00  0.00    +0.000 C 
ATOM     16  O   UNL     1       4.581   6.094  18.350  0.00  0.00    +0.000 OA
ATOM     17  N   UNL     1       5.383   3.941  18.280  0.00  0.00    +0.000 N 
ATOM     18  H   UNL     1       5.981   3.335  17.727  0.00  0.00    +0.000 HD
BRANCH  17  19
ATOM     19  C   UNL     1       4.181   3.326  18.882  0.00  0.00    +0.000 C 
BRANCH  19  20
ATOM     20  C   UNL     1       4.526   1.941  19.495  0.00  0.00    +0.000 C 
ATOM     21  N   UNL     1       4.294   0.844  18.711  0.00  0.00    +0.000 N 
ATOM     22  O   UNL     1       5.003   1.776  20.612  0.00  0.00    +0.000 OA
ATOM     23  H   UNL     1       4.400   0.939  17.711  0.00  0.00    +0.000 HD
ATOM     24  H   UNL     1       4.632  -0.019  19.115  0.00  0.00    +0.000 HD
ENDBRANCH  19  20
BRANCH  19  25
ATOM     25  C   UNL     1       3.042   3.239  17.845  0.00  0.00    +0.000 C 
BRANCH  25  26
ATOM     26  C   UNL     1       1.629   3.598  18.358  0.00  0.00    +0.000 C 
ATOM     27  C   UNL     1       0.787   2.380  18.741  0.00  0.00    +0.000 C 
ATOM     28  C   UNL     1       1.711   4.560  19.548  0.00  0.00    +0.000 C 
ENDBRANCH  25  26
ENDBRANCH  19  25
ENDBRANCH  17  19
ENDBRANCH   1  15
BRANCH   1  29
ATOM     29  C   UNL     1       6.828   7.311  17.384  0.00  0.00    +0.000 C 
BRANCH  29  30
ATOM     30  C   UNL     1       8.222   7.937  17.438  0.00  0.00    +0.000 C 
BRANCH  30  31
ATOM     31  C   UNL     1       8.272   9.097  18.430  0.00  0.00    +0.000 C 
BRANCH  31  32
ATOM     32  C   UNL     1       9.017  10.291  17.820  0.00  0.00    +0.000 C 
BRANCH  32  33
ATOM     33  N   UNL     1       9.054  11.468  18.700  0.00  0.00    +0.000 NA
ATOM     34  C   UNL     1       9.831  11.222  19.916  0.00  0.00    +0.000 C 
ATOM     35  C   UNL     1       9.624  12.606  17.973  0.00  0.00    +0.000 C 
ENDBRANCH  32  33
ENDBRANCH  31  32
ENDBRANCH  30  31
ENDBRANCH  29  30
ENDBRANCH   1  29
TORSDOF 15
ENDMDL
MODEL 3
REMARK VINA RESULT:      -7.2      4.792      8.069
REMARK  Name = 
REMARK  20 active torsions:
REMARK  status: ('A' for Active; 'I' for Inactive)
REMARK    1  A    between atoms: C_1  and  C_2
REMARK    2  A    between atoms: N_4  and  CA_5
REMARK    3  A    between atoms: CA_5  and  C_6
REMARK    4  A    between atoms: CA_5  and  C_8
REMARK    5  A    between atoms: C_6  and  O_7
REMARK    6  A    between atoms: N_10  and  C_11
REMARK    7  A    between atoms: C_11  and  C_12
REMARK    8  A    between atoms: C_11  and  C_19
REMARK    9  A    between atoms: C_12  and  C_13
REMARK   10  A    between atoms: C_13  and  C_14
REMARK   11  A    between atoms: C_14  and  C_15
REMARK   12  A    between atoms: C_15  and  N_16
REMARK   13  A    between atoms: N_16  and  C_17
REMARK   14  A    between atoms: N_16  and  C_18
REMARK   15  A    between atoms: N_21  and  C_22
REMARK   16  A    between atoms: C_22  and  C_23
REMARK   17  A    between atoms: C_22  and  C_27
REMARK   18  A    between atoms: C_23  and  C_24
REMARK   19  A    between atoms: C_24  and  C_25
REMARK   20  A    between atoms: C_24  and  C_26
REMARK                            x       y       z     vdW  Elec       q    Type
REMARK                         _______ _______ _______ _____ _____    ______ ____
ROOT
ATOM      1  C   UNL     1       2.127   7.521  18.669  0.00  0.00    +0.000 C 
ENDROOT
BRANCH   1   4
ATOM      2  C   UNL     1       3.671   5.965  17.514  0.00  0.00    +0.000 C 
ATOM      3  O   UNL     1       2.866   5.040  17.555  0.00  0.00    +0.000 OA
ATOM      4  N   UNL     1       3.399   7.220  18.021  0.00  0.00    +0.000 N 
ATOM      5  H   UNL     1       4.160   7.861  18.221  0.00  0.00    +0.000 HD
BRANCH   2   6
ATOM      6  CA  UNL     1       5.041   5.835  16.823  0.00  0.00    +0.000 C 
BRANCH   6  10
ATOM      7  C   UNL     1       8.179   6.623  18.821  0.00  0.00    +0.000 C 
ATOM      8  C   UNL     1       7.174   6.730  17.709  0.00  0.00    +0.000 C 
ATOM      9  O   UNL     1       7.309   7.506  16.767  0.00  0.00    +0.000 OA
ATOM     10  N   UNL     1       6.088   5.902  17.842  0.00  0.00    +0.000 N 
ATOM     11  H   UNL     1       6.028   5.253  18.621  0.00  0.00    +0.000 HD
ENDBRANCH   6  10
BRANCH   6  12
ATOM     12  C   UNL     1       5.093   4.502  16.056  0.00  0.00    +0.000 C 
BRANCH  12  13
ATOM     13  O   UNL     1       5.185   3.343  16.881  0.00  0.00    +0.000 OA
ATOM     14  H   UNL     1       4.344   2.860  16.867  0.00  0.00    +0.000 HD
ENDBRANCH  12  13
ENDBRANCH   6  12
ENDBRANCH   2   6
ENDBRANCH   1   4
BRANCH   1  15
ATOM     15  C   UNL     1       1.714   8.958  18.281  0.00  0.00    +0.000 C 
ATOM     16  O   UNL     1       2.251   9.558  17.353  0.00  0.00    +0.000 OA
ATOM     17  N   UNL     1       0.744   9.521  19.088  0.00  0.00    +0.000 N 
ATOM     18  H   UNL     1       0.098   8.899  19.564  0.00  0.00    +0.000 HD
BRANCH  17  19
ATOM     19  C   UNL     1       0.330  10.932  18.941  0.00  0.00    +0.000 C 
BRANCH  19  20
ATOM     20  C   UNL     1       1.148  11.842  19.899  0.00  0.00    +0.000 C 
ATOM     21  N   UNL     1       1.782  12.917  19.338  0.00  0.00    +0.000 N 
ATOM     22  O   UNL     1       1.244  11.668  21.109  0.00  0.00    +0.000 OA
ATOM     23  H   UNL     1       1.351  13.365  18.542  0.00  0.00    +0.000 HD
ATOM     24  H   UNL     1       2.211  13.533  20.017  0.00  0.00    +0.000 HD
ENDBRANCH  19  20
BRANCH  19  25
ATOM     25  C   UNL     1      -1.190  11.074  19.156  0.00  0.00    +0.000 C 
BRANCH  25  26
ATOM     26  C   UNL     1      -2.046  11.211  17.876  0.00  0.00    +0.000 C 
ATOM     27  C   UNL     1      -1.990   9.983  16.965  0.00  0.00    +0.000 C 
ATOM     28  C   UNL     1      -3.504  11.521  18.229  0.00  0.00    +0.000 C 
ENDBRANCH  25  26
ENDBRANCH  19  25
ENDBRANCH  17  19
ENDBRANCH   1  15
BRANCH   1  29
ATOM     29  C   UNL     1       2.267   7.429  20.198  0.00  0.00    +0.000 C 
BRANCH  29  30
ATOM     30  C   UNL     1       1.308   6.403  20.804  0.00  0.00    +0.000 C 
BRANCH  30  31
ATOM     31  C   UNL     1       1.933   5.010  20.835  0.00  0.00    +0.000 C 
BRANCH  31  32
ATOM     32  C   UNL     1       0.947   3.969  20.288  0.00  0.00    +0.000 C 
BRANCH  32  33
ATOM     33  N   UNL     1       1.388   2.582  20.495  0.00  0.00    +0.000 NA
ATOM     34  C   UNL     1       1.920   1.983  19.270  0.00  0.00    +0.000 C 
ATOM     35  C   UNL     1       2.410   2.544  21.546  0.00  0.00    +0.000 C 
ENDBRANCH  32  33
ENDBRANCH  31  32
ENDBRANCH  30  31
ENDBRANCH  29  30
ENDBRANCH   1  29
TORSDOF 15
ENDMDL
MODEL 4
REMARK VINA RESULT:      -7.2      1.590      2.301
REMARK  Name = 
REMARK  20 active torsions:
REMARK  status: ('A' for Active; 'I' for Inactive)
REMARK    1  A    between atoms: C_1  and  C_2
REMARK    2  A    between atoms: N_4  and  CA_5
REMARK    3  A    between atoms: CA_5  and  C_6
REMARK    4  A    between atoms: CA_5  and  C_8
REMARK    5  A    between atoms: C_6  and  O_7
REMARK    6  A    between atoms: N_10  and  C_11
REMARK    7  A    between atoms: C_11  and  C_12
REMARK    8  A    between atoms: C_11  and  C_19
REMARK    9  A    between atoms: C_12  and  C_13
REMARK   10  A    between atoms: C_13  and  C_14
REMARK   11  A    between atoms: C_14  and  C_15
REMARK   12  A    between atoms: C_15  and  N_16
REMARK   13  A    between atoms: N_16  and  C_17
REMARK   14  A    between atoms: N_16  and  C_18
REMARK   15  A    between atoms: N_21  and  C_22
REMARK   16  A    between atoms: C_22  and  C_23
REMARK   17  A    between atoms: C_22  and  C_27
REMARK   18  A    between atoms: C_23  and  C_24
REMARK   19  A    between atoms: C_24  and  C_25
REMARK   20  A    between atoms: C_24  and  C_26
REMARK                            x       y       z     vdW  Elec       q    Type
REMARK                         _______ _______ _______ _____ _____    ______ ____
ROOT
ATOM      1  C   UNL     1       8.063   6.374  18.322  0.00  0.00    +0.000 C 
ENDROOT
BRANCH   1   4
ATOM      2  C   UNL     1       7.216   5.455  16.184  0.00  0.00    +0.000 C 
ATOM      3  O   UNL     1       7.649   4.332  16.425  0.00  0.00    +0.000 OA
ATOM      4  N   UNL     1       7.356   6.517  17.054  0.00  0.00    +0.000 N 
ATOM      5  H   UNL     1       7.242   7.466  16.715  0.00  0.00    +0.000 HD
BRANCH   2   6
ATOM      6  CA  UNL     1       6.403   5.768  14.914  0.00  0.00    +0.000 C 
BRANCH   6  10
ATOM      7  C   UNL     1       6.269   2.921  12.396  0.00  0.00    +0.000 C 
ATOM      8  C   UNL     1       6.711   4.223  13.001  0.00  0.00    +0.000 C 
ATOM      9  O   UNL     1       7.533   4.958  12.462  0.00  0.00    +0.000 OA
ATOM     10  N   UNL     1       6.132   4.515  14.210  0.00  0.00    +0.000 N 
ATOM     11  H   UNL     1       5.432   3.895  14.609  0.00  0.00    +0.000 HD
ENDBRANCH   6  10
BRANCH   6  12
ATOM     12  C   UNL     1       5.099   6.479  15.312  0.00  0.00    +0.000 C 
BRANCH  12  13
ATOM     13  O   UNL     1       4.464   5.951  16.475  0.00  0.00    +0.000 OA
ATOM     14  H   UNL     1       5.076   5.982  17.227  0.00  0.00    +0.000 HD
ENDBRANCH  12  13
ENDBRANCH   6  12
ENDBRANCH   2   6
ENDBRANCH   1   4
BRANCH   1  15
ATOM     15  C   UNL     1       7.131   5.646  19.316  0.00  0.00    +0.000 C 
ATOM     16  O   UNL     1       7.548   5.177  20.372  0.00  0.00    +0.000 OA
ATOM     17  N   UNL     1       5.820   5.521  18.896  0.00  0.00    +0.000 N 
ATOM     18  H   UNL     1       5.458   6.212  18.246  0.00  0.00    +0.000 HD
BRANCH  17  19
ATOM     19  C   UNL     1       4.828   4.737  19.662  0.00  0.00    +0.000 C 
BRANCH  19  20
ATOM     20  C   UNL     1       4.796   3.265  19.164  0.00  0.00    +0.000 C 
ATOM     21  N   UNL     1       4.872   3.070  17.812  0.00  0.00    +0.000 N 
ATOM     22  O   UNL     1       4.727   2.286  19.898  0.00  0.00    +0.000 OA
ATOM     23  H   UNL     1       5.409   3.724  17.263  0.00  0.00    +0.000 HD
ATOM     24  H   UNL     1       4.953   2.096  17.549  0.00  0.00    +0.000 HD
ENDBRANCH  19  20
BRANCH  19  25
ATOM     25  C   UNL     1       3.441   5.408  19.593  0.00  0.00    +0.000 C 
BRANCH  25  26
ATOM     26  C   UNL     1       2.239   4.460  19.382  0.00  0.00    +0.000 C 
ATOM     27  C   UNL     1       1.177   4.559  20.480  0.00  0.00    +0.000 C 
ATOM     28  C   UNL     1       1.588   4.705  18.017  0.00  0.00    +0.000 C 
ENDBRANCH  25  26
ENDBRANCH  19  25
ENDBRANCH  17  19
ENDBRANCH   1  15
BRANCH   1  29
ATOM     29  C   UNL     1       8.432   7.755  18.891  0.00  0.00    +0.000 C 
BRANCH  29  30
ATOM     30  C   UNL     1       8.194   8.877  17.881  0.00  0.00    +0.000 C 
BRANCH  30  31
ATOM     31  C   UNL     1       8.887  10.168  18.313  0.00  0.00    +0.000 C 
BRANCH  31  32
ATOM     32  C   UNL     1       8.243  11.378  17.623  0.00  0.00    +0.000 C 
BRANCH  32  33
ATOM     33  N   UNL     1       9.052  12.601  17.713  0.00  0.00    +0.000 NA
ATOM     34  C   UNL     1       8.822  13.325  18.964  0.00  0.00    +0.000 C 
ATOM     35  C   UNL     1      10.473  12.258  17.596  0.00  0.00    +0.000 C 
ENDBRANCH  32  33
ENDBRANCH  31  32
ENDBRANCH  30  31
ENDBRANCH  29  30
ENDBRANCH   1  29
TORSDOF 15
ENDMDL
MODEL 5
REMARK VINA RESULT:      -7.1      4.698      7.461
REMARK  Name = 
REMARK  20 active torsions:
REMARK  status: ('A' for Active; 'I' for Inactive)
REMARK    1  A    between atoms: C_1  and  C_2
REMARK    2  A    between atoms: N_4  and  CA_5
REMARK    3  A    between atoms: CA_5  and  C_6
REMARK    4  A    between atoms: CA_5  and  C_8
REMARK    5  A    between atoms: C_6  and  O_7
REMARK    6  A    between atoms: N_10  and  C_11
REMARK    7  A    between atoms: C_11  and  C_12
REMARK    8  A    between atoms: C_11  and  C_19
REMARK    9  A    between atoms: C_12  and  C_13
REMARK   10  A    between atoms: C_13  and  C_14
REMARK   11  A    between atoms: C_14  and  C_15
REMARK   12  A    between atoms: C_15  and  N_16
REMARK   13  A    between atoms: N_16  and  C_17
REMARK   14  A    between atoms: N_16  and  C_18
REMARK   15  A    between atoms: N_21  and  C_22
REMARK   16  A    between atoms: C_22  and  C_23
REMARK   17  A    between atoms: C_22  and  C_27
REMARK   18  A    between atoms: C_23  and  C_24
REMARK   19  A    between atoms: C_24  and  C_25
REMARK   20  A    between atoms: C_24  and  C_26
REMARK                            x       y       z     vdW  Elec       q    Type
REMARK                         _______ _______ _______ _____ _____    ______ ____
ROOT
ATOM      1  C   UNL     1       2.364   6.963  18.565  0.00  0.00    +0.000 C 
ENDROOT
BRANCH   1   4
ATOM      2  C   UNL     1       4.174   5.694  17.446  0.00  0.00    +0.000 C 
ATOM      3  O   UNL     1       3.450   4.724  17.243  0.00  0.00    +0.000 OA
ATOM      4  N   UNL     1       3.733   6.842  18.074  0.00  0.00    +0.000 N 
ATOM      5  H   UNL     1       4.404   7.493  18.467  0.00  0.00    +0.000 HD
BRANCH   2   6
ATOM      6  CA  UNL     1       5.630   5.752  16.950  0.00  0.00    +0.000 C 
BRANCH   6  10
ATOM      7  C   UNL     1       6.696   4.326  13.590  0.00  0.00    +0.000 C 
ATOM      8  C   UNL     1       6.814   4.716  15.036  0.00  0.00    +0.000 C 
ATOM      9  O   UNL     1       7.841   4.545  15.687  0.00  0.00    +0.000 OA
ATOM     10  N   UNL     1       5.677   5.264  15.572  0.00  0.00    +0.000 N 
ATOM     11  H   UNL     1       4.856   5.417  14.992  0.00  0.00    +0.000 HD
ENDBRANCH   6  10
BRANCH   6  12
ATOM     12  C   UNL     1       6.138   7.201  17.047  0.00  0.00    +0.000 C 
BRANCH  12  13
ATOM     13  O   UNL     1       7.557   7.338  17.018  0.00  0.00    +0.000 OA
ATOM     14  H   UNL     1       7.835   7.712  16.167  0.00  0.00    +0.000 HD
ENDBRANCH  12  13
ENDBRANCH   6  12
ENDBRANCH   2   6
ENDBRANCH   1   4
BRANCH   1  15
ATOM     15  C   UNL     1       1.916   8.431  18.389  0.00  0.00    +0.000 C 
ATOM     16  O   UNL     1       2.227   9.089  17.400  0.00  0.00    +0.000 OA
ATOM     17  N   UNL     1       1.194   8.947  19.448  0.00  0.00    +0.000 N 
ATOM     18  H   UNL     1       0.664   8.302  20.026  0.00  0.00    +0.000 HD
BRANCH  17  19
ATOM     19  C   UNL     1       0.803  10.372  19.504  0.00  0.00    +0.000 C 
BRANCH  19  20
ATOM     20  C   UNL     1       0.894  10.905  20.961  0.00  0.00    +0.000 C 
ATOM     21  N   UNL     1       0.354  10.117  21.940  0.00  0.00    +0.000 N 
ATOM     22  O   UNL     1       1.428  11.961  21.281  0.00  0.00    +0.000 OA
ATOM     23  H   UNL     1       0.382   9.115  21.819  0.00  0.00    +0.000 HD
ATOM     24  H   UNL     1       0.532  10.458  22.876  0.00  0.00    +0.000 HD
ENDBRANCH  19  20
BRANCH  19  25
ATOM     25  C   UNL     1      -0.600  10.572  18.894  0.00  0.00    +0.000 C 
BRANCH  25  26
ATOM     26  C   UNL     1      -1.250  11.954  19.128  0.00  0.00    +0.000 C 
ATOM     27  C   UNL     1      -0.632  13.074  18.288  0.00  0.00    +0.000 C 
ATOM     28  C   UNL     1      -2.759  11.894  18.871  0.00  0.00    +0.000 C 
ENDBRANCH  25  26
ENDBRANCH  19  25
ENDBRANCH  17  19
ENDBRANCH   1  15
BRANCH   1  29
ATOM     29  C   UNL     1       2.291   6.585  20.054  0.00  0.00    +0.000 C 
BRANCH  29  30
ATOM     30  C   UNL     1       1.568   5.257  20.277  0.00  0.00    +0.000 C 
BRANCH  30  31
ATOM     31  C   UNL     1       2.242   4.435  21.374  0.00  0.00    +0.000 C 
BRANCH  31  32
ATOM     32  C   UNL     1       2.316   2.958  20.966  0.00  0.00    +0.000 C 
BRANCH  32  33
ATOM     33  N   UNL     1       3.112   2.727  19.752  0.00  0.00    +0.000 NA
ATOM     34  C   UNL     1       4.432   2.171  20.055  0.00  0.00    +0.000 C 
ATOM     35  C   UNL     1       2.389   1.817  18.858  0.00  0.00    +0.000 C 
ENDBRANCH  32  33
ENDBRANCH  31  32
ENDBRANCH  30  31
ENDBRANCH  29  30
ENDBRANCH   1  29
TORSDOF 15
ENDMDL
MODEL 6
REMARK VINA RESULT:      -7.1      4.479      7.477
REMARK  Name = 
REMARK  20 active torsions:
REMARK  status: ('A' for Active; 'I' for Inactive)
REMARK    1  A    between atoms: C_1  and  C_2
REMARK    2  A    between atoms: N_4  and  CA_5
REMARK    3  A    between atoms: CA_5  and  C_6
REMARK    4  A    between atoms: CA_5  and  C_8
REMARK    5  A    between atoms: C_6  and  O_7
REMARK    6  A    between atoms: N_10  and  C_11
REMARK    7  A    between atoms: C_11  and  C_12
REMARK    8  A    between atoms: C_11  and  C_19
REMARK    9  A    between atoms: C_12  and  C_13
REMARK   10  A    between atoms: C_13  and  C_14
REMARK   11  A    between atoms: C_14  and  C_15
REMARK   12  A    between atoms: C_15  and  N_16
REMARK   13  A    between atoms: N_16  and  C_17
REMARK   14  A    between atoms: N_16  and  C_18
REMARK   15  A    between atoms: N_21  and  C_22
REMARK   16  A    between atoms: C_22  and  C_23
REMARK   17  A    between atoms: C_22  and  C_27
REMARK   18  A    between atoms: C_23  and  C_24
REMARK   19  A    between atoms: C_24  and  C_25
REMARK   20  A    between atoms: C_24  and  C_26
REMARK                            x       y       z     vdW  Elec       q    Type
REMARK                         _______ _______ _______ _____ _____    ______ ____
ROOT
ATOM      1  C   UNL     1       2.423   7.040  18.601  0.00  0.00    +0.000 C 
ENDROOT
BRANCH   1   4
ATOM      2  C   UNL     1       4.372   5.938  17.541  0.00  0.00    +0.000 C 
ATOM      3  O   UNL     1       3.742   4.910  17.313  0.00  0.00    +0.000 OA
ATOM      4  N   UNL     1       3.812   7.040  18.156  0.00  0.00    +0.000 N 
ATOM      5  H   UNL     1       4.411   7.745  18.573  0.00  0.00    +0.000 HD
BRANCH   2   6
ATOM      6  CA  UNL     1       5.833   6.125  17.094  0.00  0.00    +0.000 C 
BRANCH   6  10
ATOM      7  C   UNL     1       6.950   4.697  13.751  0.00  0.00    +0.000 C 
ATOM      8  C   UNL     1       6.957   4.933  15.235  0.00  0.00    +0.000 C 
ATOM      9  O   UNL     1       7.793   4.432  15.982  0.00  0.00    +0.000 OA
ATOM     10  N   UNL     1       5.946   5.743  15.687  0.00  0.00    +0.000 N 
ATOM     11  H   UNL     1       5.292   6.163  15.033  0.00  0.00    +0.000 HD
ENDBRANCH   6  10
BRANCH   6  12
ATOM     12  C   UNL     1       6.242   7.592  17.310  0.00  0.00    +0.000 C 
BRANCH  12  13
ATOM     13  O   UNL     1       7.612   7.874  17.032  0.00  0.00    +0.000 OA
ATOM     14  H   UNL     1       8.179   7.420  17.675  0.00  0.00    +0.000 HD
ENDBRANCH  12  13
ENDBRANCH   6  12
ENDBRANCH   2   6
ENDBRANCH   1   4
BRANCH   1  15
ATOM     15  C   UNL     1       1.851   8.460  18.402  0.00  0.00    +0.000 C 
ATOM     16  O   UNL     1       2.116   9.133  17.409  0.00  0.00    +0.000 OA
ATOM     17  N   UNL     1       1.074   8.924  19.446  0.00  0.00    +0.000 N 
ATOM     18  H   UNL     1       0.595   8.243  20.026  0.00  0.00    +0.000 HD
BRANCH  17  19
ATOM     19  C   UNL     1       0.560  10.310  19.480  0.00  0.00    +0.000 C 
BRANCH  19  20
ATOM     20  C   UNL     1       1.035  11.035  20.770  0.00  0.00    +0.000 C 
ATOM     21  N   UNL     1       1.171  12.395  20.699  0.00  0.00    +0.000 N 
ATOM     22  O   UNL     1       1.272  10.475  21.834  0.00  0.00    +0.000 OA
ATOM     23  H   UNL     1       0.549  12.908  20.091  0.00  0.00    +0.000 HD
ATOM     24  H   UNL     1       1.379  12.827  21.590  0.00  0.00    +0.000 HD
ENDBRANCH  19  20
BRANCH  19  25
ATOM     25  C   UNL     1      -0.975  10.321  19.334  0.00  0.00    +0.000 C 
BRANCH  25  26
ATOM     26  C   UNL     1      -1.527  10.911  18.016  0.00  0.00    +0.000 C 
ATOM     27  C   UNL     1      -1.879   9.851  16.969  0.00  0.00    +0.000 C 
ATOM     28  C   UNL     1      -2.751  11.791  18.286  0.00  0.00    +0.000 C 
ENDBRANCH  25  26
ENDBRANCH  19  25
ENDBRANCH  17  19
ENDBRANCH   1  15
BRANCH   1  29
ATOM     29  C   UNL     1       2.335   6.661  20.090  0.00  0.00    +0.000 C 
BRANCH  29  30
ATOM     30  C   UNL     1       1.595   5.340  20.306  0.00  0.00    +0.000 C 
BRANCH  30  31
ATOM     31  C   UNL     1       2.484   4.315  21.008  0.00  0.00    +0.000 C 
BRANCH  31  32
ATOM     32  C   UNL     1       2.098   2.893  20.583  0.00  0.00    +0.000 C 
BRANCH  32  33
ATOM     33  N   UNL     1       2.081   2.703  19.125  0.00  0.00    +0.000 NA
ATOM     34  C   UNL     1       3.114   1.767  18.679  0.00  0.00    +0.000 C 
ATOM     35  C   UNL     1       0.763   2.216  18.709  0.00  0.00    +0.000 C 
ENDBRANCH  32  33
ENDBRANCH  31  32
ENDBRANCH  30  31
ENDBRANCH  29  30
ENDBRANCH   1  29
TORSDOF 15
ENDMDL
MODEL 7
REMARK VINA RESULT:      -7.1      1.728      5.954
REMARK  Name = 
REMARK  20 active torsions:
REMARK  status: ('A' for Active; 'I' for Inactive)
REMARK    1  A    between atoms: C_1  and  C_2
REMARK    2  A    between atoms: N_4  and  CA_5
REMARK    3  A    between atoms: CA_5  and  C_6
REMARK    4  A    between atoms: CA_5  and  C_8
REMARK    5  A    between atoms: C_6  and  O_7
REMARK    6  A    between atoms: N_10  and  C_11
REMARK    7  A    between atoms: C_11  and  C_12
REMARK    8  A    between atoms: C_11  and  C_19
REMARK    9  A    between atoms: C_12  and  C_13
REMARK   10  A    between atoms: C_13  and  C_14
REMARK   11  A    between atoms: C_14  and  C_15
REMARK   12  A    between atoms: C_15  and  N_16
REMARK   13  A    between atoms: N_16  and  C_17
REMARK   14  A    between atoms: N_16  and  C_18
REMARK   15  A    between atoms: N_21  and  C_22
REMARK   16  A    between atoms: C_22  and  C_23
REMARK   17  A    between atoms: C_22  and  C_27
REMARK   18  A    between atoms: C_23  and  C_24
REMARK   19  A    between atoms: C_24  and  C_25
REMARK   20  A    between atoms: C_24  and  C_26
REMARK                            x       y       z     vdW  Elec       q    Type
REMARK                         _______ _______ _______ _____ _____    ______ ____
ROOT
ATOM      1  C   UNL     1       6.366   5.615  17.560  0.00  0.00    +0.000 C 
ENDROOT
BRANCH   1   4
ATOM      2  C   UNL     1       4.649   4.077  18.467  0.00  0.00    +0.000 C 
ATOM      3  O   UNL     1       3.963   4.148  17.453  0.00  0.00    +0.000 OA
ATOM      4  N   UNL     1       5.847   4.748  18.611  0.00  0.00    +0.000 N 
ATOM      5  H   UNL     1       6.238   4.890  19.537  0.00  0.00    +0.000 HD
BRANCH   2   6
ATOM      6  CA  UNL     1       4.274   3.169  19.653  0.00  0.00    +0.000 C 
BRANCH   6  10
ATOM      7  C   UNL     1       0.760   2.982  21.095  0.00  0.00    +0.000 C 
ATOM      8  C   UNL     1       2.258   2.864  21.060  0.00  0.00    +0.000 C 
ATOM      9  O   UNL     1       2.912   2.452  22.014  0.00  0.00    +0.000 OA
ATOM     10  N   UNL     1       2.833   3.268  19.882  0.00  0.00    +0.000 N 
ATOM     11  H   UNL     1       2.254   3.574  19.105  0.00  0.00    +0.000 HD
ENDBRANCH   6  10
BRANCH   6  12
ATOM     12  C   UNL     1       4.691   1.724  19.332  0.00  0.00    +0.000 C 
BRANCH  12  13
ATOM     13  O   UNL     1       4.012   1.141  18.221  0.00  0.00    +0.000 OA
ATOM     14  H   UNL     1       3.650   0.277  18.472  0.00  0.00    +0.000 HD
ENDBRANCH  12  13
ENDBRANCH   6  12
ENDBRANCH   2   6
ENDBRANCH   1   4
BRANCH   1  15
ATOM     15  C   UNL     1       6.815   4.728  16.378  0.00  0.00    +0.000 C 
ATOM     16  O   UNL     1       7.856   4.077  16.417  0.00  0.00    +0.000 OA
ATOM     17  N   UNL     1       5.988   4.772  15.272  0.00  0.00    +0.000 N 
ATOM     18  H   UNL     1       5.009   4.999  15.415  0.00  0.00    +0.000 HD
BRANCH  17  19
ATOM     19  C   UNL     1       6.340   4.090  14.008  0.00  0.00    +0.000 C 
BRANCH  19  20
ATOM     20  C   UNL     1       7.403   4.909  13.225  0.00  0.00    +0.000 C 
ATOM     21  N   UNL     1       8.213   5.731  13.960  0.00  0.00    +0.000 N 
ATOM     22  O   UNL     1       7.569   4.851  12.012  0.00  0.00    +0.000 OA
ATOM     23  H   UNL     1       8.456   5.449  14.899  0.00  0.00    +0.000 HD
ATOM     24  H   UNL     1       8.952   6.159  13.419  0.00  0.00    +0.000 HD
ENDBRANCH  19  20
BRANCH  19  25
ATOM     25  C   UNL     1       5.073   3.822  13.169  0.00  0.00    +0.000 C 
BRANCH  25  26
ATOM     26  C   UNL     1       5.306   3.229  11.761  0.00  0.00    +0.000 C 
ATOM     27  C   UNL     1       6.023   1.877  11.775  0.00  0.00    +0.000 C 
ATOM     28  C   UNL     1       3.982   3.099  11.002  0.00  0.00    +0.000 C 
ENDBRANCH  25  26
ENDBRANCH  19  25
ENDBRANCH  17  19
ENDBRANCH   1  15
BRANCH   1  29
ATOM     29  C   UNL     1       7.569   6.424  18.074  0.00  0.00    +0.000 C 
BRANCH  29  30
ATOM     30  C   UNL     1       7.918   7.591  17.149  0.00  0.00    +0.000 C 
BRANCH  30  31
ATOM     31  C   UNL     1       7.702   8.933  17.845  0.00  0.00    +0.000 C 
BRANCH  31  32
ATOM     32  C   UNL     1       8.913   9.284  18.719  0.00  0.00    +0.000 C 
BRANCH  32  33
ATOM     33  N   UNL     1       9.067  10.726  18.953  0.00  0.00    +0.000 NA
ATOM     34  C   UNL     1       9.456  11.023  20.333  0.00  0.00    +0.000 C 
ATOM     35  C   UNL     1      10.069  11.269  18.031  0.00  0.00    +0.000 C 
ENDBRANCH  32  33
ENDBRANCH  31  32
ENDBRANCH  30  31
ENDBRANCH  29  30
ENDBRANCH   1  29
TORSDOF 15
ENDMDL
MODEL 8
REMARK VINA RESULT:      -7.0      3.662      8.209
REMARK  Name = 
REMARK  20 active torsions:
REMARK  status: ('A' for Active; 'I' for Inactive)
REMARK    1  A    between atoms: C_1  and  C_2
REMARK    2  A    between atoms: N_4  and  CA_5
REMARK    3  A    between atoms: CA_5  and  C_6
REMARK    4  A    between atoms: CA_5  and  C_8
REMARK    5  A    between atoms: C_6  and  O_7
REMARK    6  A    between atoms: N_10  and  C_11
REMARK    7  A    between atoms: C_11  and  C_12
REMARK    8  A    between atoms: C_11  and  C_19
REMARK    9  A    between atoms: C_12  and  C_13
REMARK   10  A    between atoms: C_13  and  C_14
REMARK   11  A    between atoms: C_14  and  C_15
REMARK   12  A    between atoms: C_15  and  N_16
REMARK   13  A    between atoms: N_16  and  C_17
REMARK   14  A    between atoms: N_16  and  C_18
REMARK   15  A    between atoms: N_21  and  C_22
REMARK   16  A    between atoms: C_22  and  C_23
REMARK   17  A    between atoms: C_22  and  C_27
REMARK   18  A    between atoms: C_23  and  C_24
REMARK   19  A    between atoms: C_24  and  C_25
REMARK   20  A    between atoms: C_24  and  C_26
REMARK                            x       y       z     vdW  Elec       q    Type
REMARK                         _______ _______ _______ _____ _____    ______ ____
ROOT
ATOM      1  C   UNL     1       2.770   5.966  18.687  0.00  0.00    +0.000 C 
ENDROOT
BRANCH   1   4
ATOM      2  C   UNL     1       1.714   7.603  20.218  0.00  0.00    +0.000 C 
ATOM      3  O   UNL     1       1.418   6.738  21.036  0.00  0.00    +0.000 OA
ATOM      4  N   UNL     1       2.386   7.328  19.044  0.00  0.00    +0.000 N 
ATOM      5  H   UNL     1       2.367   7.997  18.282  0.00  0.00    +0.000 HD
BRANCH   2   6
ATOM      6  CA  UNL     1       1.428   9.097  20.459  0.00  0.00    +0.000 C 
BRANCH   6  10
ATOM      7  C   UNL     1      -1.031  10.910  18.195  0.00  0.00    +0.000 C 
ATOM      8  C   UNL     1       0.264  10.637  18.906  0.00  0.00    +0.000 C 
ATOM      9  O   UNL     1       1.242  11.374  18.809  0.00  0.00    +0.000 OA
ATOM     10  N   UNL     1       0.270   9.489  19.657  0.00  0.00    +0.000 N 
ATOM     11  H   UNL     1      -0.570   8.921  19.735  0.00  0.00    +0.000 HD
ENDBRANCH   6  10
BRANCH   6  12
ATOM     12  C   UNL     1       1.172   9.324  21.959  0.00  0.00    +0.000 C 
BRANCH  12  13
ATOM     13  O   UNL     1       2.321   9.167  22.789  0.00  0.00    +0.000 OA
ATOM     14  H   UNL     1       2.785  10.015  22.873  0.00  0.00    +0.000 HD
ENDBRANCH  12  13
ENDBRANCH   6  12
ENDBRANCH   2   6
ENDBRANCH   1   4
BRANCH   1  15
ATOM     15  C   UNL     1       4.137   6.021  17.972  0.00  0.00    +0.000 C 
ATOM     16  O   UNL     1       4.585   7.067  17.507  0.00  0.00    +0.000 OA
ATOM     17  N   UNL     1       4.778   4.803  17.853  0.00  0.00    +0.000 N 
ATOM     18  H   UNL     1       4.574   4.085  18.541  0.00  0.00    +0.000 HD
BRANCH  17  19
ATOM     19  C   UNL     1       6.030   4.652  17.080  0.00  0.00    +0.000 C 
BRANCH  19  20
ATOM     20  C   UNL     1       7.214   5.329  17.824  0.00  0.00    +0.000 C 
ATOM     21  N   UNL     1       7.523   6.610  17.456  0.00  0.00    +0.000 N 
ATOM     22  O   UNL     1       7.865   4.800  18.719  0.00  0.00    +0.000 OA
ATOM     23  H   UNL     1       6.774   7.214  17.148  0.00  0.00    +0.000 HD
ATOM     24  H   UNL     1       8.229   7.039  18.040  0.00  0.00    +0.000 HD
ENDBRANCH  19  20
BRANCH  19  25
ATOM     25  C   UNL     1       5.850   5.199  15.649  0.00  0.00    +0.000 C 
BRANCH  25  26
ATOM     26  C   UNL     1       6.521   4.382  14.522  0.00  0.00    +0.000 C 
ATOM     27  C   UNL     1       5.529   3.785  13.521  0.00  0.00    +0.000 C 
ATOM     28  C   UNL     1       7.553   5.233  13.775  0.00  0.00    +0.000 C 
ENDBRANCH  25  26
ENDBRANCH  19  25
ENDBRANCH  17  19
ENDBRANCH   1  15
BRANCH   1  29
ATOM     29  C   UNL     1       1.727   5.344  17.742  0.00  0.00    +0.000 C 
BRANCH  29  30
ATOM     30  C   UNL     1       1.368   3.913  18.142  0.00  0.00    +0.000 C 
BRANCH  30  31
ATOM     31  C   UNL     1       1.484   3.713  19.652  0.00  0.00    +0.000 C 
BRANCH  31  32
ATOM     32  C   UNL     1       2.249   2.419  19.962  0.00  0.00    +0.000 C 
BRANCH  32  33
ATOM     33  N   UNL     1       3.594   2.381  19.373  0.00  0.00    +0.000 NA
ATOM     34  C   UNL     1       4.630   2.134  20.378  0.00  0.00    +0.000 C 
ATOM     35  C   UNL     1       3.650   1.338  18.343  0.00  0.00    +0.000 C 
ENDBRANCH  32  33
ENDBRANCH  31  32
ENDBRANCH  30  31
ENDBRANCH  29  30
ENDBRANCH   1  29
TORSDOF 15
ENDMDL
MODEL 9
REMARK VINA RESULT:      -7.0      4.641      7.442
REMARK  Name = 
REMARK  20 active torsions:
REMARK  status: ('A' for Active; 'I' for Inactive)
REMARK    1  A    between atoms: C_1  and  C_2
REMARK    2  A    between atoms: N_4  and  CA_5
REMARK    3  A    between atoms: CA_5  and  C_6
REMARK    4  A    between atoms: CA_5  and  C_8
REMARK    5  A    between atoms: C_6  and  O_7
REMARK    6  A    between atoms: N_10  and  C_11
REMARK    7  A    between atoms: C_11  and  C_12
REMARK    8  A    between atoms: C_11  and  C_19
REMARK    9  A    between atoms: C_12  and  C_13
REMARK   10  A    between atoms: C_13  and  C_14
REMARK   11  A    between atoms: C_14  and  C_15
REMARK   12  A    between atoms: C_15  and  N_16
REMARK   13  A    between atoms: N_16  and  C_17
REMARK   14  A    between atoms: N_16  and  C_18
REMARK   15  A    between atoms: N_21  and  C_22
REMARK   16  A    between atoms: C_22  and  C_23
REMARK   17  A    between atoms: C_22  and  C_27
REMARK   18  A    between atoms: C_23  and  C_24
REMARK   19  A    between atoms: C_24  and  C_25
REMARK   20  A    between atoms: C_24  and  C_26
REMARK                            x       y       z     vdW  Elec       q    Type
REMARK                         _______ _______ _______ _____ _____    ______ ____
ROOT
ATOM      1  C   UNL     1       2.199   7.325  18.650  0.00  0.00    +0.000 C 
ENDROOT
BRANCH   1   4
ATOM      2  C   UNL     1       3.876   5.863  17.561  0.00  0.00    +0.000 C 
ATOM      3  O   UNL     1       3.053   4.980  17.342  0.00  0.00    +0.000 OA
ATOM      4  N   UNL     1       3.554   7.052  18.184  0.00  0.00    +0.000 N 
ATOM      5  H   UNL     1       4.287   7.623  18.592  0.00  0.00    +0.000 HD
BRANCH   2   6
ATOM      6  CA  UNL     1       5.339   5.758  17.092  0.00  0.00    +0.000 C 
BRANCH   6  10
ATOM      7  C   UNL     1       6.347   4.020  13.864  0.00  0.00    +0.000 C 
ATOM      8  C   UNL     1       6.487   4.535  15.268  0.00  0.00    +0.000 C 
ATOM      9  O   UNL     1       7.517   4.406  15.922  0.00  0.00    +0.000 OA
ATOM     10  N   UNL     1       5.363   5.148  15.763  0.00  0.00    +0.000 N 
ATOM     11  H   UNL     1       4.539   5.263  15.179  0.00  0.00    +0.000 HD
ENDBRANCH   6  10
BRANCH   6  12
ATOM     12  C   UNL     1       5.964   7.164  17.074  0.00  0.00    +0.000 C 
BRANCH  12  13
ATOM     13  O   UNL     1       7.386   7.182  16.966  0.00  0.00    +0.000 OA
ATOM     14  H   UNL     1       7.779   7.389  17.829  0.00  0.00    +0.000 HD
ENDBRANCH  12  13
ENDBRANCH   6  12
ENDBRANCH   2   6
ENDBRANCH   1   4
BRANCH   1  15
ATOM     15  C   UNL     1       1.911   8.828  18.443  0.00  0.00    +0.000 C 
ATOM     16  O   UNL     1       2.290   9.430  17.441  0.00  0.00    +0.000 OA
ATOM     17  N   UNL     1       1.250   9.441  19.490  0.00  0.00    +0.000 N 
ATOM     18  H   UNL     1       0.655   8.869  20.081  0.00  0.00    +0.000 HD
BRANCH  17  19
ATOM     19  C   UNL     1       1.014  10.901  19.517  0.00  0.00    +0.000 C 
BRANCH  19  20
ATOM     20  C   UNL     1       0.637  11.366  20.951  0.00  0.00    +0.000 C 
ATOM     21  N   UNL     1       0.237  12.666  21.092  0.00  0.00    +0.000 N 
ATOM     22  O   UNL     1       0.658  10.645  21.942  0.00  0.00    +0.000 OA
ATOM     23  H   UNL     1      -0.259  13.101  20.327  0.00  0.00    +0.000 HD
ATOM     24  H   UNL     1      -0.095  12.888  22.021  0.00  0.00    +0.000 HD
ENDBRANCH  19  20
BRANCH  19  25
ATOM     25  C   UNL     1      -0.053  11.294  18.475  0.00  0.00    +0.000 C 
BRANCH  25  26
ATOM     26  C   UNL     1      -1.422  10.589  18.606  0.00  0.00    +0.000 C 
ATOM     27  C   UNL     1      -2.566  11.532  18.982  0.00  0.00    +0.000 C 
ATOM     28  C   UNL     1      -1.775   9.845  17.313  0.00  0.00    +0.000 C 
ENDBRANCH  25  26
ENDBRANCH  19  25
ENDBRANCH  17  19
ENDBRANCH   1  15
BRANCH   1  29
ATOM     29  C   UNL     1       2.064   6.983  20.143  0.00  0.00    +0.000 C 
BRANCH  29  30
ATOM     30  C   UNL     1       1.450   5.601  20.366  0.00  0.00    +0.000 C 
BRANCH  30  31
ATOM     31  C   UNL     1       2.422   4.671  21.089  0.00  0.00    +0.000 C 
BRANCH  31  32
ATOM     32  C   UNL     1       2.215   3.221  20.634  0.00  0.00    +0.000 C 
BRANCH  32  33
ATOM     33  N   UNL     1       3.175   2.787  19.609  0.00  0.00    +0.000 NA
ATOM     34  C   UNL     1       4.381   2.201  20.197  0.00  0.00    +0.000 C 
ATOM     35  C   UNL     1       2.536   1.813  18.720  0.00  0.00    +0.000 C 
ENDBRANCH  32  33
ENDBRANCH  31  32
ENDBRANCH  30  31
ENDBRANCH  29  30
ENDBRANCH   1  29
TORSDOF 15
ENDMDL
