MODEL 1
REMARK VINA RESULT:      -6.1      0.000      0.000
REMARK  Name = 
REMARK  1 active torsions:
REMARK  status: ('A' for Active; 'I' for Inactive)
REMARK    1  A    between atoms: C_5  and  O_6
REMARK                            x       y       z     vdW  Elec       q    Type
REMARK                         _______ _______ _______ _____ _____    ______ ____
ROOT
ATOM      1  O   UNL     1       5.670   3.841  19.453  0.00  0.00    +0.000 OA
ATOM      2  C   UNL     1       5.673   4.697  18.575  0.00  0.00    +0.000 C 
ATOM      3  C   UNL     1       6.685   5.779  18.509  0.00  0.00    +0.000 C 
ATOM      4 CL   UNL     1       8.112   5.760  19.419  0.00  0.00    +0.000 Cl
ATOM      5  C   UNL     1       6.314   6.690  17.604  0.00  0.00    +0.000 C 
ATOM      6  C   UNL     1       5.018   6.377  16.878  0.00  0.00    +0.000 C 
ATOM      7 CL   UNL     1       5.063   6.744  15.116  0.00  0.00    +0.000 Cl
ATOM      8  C   UNL     1       3.723   6.766  17.613  0.00  0.00    +0.000 C 
ATOM      9 CL   UNL     1       2.884   8.273  17.833  0.00  0.00    +0.000 Cl
ATOM     10  C   UNL     1       3.351   5.489  17.833  0.00  0.00    +0.000 C 
ATOM     11 CL   UNL     1       1.919   4.757  18.485  0.00  0.00    +0.000 Cl
ATOM     12  C   UNL     1       4.679   4.914  17.362  0.00  0.00    +0.000 C 
ATOM     13 CL   UNL     1       4.689   3.559  16.212  0.00  0.00    +0.000 Cl
ENDROOT
BRANCH   5  14
ATOM     14  O   UNL     1       7.073   7.771  17.216  0.00  0.00    +0.000 OA
ATOM     15  H   UNL     1       7.950   7.453  16.912  0.00  0.00    +0.000 HD
ENDBRANCH   5  14
TORSDOF 1
ENDMDL
MODEL 2
REMARK VINA RESULT:      -6.0      2.525      3.296
REMARK  Name = 
REMARK  1 active torsions:
REMARK  status: ('A' for Active; 'I' for Inactive)
REMARK    1  A    between atoms: C_5  and  O_6
REMARK                            x       y       z     vdW  Elec       q    Type
REMARK                         _______ _______ _______ _____ _____    ______ ____
ROOT
ATOM      1  O   UNL     1       5.201   2.438  20.040  0.00  0.00    +0.000 OA
ATOM      2  C   UNL     1       4.459   3.187  19.412  0.00  0.00    +0.000 C 
ATOM      3  C   UNL     1       4.957   4.352  18.642  0.00  0.00    +0.000 C 
ATOM      4 CL   UNL     1       6.593   4.581  18.275  0.00  0.00    +0.000 Cl
ATOM      5  C   UNL     1       3.927   5.114  18.259  0.00  0.00    +0.000 C 
ATOM      6  C   UNL     1       2.560   4.591  18.666  0.00  0.00    +0.000 C 
ATOM      7 CL   UNL     1       1.305   4.762  17.387  0.00  0.00    +0.000 Cl
ATOM      8  C   UNL     1       2.111   4.925  20.099  0.00  0.00    +0.000 C 
ATOM      9 CL   UNL     1       1.451   6.353  20.839  0.00  0.00    +0.000 Cl
ATOM     10  C   UNL     1       2.198   3.649  20.527  0.00  0.00    +0.000 C 
ATOM     11 CL   UNL     1       1.764   2.851  22.006  0.00  0.00    +0.000 Cl
ATOM     12  C   UNL     1       2.884   3.164  19.258  0.00  0.00    +0.000 C 
ATOM     13 CL   UNL     1       2.292   1.697  18.447  0.00  0.00    +0.000 Cl
ENDROOT
BRANCH   5  14
ATOM     14  O   UNL     1       4.022   6.216  17.441  0.00  0.00    +0.000 OA
ATOM     15  H   UNL     1       4.355   6.975  17.965  0.00  0.00    +0.000 HD
ENDBRANCH   5  14
TORSDOF 1
ENDMDL
MODEL 3
REMARK VINA RESULT:      -6.0      2.481      4.187
REMARK  Name = 
REMARK  1 active torsions:
REMARK  status: ('A' for Active; 'I' for Inactive)
REMARK    1  A    between atoms: C_5  and  O_6
REMARK                            x       y       z     vdW  Elec       q    Type
REMARK                         _______ _______ _______ _____ _____    ______ ____
ROOT
ATOM      1  O   UNL     1       1.210   4.969  20.603  0.00  0.00    +0.000 OA
ATOM      2  C   UNL     1       2.088   4.448  19.924  0.00  0.00    +0.000 C 
ATOM      3  C   UNL     1       2.964   3.366  20.434  0.00  0.00    +0.000 C 
ATOM      4 CL   UNL     1       2.638   2.514  21.860  0.00  0.00    +0.000 Cl
ATOM      5  C   UNL     1       3.968   3.155  19.577  0.00  0.00    +0.000 C 
ATOM      6  C   UNL     1       3.936   4.022  18.330  0.00  0.00    +0.000 C 
ATOM      7 CL   UNL     1       4.366   3.143  16.820  0.00  0.00    +0.000 Cl
ATOM      8  C   UNL     1       4.527   5.435  18.478  0.00  0.00    +0.000 C 
ATOM      9 CL   UNL     1       6.152   6.051  18.499  0.00  0.00    +0.000 Cl
ATOM     10  C   UNL     1       3.333   6.051  18.358  0.00  0.00    +0.000 C 
ATOM     11 CL   UNL     1       2.853   7.715  18.234  0.00  0.00    +0.000 Cl
ATOM     12  C   UNL     1       2.541   4.754  18.438  0.00  0.00    +0.000 C 
ATOM     13 CL   UNL     1       1.261   4.432  17.248  0.00  0.00    +0.000 Cl
ENDROOT
BRANCH   5  14
ATOM     14  O   UNL     1       4.904   2.152  19.689  0.00  0.00    +0.000 OA
ATOM     15  H   UNL     1       5.548   2.233  18.954  0.00  0.00    +0.000 HD
ENDBRANCH   5  14
TORSDOF 1
ENDMDL
MODEL 4
REMARK VINA RESULT:      -5.8      2.332      4.163
REMARK  Name = 
REMARK  1 active torsions:
REMARK  status: ('A' for Active; 'I' for Inactive)
REMARK    1  A    between atoms: C_5  and  O_6
REMARK                            x       y       z     vdW  Elec       q    Type
REMARK                         _______ _______ _______ _____ _____    ______ ____
ROOT
ATOM      1  O   UNL     1       7.832   5.380  14.752  0.00  0.00    +0.000 OA
ATOM      2  C   UNL     1       6.954   5.052  15.543  0.00  0.00    +0.000 C 
ATOM      3  C   UNL     1       5.736   4.313  15.132  0.00  0.00    +0.000 C 
ATOM      4 CL   UNL     1       5.581   3.563  13.623  0.00  0.00    +0.000 Cl
ATOM      5  C   UNL     1       4.856   4.297  16.139  0.00  0.00    +0.000 C 
ATOM      6  C   UNL     1       5.327   4.984  17.409  0.00  0.00    +0.000 C 
ATOM      7 CL   UNL     1       4.896   4.100  18.918  0.00  0.00    +0.000 Cl
ATOM      8  C   UNL     1       5.155   6.512  17.452  0.00  0.00    +0.000 C 
ATOM      9 CL   UNL     1       3.794   7.551  17.754  0.00  0.00    +0.000 Cl
ATOM     10  C   UNL     1       6.480   6.759  17.396  0.00  0.00    +0.000 C 
ATOM     11 CL   UNL     1       7.434   8.203  17.532  0.00  0.00    +0.000 Cl
ATOM     12  C   UNL     1       6.841   5.310  17.101  0.00  0.00    +0.000 C 
ATOM     13 CL   UNL     1       8.138   4.523  18.026  0.00  0.00    +0.000 Cl
ENDROOT
BRANCH   5  14
ATOM     14  O   UNL     1       3.665   3.609  16.134  0.00  0.00    +0.000 OA
ATOM     15  H   UNL     1       3.503   3.256  15.233  0.00  0.00    +0.000 HD
ENDBRANCH   5  14
TORSDOF 1
ENDMDL
MODEL 5
REMARK VINA RESULT:      -5.6      1.859      4.260
REMARK  Name = 
REMARK  1 active torsions:
REMARK  status: ('A' for Active; 'I' for Inactive)
REMARK    1  A    between atoms: C_5  and  O_6
REMARK                            x       y       z     vdW  Elec       q    Type
REMARK                         _______ _______ _______ _____ _____    ______ ____
ROOT
ATOM      1  O   UNL     1       3.553   7.328  18.027  0.00  0.00    +0.000 OA
ATOM      2  C   UNL     1       4.065   6.335  17.520  0.00  0.00    +0.000 C 
ATOM      3  C   UNL     1       3.631   4.953  17.842  0.00  0.00    +0.000 C 
ATOM      4 CL   UNL     1       2.194   4.609  18.667  0.00  0.00    +0.000 Cl
ATOM      5  C   UNL     1       4.504   4.077  17.334  0.00  0.00    +0.000 C 
ATOM      6  C   UNL     1       5.653   4.696  16.558  0.00  0.00    +0.000 C 
ATOM      7 CL   UNL     1       6.076   3.808  15.050  0.00  0.00    +0.000 Cl
ATOM      8  C   UNL     1       6.840   5.198  17.399  0.00  0.00    +0.000 C 
ATOM      9 CL   UNL     1       8.183   4.399  18.162  0.00  0.00    +0.000 Cl
ATOM     10  C   UNL     1       6.595   6.499  17.144  0.00  0.00    +0.000 C 
ATOM     11 CL   UNL     1       7.447   7.969  17.500  0.00  0.00    +0.000 Cl
ATOM     12  C   UNL     1       5.253   6.221  16.481  0.00  0.00    +0.000 C 
ATOM     13 CL   UNL     1       4.875   6.975  14.917  0.00  0.00    +0.000 Cl
ENDROOT
BRANCH   5  14
ATOM     14  O   UNL     1       4.351   2.709  17.357  0.00  0.00    +0.000 OA
ATOM     15  H   UNL     1       3.622   2.458  16.751  0.00  0.00    +0.000 HD
ENDBRANCH   5  14
TORSDOF 1
ENDMDL
MODEL 6
REMARK VINA RESULT:      -5.4      1.873      3.914
REMARK  Name = 
REMARK  1 active torsions:
REMARK  status: ('A' for Active; 'I' for Inactive)
REMARK    1  A    between atoms: C_5  and  O_6
REMARK                            x       y       z     vdW  Elec       q    Type
REMARK                         _______ _______ _______ _____ _____    ______ ____
ROOT
ATOM      1  O   UNL     1       5.188   7.000  14.810  0.00  0.00    +0.000 OA
ATOM      2  C   UNL     1       5.177   6.168  15.711  0.00  0.00    +0.000 C 
ATOM      3  C   UNL     1       5.210   4.707  15.458  0.00  0.00    +0.000 C 
ATOM      4 CL   UNL     1       5.596   4.043  13.949  0.00  0.00    +0.000 Cl
ATOM      5  C   UNL     1       4.954   4.047  16.591  0.00  0.00    +0.000 C 
ATOM      6  C   UNL     1       4.738   4.928  17.809  0.00  0.00    +0.000 C 
ATOM      7 CL   UNL     1       5.515   4.303  19.308  0.00  0.00    +0.000 Cl
ATOM      8  C   UNL     1       3.323   5.509  17.977  0.00  0.00    +0.000 C 
ATOM      9 CL   UNL     1       1.825   4.849  18.564  0.00  0.00    +0.000 Cl
ATOM     10  C   UNL     1       3.708   6.776  17.722  0.00  0.00    +0.000 C 
ATOM     11 CL   UNL     1       2.899   8.310  17.792  0.00  0.00    +0.000 Cl
ATOM     12  C   UNL     1       5.107   6.368  17.279  0.00  0.00    +0.000 C 
ATOM     13 CL   UNL     1       6.518   7.232  17.928  0.00  0.00    +0.000 Cl
ENDROOT
BRANCH   5  14
ATOM     14  O   UNL     1       5.009   2.679  16.737  0.00  0.00    +0.000 OA
ATOM     15  H   UNL     1       4.464   2.261  16.037  0.00  0.00    +0.000 HD
ENDBRANCH   5  14
TORSDOF 1
ENDMDL
MODEL 7
REMARK VINA RESULT:      -5.4      2.293      3.153
REMARK  Name = 
REMARK  1 active torsions:
REMARK  status: ('A' for Active; 'I' for Inactive)
REMARK    1  A    between atoms: C_5  and  O_6
REMARK                            x       y       z     vdW  Elec       q    Type
REMARK                         _______ _______ _______ _____ _____    ______ ____
ROOT
ATOM      1  O   UNL     1       6.725   4.247  18.223  0.00  0.00    +0.000 OA
ATOM      2  C   UNL     1       5.546   4.570  18.123  0.00  0.00    +0.000 C 
ATOM      3  C   UNL     1       5.112   5.969  17.887  0.00  0.00    +0.000 C 
ATOM      4 CL   UNL     1       6.177   7.193  17.404  0.00  0.00    +0.000 Cl
ATOM      5  C   UNL     1       3.789   6.066  18.054  0.00  0.00    +0.000 C 
ATOM      6  C   UNL     1       3.092   4.761  18.397  0.00  0.00    +0.000 C 
ATOM      7 CL   UNL     1       1.521   4.529  17.548  0.00  0.00    +0.000 Cl
ATOM      8  C   UNL     1       3.122   4.350  19.880  0.00  0.00    +0.000 C 
ATOM      9 CL   UNL     1       2.213   4.853  21.274  0.00  0.00    +0.000 Cl
ATOM     10  C   UNL     1       3.945   3.303  19.672  0.00  0.00    +0.000 C 
ATOM     11 CL   UNL     1       4.529   2.021  20.687  0.00  0.00    +0.000 Cl
ATOM     12  C   UNL     1       4.237   3.687  18.228  0.00  0.00    +0.000 C 
ATOM     13 CL   UNL     1       4.134   2.453  16.954  0.00  0.00    +0.000 Cl
ENDROOT
BRANCH   5  14
ATOM     14  O   UNL     1       3.044   7.197  17.811  0.00  0.00    +0.000 OA
ATOM     15  H   UNL     1       3.558   7.800  17.232  0.00  0.00    +0.000 HD
ENDBRANCH   5  14
TORSDOF 1
ENDMDL
MODEL 8
REMARK VINA RESULT:      -5.4      2.360      3.231
REMARK  Name = 
REMARK  1 active torsions:
REMARK  status: ('A' for Active; 'I' for Inactive)
REMARK    1  A    between atoms: C_5  and  O_6
REMARK                            x       y       z     vdW  Elec       q    Type
REMARK                         _______ _______ _______ _____ _____    ______ ____
ROOT
ATOM      1  O   UNL     1       6.234   5.172  19.949  0.00  0.00    +0.000 OA
ATOM      2  C   UNL     1       5.587   4.534  19.125  0.00  0.00    +0.000 C 
ATOM      3  C   UNL     1       5.860   4.589  17.669  0.00  0.00    +0.000 C 
ATOM      4 CL   UNL     1       7.275   5.257  17.023  0.00  0.00    +0.000 Cl
ATOM      5  C   UNL     1       4.869   3.991  17.000  0.00  0.00    +0.000 C 
ATOM      6  C   UNL     1       3.775   3.401  17.873  0.00  0.00    +0.000 C 
ATOM      7 CL   UNL     1       3.190   1.791  17.320  0.00  0.00    +0.000 Cl
ATOM      8  C   UNL     1       2.691   4.384  18.350  0.00  0.00    +0.000 C 
ATOM      9 CL   UNL     1       1.291   5.076  17.586  0.00  0.00    +0.000 Cl
ATOM     10  C   UNL     1       3.083   4.341  19.639  0.00  0.00    +0.000 C 
ATOM     11 CL   UNL     1       2.430   4.993  21.110  0.00  0.00    +0.000 Cl
ATOM     12  C   UNL     1       4.355   3.562  19.333  0.00  0.00    +0.000 C 
ATOM     13 CL   UNL     1       4.762   2.131  20.303  0.00  0.00    +0.000 Cl
ENDROOT
BRANCH   5  14
ATOM     14  O   UNL     1       4.854   3.771  15.642  0.00  0.00    +0.000 OA
ATOM     15  H   UNL     1       5.427   4.436  15.204  0.00  0.00    +0.000 HD
ENDBRANCH   5  14
TORSDOF 1
ENDMDL
MODEL 9
REMARK VINA RESULT:      -5.3      3.181      4.167
REMARK  Name = 
REMARK  1 active torsions:
REMARK  status: ('A' for Active; 'I' for Inactive)
REMARK    1  A    between atoms: C_5  and  O_6
REMARK                            x       y       z     vdW  Elec       q    Type
REMARK                         _______ _______ _______ _____ _____    ______ ____
ROOT
ATOM      1  O   UNL     1       2.753   2.967  22.080  0.00  0.00    +0.000 OA
ATOM      2  C   UNL     1       2.833   3.090  20.862  0.00  0.00    +0.000 C 
ATOM      3  C   UNL     1       3.959   2.540  20.069  0.00  0.00    +0.000 C 
ATOM      4 CL   UNL     1       5.060   1.417  20.693  0.00  0.00    +0.000 Cl
ATOM      5  C   UNL     1       3.909   3.018  18.822  0.00  0.00    +0.000 C 
ATOM      6  C   UNL     1       2.737   3.942  18.538  0.00  0.00    +0.000 C 
ATOM      7 CL   UNL     1       1.971   3.673  16.931  0.00  0.00    +0.000 Cl
ATOM      8  C   UNL     1       2.919   5.410  18.959  0.00  0.00    +0.000 C 
ATOM      9 CL   UNL     1       3.762   6.757  18.253  0.00  0.00    +0.000 Cl
ATOM     10  C   UNL     1       2.008   5.339  19.950  0.00  0.00    +0.000 C 
ATOM     11 CL   UNL     1       1.302   6.517  21.012  0.00  0.00    +0.000 Cl
ATOM     12  C   UNL     1       1.865   3.827  19.849  0.00  0.00    +0.000 C 
ATOM     13 CL   UNL     1       0.244   3.101  19.792  0.00  0.00    +0.000 Cl
ENDROOT
BRANCH   5  14
ATOM     14  O   UNL     1       4.741   2.633  17.796  0.00  0.00    +0.000 OA
ATOM     15  H   UNL     1       5.644   2.492  18.152  0.00  0.00    +0.000 HD
ENDBRANCH   5  14
TORSDOF 1
ENDMDL
