MODEL 1
REMARK VINA RESULT:      -6.9      0.000      0.000
REMARK  Name = 
REMARK  8 active torsions:
REMARK  status: ('A' for Active; 'I' for Inactive)
REMARK    1  A    between atoms: C_1  and  O_2
REMARK    2  A    between atoms: O_2  and  C_3
REMARK    3  A    between atoms: C_6  and  C_7
REMARK    4  A    between atoms: N_11  and  C_12
REMARK    5  A    between atoms: C_12  and  C_13
REMARK    6  A    between atoms: C_20  and  C_21
REMARK    7  A    between atoms: C_24  and  O_25
REMARK    8  A    between atoms: O_25  and  C_26
REMARK                            x       y       z     vdW  Elec       q    Type
REMARK                         _______ _______ _______ _____ _____    ______ ____
ROOT
ATOM      1  C   UNL     1      -0.333  11.203  20.417  0.00  0.00    +0.000 A 
ATOM      2  C   UNL     1       0.028  11.697  21.605  0.00  0.00    +0.000 A 
ATOM      3  C   UNL     1      -0.780  12.716  22.294  0.00  0.00    +0.000 A 
ATOM      4  O   UNL     1      -0.431  13.087  23.413  0.00  0.00    +0.000 OA
ATOM      5  N   UNL     1      -1.886  13.184  21.607  0.00  0.00    +0.000 N 
ATOM      6  N   UNL     1      -2.311  12.682  20.391  0.00  0.00    +0.000 NA
ATOM      7  C   UNL     1      -1.614  11.735  19.829  0.00  0.00    +0.000 A 
ENDROOT
BRANCH   1  11
ATOM      8  C   UNL     1       2.201   8.344  18.485  0.00  0.00    +0.000 A 
ATOM      9  C   UNL     1       1.714   8.098  19.769  0.00  0.00    +0.000 A 
ATOM     10  C   UNL     1       0.936   9.053  20.427  0.00  0.00    +0.000 A 
ATOM     11  C   UNL     1       0.584  10.246  19.780  0.00  0.00    +0.000 A 
ATOM     12  C   UNL     1       1.116  10.512  18.514  0.00  0.00    +0.000 A 
ATOM     13  C   UNL     1       1.929   9.569  17.873  0.00  0.00    +0.000 A 
BRANCH   8  15
ATOM     14  C   UNL     1       3.207   6.223  18.798  0.00  0.00    +0.000 C 
ATOM     15  O   UNL     1       2.948   7.333  17.947  0.00  0.00    +0.000 OA
ENDBRANCH   8  15
ENDBRANCH   1  11
BRANCH   7  16
ATOM     16  C   UNL     1      -2.123  11.171  18.527  0.00  0.00    +0.000 A 
ATOM     17  C   UNL     1      -2.714   9.905  18.494  0.00  0.00    +0.000 A 
ATOM     18  C   UNL     1      -3.229   9.388  17.295  0.00  0.00    +0.000 A 
ATOM     19  C   UNL     1      -3.193  10.144  16.121  0.00  0.00    +0.000 A 
ATOM     20  C   UNL     1      -2.547  11.373  16.132  0.00  0.00    +0.000 A 
ATOM     21  C   UNL     1      -1.980  11.853  17.315  0.00  0.00    +0.000 A 
BRANCH  19  22
ATOM     22  O   UNL     1      -3.757   9.576  15.013  0.00  0.00    +0.000 OA
ATOM     23  C   UNL     1      -3.248  10.042  13.765  0.00  0.00    +0.000 C 
ENDBRANCH  19  22
ENDBRANCH   7  16
BRANCH   5  24
ATOM     24  C   UNL     1      -2.760  14.153  22.261  0.00  0.00    +0.000 C 
BRANCH  24  25
ATOM     25  C   UNL     1      -4.008  13.558  22.858  0.00  0.00    +0.000 A 
ATOM     26  C   UNL     1      -5.285  13.946  22.431  0.00  0.00    +0.000 A 
ATOM     27  C   UNL     1      -6.413  13.446  23.074  0.00  0.00    +0.000 A 
ATOM     28  C   UNL     1      -6.232  12.563  24.125  0.00  0.00    +0.000 A 
ATOM     29  N   UNL     1      -5.020  12.146  24.552  0.00  0.00    +0.000 NA
ATOM     30  C   UNL     1      -3.940  12.650  23.908  0.00  0.00    +0.000 A 
ENDBRANCH  24  25
ENDBRANCH   5  24
TORSDOF 6
ENDMDL
MODEL 2
REMARK VINA RESULT:      -6.8      0.541      1.255
REMARK  Name = 
REMARK  8 active torsions:
REMARK  status: ('A' for Active; 'I' for Inactive)
REMARK    1  A    between atoms: C_1  and  O_2
REMARK    2  A    between atoms: O_2  and  C_3
REMARK    3  A    between atoms: C_6  and  C_7
REMARK    4  A    between atoms: N_11  and  C_12
REMARK    5  A    between atoms: C_12  and  C_13
REMARK    6  A    between atoms: C_20  and  C_21
REMARK    7  A    between atoms: C_24  and  O_25
REMARK    8  A    between atoms: O_25  and  C_26
REMARK                            x       y       z     vdW  Elec       q    Type
REMARK                         _______ _______ _______ _____ _____    ______ ____
ROOT
ATOM      1  C   UNL     1      -0.377  11.101  20.386  0.00  0.00    +0.000 A 
ATOM      2  C   UNL     1       0.006  11.586  21.572  0.00  0.00    +0.000 A 
ATOM      3  C   UNL     1      -0.740  12.664  22.241  0.00  0.00    +0.000 A 
ATOM      4  O   UNL     1      -0.377  13.026  23.359  0.00  0.00    +0.000 OA
ATOM      5  N   UNL     1      -1.806  13.195  21.538  0.00  0.00    +0.000 N 
ATOM      6  N   UNL     1      -2.253  12.707  20.323  0.00  0.00    +0.000 NA
ATOM      7  C   UNL     1      -1.615  11.709  19.780  0.00  0.00    +0.000 A 
ENDROOT
BRANCH   1  11
ATOM      8  C   UNL     1       2.256   8.201  18.660  0.00  0.00    +0.000 A 
ATOM      9  C   UNL     1       1.859   9.317  17.923  0.00  0.00    +0.000 A 
ATOM     10  C   UNL     1       0.954  10.236  18.460  0.00  0.00    +0.000 A 
ATOM     11  C   UNL     1       0.480  10.078  19.770  0.00  0.00    +0.000 A 
ATOM     12  C   UNL     1       0.840   8.931  20.486  0.00  0.00    +0.000 A 
ATOM     13  C   UNL     1       1.717   7.992  19.930  0.00  0.00    +0.000 A 
BRANCH   8  15
ATOM     14  C   UNL     1       2.902   5.981  18.144  0.00  0.00    +0.000 C 
ATOM     15  O   UNL     1       3.146   7.378  18.027  0.00  0.00    +0.000 OA
ENDBRANCH   8  15
ENDBRANCH   1  11
BRANCH   7  16
ATOM     16  C   UNL     1      -2.148  11.164  18.480  0.00  0.00    +0.000 A 
ATOM     17  C   UNL     1      -2.808   9.932  18.454  0.00  0.00    +0.000 A 
ATOM     18  C   UNL     1      -3.345   9.435  17.256  0.00  0.00    +0.000 A 
ATOM     19  C   UNL     1      -3.263  10.178  16.077  0.00  0.00    +0.000 A 
ATOM     20  C   UNL     1      -2.550  11.370  16.081  0.00  0.00    +0.000 A 
ATOM     21  C   UNL     1      -1.963  11.827  17.263  0.00  0.00    +0.000 A 
BRANCH  19  22
ATOM     22  O   UNL     1      -3.852   9.633  14.970  0.00  0.00    +0.000 OA
ATOM     23  C   UNL     1      -3.282  10.024  13.723  0.00  0.00    +0.000 C 
ENDBRANCH  19  22
ENDBRANCH   7  16
BRANCH   5  24
ATOM     24  C   UNL     1      -2.621  14.227  22.172  0.00  0.00    +0.000 C 
BRANCH  24  25
ATOM     25  C   UNL     1      -3.838  13.705  22.888  0.00  0.00    +0.000 A 
ATOM     26  C   UNL     1      -3.737  13.003  24.095  0.00  0.00    +0.000 A 
ATOM     27  C   UNL     1      -4.876  12.451  24.675  0.00  0.00    +0.000 A 
ATOM     28  C   UNL     1      -6.089  12.626  24.031  0.00  0.00    +0.000 A 
ATOM     29  N   UNL     1      -6.233  13.316  22.879  0.00  0.00    +0.000 NA
ATOM     30  C   UNL     1      -5.107  13.841  22.338  0.00  0.00    +0.000 A 
ENDBRANCH  24  25
ENDBRANCH   5  24
TORSDOF 6
ENDMDL
MODEL 3
REMARK VINA RESULT:      -6.6      0.694      1.114
REMARK  Name = 
REMARK  8 active torsions:
REMARK  status: ('A' for Active; 'I' for Inactive)
REMARK    1  A    between atoms: C_1  and  O_2
REMARK    2  A    between atoms: O_2  and  C_3
REMARK    3  A    between atoms: C_6  and  C_7
REMARK    4  A    between atoms: N_11  and  C_12
REMARK    5  A    between atoms: C_12  and  C_13
REMARK    6  A    between atoms: C_20  and  C_21
REMARK    7  A    between atoms: C_24  and  O_25
REMARK    8  A    between atoms: O_25  and  C_26
REMARK                            x       y       z     vdW  Elec       q    Type
REMARK                         _______ _______ _______ _____ _____    ______ ____
ROOT
ATOM      1  C   UNL     1      -0.684  11.053  20.521  0.00  0.00    +0.000 A 
ATOM      2  C   UNL     1      -0.484  11.500  21.765  0.00  0.00    +0.000 A 
ATOM      3  C   UNL     1      -1.385  12.484  22.385  0.00  0.00    +0.000 A 
ATOM      4  O   UNL     1      -1.186  12.811  23.554  0.00  0.00    +0.000 OA
ATOM      5  N   UNL     1      -2.399  12.973  21.582  0.00  0.00    +0.000 N 
ATOM      6  N   UNL     1      -2.660  12.520  20.302  0.00  0.00    +0.000 NA
ATOM      7  C   UNL     1      -1.886  11.601  19.796  0.00  0.00    +0.000 A 
ENDROOT
BRANCH   1  11
ATOM      8  C   UNL     1       2.104   8.278  18.834  0.00  0.00    +0.000 A 
ATOM      9  C   UNL     1       1.585   8.065  20.111  0.00  0.00    +0.000 A 
ATOM     10  C   UNL     1       0.721   8.997  20.690  0.00  0.00    +0.000 A 
ATOM     11  C   UNL     1       0.317  10.129  19.969  0.00  0.00    +0.000 A 
ATOM     12  C   UNL     1       0.880  10.367  18.710  0.00  0.00    +0.000 A 
ATOM     13  C   UNL     1       1.777   9.450  18.149  0.00  0.00    +0.000 A 
BRANCH   8  15
ATOM     14  C   UNL     1       3.022   6.122  19.179  0.00  0.00    +0.000 C 
ATOM     15  O   UNL     1       2.936   7.294  18.377  0.00  0.00    +0.000 OA
ENDBRANCH   8  15
ENDBRANCH   1  11
BRANCH   7  16
ATOM     16  C   UNL     1      -2.218  11.090  18.418  0.00  0.00    +0.000 A 
ATOM     17  C   UNL     1      -2.062  11.920  17.305  0.00  0.00    +0.000 A 
ATOM     18  C   UNL     1      -2.330  11.441  16.013  0.00  0.00    +0.000 A 
ATOM     19  C   UNL     1      -2.719  10.115  15.812  0.00  0.00    +0.000 A 
ATOM     20  C   UNL     1      -2.941   9.305  16.918  0.00  0.00    +0.000 A 
ATOM     21  C   UNL     1      -2.736   9.808  18.205  0.00  0.00    +0.000 A 
BRANCH  19  22
ATOM     22  O   UNL     1      -2.916   9.727  14.516  0.00  0.00    +0.000 OA
ATOM     23  C   UNL     1      -4.175  10.093  13.956  0.00  0.00    +0.000 C 
ENDBRANCH  19  22
ENDBRANCH   7  16
BRANCH   5  24
ATOM     24  C   UNL     1      -3.361  13.909  22.158  0.00  0.00    +0.000 C 
BRANCH  24  25
ATOM     25  C   UNL     1      -4.686  13.292  22.520  0.00  0.00    +0.000 A 
ATOM     26  C   UNL     1      -5.730  13.194  21.592  0.00  0.00    +0.000 A 
ATOM     27  C   UNL     1      -6.972  12.707  21.992  0.00  0.00    +0.000 A 
ATOM     28  C   UNL     1      -7.130  12.323  23.313  0.00  0.00    +0.000 A 
ATOM     29  N   UNL     1      -6.143  12.379  24.233  0.00  0.00    +0.000 NA
ATOM     30  C   UNL     1      -4.946  12.858  23.815  0.00  0.00    +0.000 A 
ENDBRANCH  24  25
ENDBRANCH   5  24
TORSDOF 6
ENDMDL
MODEL 4
REMARK VINA RESULT:      -6.5      0.586      1.193
REMARK  Name = 
REMARK  8 active torsions:
REMARK  status: ('A' for Active; 'I' for Inactive)
REMARK    1  A    between atoms: C_1  and  O_2
REMARK    2  A    between atoms: O_2  and  C_3
REMARK    3  A    between atoms: C_6  and  C_7
REMARK    4  A    between atoms: N_11  and  C_12
REMARK    5  A    between atoms: C_12  and  C_13
REMARK    6  A    between atoms: C_20  and  C_21
REMARK    7  A    between atoms: C_24  and  O_25
REMARK    8  A    between atoms: O_25  and  C_26
REMARK                            x       y       z     vdW  Elec       q    Type
REMARK                         _______ _______ _______ _____ _____    ______ ____
ROOT
ATOM      1  C   UNL     1      -0.499  11.307  20.388  0.00  0.00    +0.000 A 
ATOM      2  C   UNL     1      -0.080  11.788  21.562  0.00  0.00    +0.000 A 
ATOM      3  C   UNL     1      -0.878  12.761  22.326  0.00  0.00    +0.000 A 
ATOM      4  O   UNL     1      -0.471  13.120  23.430  0.00  0.00    +0.000 OA
ATOM      5  N   UNL     1      -2.041  13.203  21.722  0.00  0.00    +0.000 N 
ATOM      6  N   UNL     1      -2.526  12.714  20.523  0.00  0.00    +0.000 NA
ATOM      7  C   UNL     1      -1.833  11.805  19.895  0.00  0.00    +0.000 A 
ENDROOT
BRANCH   1  11
ATOM      8  C   UNL     1       2.271   8.720  18.399  0.00  0.00    +0.000 A 
ATOM      9  C   UNL     1       1.982   9.979  17.872  0.00  0.00    +0.000 A 
ATOM     10  C   UNL     1       1.035  10.804  18.484  0.00  0.00    +0.000 A 
ATOM     11  C   UNL     1       0.408  10.399  19.671  0.00  0.00    +0.000 A 
ATOM     12  C   UNL     1       0.661   9.116  20.167  0.00  0.00    +0.000 A 
ATOM     13  C   UNL     1       1.582   8.276  19.529  0.00  0.00    +0.000 A 
BRANCH   8  15
ATOM     14  C   UNL     1       3.347   6.637  18.063  0.00  0.00    +0.000 C 
ATOM     15  O   UNL     1       3.216   8.010  17.711  0.00  0.00    +0.000 OA
ENDBRANCH   8  15
ENDBRANCH   1  11
BRANCH   7  16
ATOM     16  C   UNL     1      -2.404  11.253  18.615  0.00  0.00    +0.000 A 
ATOM     17  C   UNL     1      -3.499  11.877  18.009  0.00  0.00    +0.000 A 
ATOM     18  C   UNL     1      -4.013  11.395  16.794  0.00  0.00    +0.000 A 
ATOM     19  C   UNL     1      -3.417  10.308  16.150  0.00  0.00    +0.000 A 
ATOM     20  C   UNL     1      -2.373   9.644  16.780  0.00  0.00    +0.000 A 
ATOM     21  C   UNL     1      -1.908  10.089  18.020  0.00  0.00    +0.000 A 
BRANCH  19  22
ATOM     22  O   UNL     1      -3.960   9.938  14.952  0.00  0.00    +0.000 OA
ATOM     23  C   UNL     1      -3.080  10.023  13.833  0.00  0.00    +0.000 C 
ENDBRANCH  19  22
ENDBRANCH   7  16
BRANCH   5  24
ATOM     24  C   UNL     1      -2.905  14.125  22.454  0.00  0.00    +0.000 C 
BRANCH  24  25
ATOM     25  C   UNL     1      -4.163  13.499  22.994  0.00  0.00    +0.000 A 
ATOM     26  C   UNL     1      -5.420  13.784  22.446  0.00  0.00    +0.000 A 
ATOM     27  C   UNL     1      -6.569  13.262  23.035  0.00  0.00    +0.000 A 
ATOM     28  C   UNL     1      -6.424  12.461  24.155  0.00  0.00    +0.000 A 
ATOM     29  N   UNL     1      -5.230  12.142  24.700  0.00  0.00    +0.000 NA
ATOM     30  C   UNL     1      -4.130  12.665  24.106  0.00  0.00    +0.000 A 
ENDBRANCH  24  25
ENDBRANCH   5  24
TORSDOF 6
ENDMDL
MODEL 5
REMARK VINA RESULT:      -6.4      3.830      7.031
REMARK  Name = 
REMARK  8 active torsions:
REMARK  status: ('A' for Active; 'I' for Inactive)
REMARK    1  A    between atoms: C_1  and  O_2
REMARK    2  A    between atoms: O_2  and  C_3
REMARK    3  A    between atoms: C_6  and  C_7
REMARK    4  A    between atoms: N_11  and  C_12
REMARK    5  A    between atoms: C_12  and  C_13
REMARK    6  A    between atoms: C_20  and  C_21
REMARK    7  A    between atoms: C_24  and  O_25
REMARK    8  A    between atoms: O_25  and  C_26
REMARK                            x       y       z     vdW  Elec       q    Type
REMARK                         _______ _______ _______ _____ _____    ______ ____
ROOT
ATOM      1  C   UNL     1       1.080  12.887  19.644  0.00  0.00    +0.000 A 
ATOM      2  C   UNL     1       2.171  13.259  18.967  0.00  0.00    +0.000 A 
ATOM      3  C   UNL     1       3.166  14.173  19.550  0.00  0.00    +0.000 A 
ATOM      4  O   UNL     1       4.181  14.430  18.903  0.00  0.00    +0.000 OA
ATOM      5  N   UNL     1       2.868  14.681  20.801  0.00  0.00    +0.000 N 
ATOM      6  N   UNL     1       1.767  14.304  21.548  0.00  0.00    +0.000 NA
ATOM      7  C   UNL     1       0.932  13.443  21.037  0.00  0.00    +0.000 A 
ENDROOT
BRANCH   1  11
ATOM      8  C   UNL     1      -1.654  10.426  17.455  0.00  0.00    +0.000 A 
ATOM      9  C   UNL     1      -1.939  11.775  17.672  0.00  0.00    +0.000 A 
ATOM     10  C   UNL     1      -1.080  12.568  18.436  0.00  0.00    +0.000 A 
ATOM     11  C   UNL     1       0.112  12.032  18.943  0.00  0.00    +0.000 A 
ATOM     12  C   UNL     1       0.370  10.668  18.768  0.00  0.00    +0.000 A 
ATOM     13  C   UNL     1      -0.514   9.867  18.035  0.00  0.00    +0.000 A 
BRANCH   8  15
ATOM     14  C   UNL     1      -2.828  10.301  15.401  0.00  0.00    +0.000 C 
ATOM     15  O   UNL     1      -2.569   9.758  16.691  0.00  0.00    +0.000 OA
ENDBRANCH   8  15
ENDBRANCH   1  11
BRANCH   7  16
ATOM     16  C   UNL     1      -0.234  13.012  21.888  0.00  0.00    +0.000 A 
ATOM     17  C   UNL     1      -1.149  13.958  22.357  0.00  0.00    +0.000 A 
ATOM     18  C   UNL     1      -2.261  13.562  23.116  0.00  0.00    +0.000 A 
ATOM     19  C   UNL     1      -2.495  12.211  23.385  0.00  0.00    +0.000 A 
ATOM     20  C   UNL     1      -1.555  11.273  22.980  0.00  0.00    +0.000 A 
ATOM     21  C   UNL     1      -0.416  11.682  22.281  0.00  0.00    +0.000 A 
BRANCH  19  22
ATOM     22  O   UNL     1      -3.626  11.918  24.095  0.00  0.00    +0.000 OA
ATOM     23  C   UNL     1      -4.741  12.769  23.839  0.00  0.00    +0.000 C 
ENDBRANCH  19  22
ENDBRANCH   7  16
BRANCH   5  24
ATOM     24  C   UNL     1       3.843  15.548  21.457  0.00  0.00    +0.000 C 
BRANCH  24  25
ATOM     25  C   UNL     1       4.571  14.904  22.607  0.00  0.00    +0.000 A 
ATOM     26  C   UNL     1       5.285  13.709  22.449  0.00  0.00    +0.000 A 
ATOM     27  C   UNL     1       5.863  13.094  23.556  0.00  0.00    +0.000 A 
ATOM     28  C   UNL     1       5.714  13.698  24.793  0.00  0.00    +0.000 A 
ATOM     29  N   UNL     1       5.054  14.861  24.984  0.00  0.00    +0.000 NA
ATOM     30  C   UNL     1       4.502  15.436  23.889  0.00  0.00    +0.000 A 
ENDBRANCH  24  25
ENDBRANCH   5  24
TORSDOF 6
ENDMDL
MODEL 6
REMARK VINA RESULT:      -6.4      2.634      3.705
REMARK  Name = 
REMARK  8 active torsions:
REMARK  status: ('A' for Active; 'I' for Inactive)
REMARK    1  A    between atoms: C_1  and  O_2
REMARK    2  A    between atoms: O_2  and  C_3
REMARK    3  A    between atoms: C_6  and  C_7
REMARK    4  A    between atoms: N_11  and  C_12
REMARK    5  A    between atoms: C_12  and  C_13
REMARK    6  A    between atoms: C_20  and  C_21
REMARK    7  A    between atoms: C_24  and  O_25
REMARK    8  A    between atoms: O_25  and  C_26
REMARK                            x       y       z     vdW  Elec       q    Type
REMARK                         _______ _______ _______ _____ _____    ______ ____
ROOT
ATOM      1  C   UNL     1      -0.974  13.595  21.451  0.00  0.00    +0.000 A 
ATOM      2  C   UNL     1      -0.966  14.163  22.660  0.00  0.00    +0.000 A 
ATOM      3  C   UNL     1      -2.010  13.874  23.655  0.00  0.00    +0.000 A 
ATOM      4  O   UNL     1      -1.916  14.379  24.773  0.00  0.00    +0.000 OA
ATOM      5  N   UNL     1      -3.036  13.046  23.239  0.00  0.00    +0.000 N 
ATOM      6  N   UNL     1      -3.071  12.414  22.009  0.00  0.00    +0.000 NA
ATOM      7  C   UNL     1      -2.101  12.636  21.167  0.00  0.00    +0.000 A 
ENDROOT
BRANCH   1  11
ATOM      8  C   UNL     1       2.009  14.691  18.583  0.00  0.00    +0.000 A 
ATOM      9  C   UNL     1       2.277  13.706  19.535  0.00  0.00    +0.000 A 
ATOM     10  C   UNL     1       1.329  13.386  20.510  0.00  0.00    +0.000 A 
ATOM     11  C   UNL     1       0.073  14.009  20.505  0.00  0.00    +0.000 A 
ATOM     12  C   UNL     1      -0.172  15.032  19.583  0.00  0.00    +0.000 A 
ATOM     13  C   UNL     1       0.795  15.378  18.632  0.00  0.00    +0.000 A 
BRANCH   8  15
ATOM     14  C   UNL     1       4.313  15.115  18.229  0.00  0.00    +0.000 C 
ATOM     15  O   UNL     1       3.015  14.912  17.683  0.00  0.00    +0.000 OA
ENDBRANCH   8  15
ENDBRANCH   1  11
BRANCH   7  16
ATOM     16  C   UNL     1      -2.136  11.901  19.852  0.00  0.00    +0.000 A 
ATOM     17  C   UNL     1      -3.197  12.101  18.965  0.00  0.00    +0.000 A 
ATOM     18  C   UNL     1      -3.219  11.453  17.719  0.00  0.00    +0.000 A 
ATOM     19  C   UNL     1      -2.164  10.626  17.329  0.00  0.00    +0.000 A 
ATOM     20  C   UNL     1      -1.141  10.369  18.232  0.00  0.00    +0.000 A 
ATOM     21  C   UNL     1      -1.158  10.967  19.495  0.00  0.00    +0.000 A 
BRANCH  19  22
ATOM     22  O   UNL     1      -2.253  10.072  16.082  0.00  0.00    +0.000 OA
ATOM     23  C   UNL     1      -3.355  10.520  15.296  0.00  0.00    +0.000 C 
ENDBRANCH  19  22
ENDBRANCH   7  16
BRANCH   5  24
ATOM     24  C   UNL     1      -4.072  12.675  24.198  0.00  0.00    +0.000 C 
BRANCH  24  25
ATOM     25  C   UNL     1      -5.420  13.288  23.924  0.00  0.00    +0.000 A 
ATOM     26  C   UNL     1      -5.549  14.601  23.454  0.00  0.00    +0.000 A 
ATOM     27  C   UNL     1      -6.814  15.164  23.306  0.00  0.00    +0.000 A 
ATOM     28  C   UNL     1      -7.917  14.391  23.626  0.00  0.00    +0.000 A 
ATOM     29  N   UNL     1      -7.837  13.114  24.059  0.00  0.00    +0.000 NA
ATOM     30  C   UNL     1      -6.593  12.593  24.195  0.00  0.00    +0.000 A 
ENDBRANCH  24  25
ENDBRANCH   5  24
TORSDOF 6
ENDMDL
MODEL 7
REMARK VINA RESULT:      -6.4      3.690      7.147
REMARK  Name = 
REMARK  8 active torsions:
REMARK  status: ('A' for Active; 'I' for Inactive)
REMARK    1  A    between atoms: C_1  and  O_2
REMARK    2  A    between atoms: O_2  and  C_3
REMARK    3  A    between atoms: C_6  and  C_7
REMARK    4  A    between atoms: N_11  and  C_12
REMARK    5  A    between atoms: C_12  and  C_13
REMARK    6  A    between atoms: C_20  and  C_21
REMARK    7  A    between atoms: C_24  and  O_25
REMARK    8  A    between atoms: O_25  and  C_26
REMARK                            x       y       z     vdW  Elec       q    Type
REMARK                         _______ _______ _______ _____ _____    ______ ____
ROOT
ATOM      1  C   UNL     1       3.295   7.884  17.849  0.00  0.00    +0.000 A 
ATOM      2  C   UNL     1       3.244   9.211  17.690  0.00  0.00    +0.000 A 
ATOM      3  C   UNL     1       2.155  10.015  18.267  0.00  0.00    +0.000 A 
ATOM      4  O   UNL     1       2.195  11.238  18.142  0.00  0.00    +0.000 OA
ATOM      5  N   UNL     1       1.154   9.312  18.913  0.00  0.00    +0.000 N 
ATOM      6  N   UNL     1       1.180   7.945  19.124  0.00  0.00    +0.000 NA
ATOM      7  C   UNL     1       2.187   7.262  18.658  0.00  0.00    +0.000 A 
ENDROOT
BRANCH   1  11
ATOM      8  C   UNL     1       6.364   5.654  15.867  0.00  0.00    +0.000 A 
ATOM      9  C   UNL     1       6.370   5.778  17.256  0.00  0.00    +0.000 A 
ATOM     10  C   UNL     1       5.406   6.553  17.904  0.00  0.00    +0.000 A 
ATOM     11  C   UNL     1       4.383   7.167  17.167  0.00  0.00    +0.000 A 
ATOM     12  C   UNL     1       4.409   7.084  15.771  0.00  0.00    +0.000 A 
ATOM     13  C   UNL     1       5.401   6.338  15.123  0.00  0.00    +0.000 A 
BRANCH   8  15
ATOM     14  C   UNL     1       7.118   4.318  14.061  0.00  0.00    +0.000 C 
ATOM     15  O   UNL     1       7.358   4.868  15.352  0.00  0.00    +0.000 OA
ENDBRANCH   8  15
ENDBRANCH   1  11
BRANCH   7  16
ATOM     16  C   UNL     1       2.217   5.782  18.941  0.00  0.00    +0.000 A 
ATOM     17  C   UNL     1       1.882   4.869  17.937  0.00  0.00    +0.000 A 
ATOM     18  C   UNL     1       1.947   3.487  18.177  0.00  0.00    +0.000 A 
ATOM     19  C   UNL     1       2.382   2.999  19.412  0.00  0.00    +0.000 A 
ATOM     20  C   UNL     1       2.651   3.900  20.434  0.00  0.00    +0.000 A 
ATOM     21  C   UNL     1       2.522   5.272  20.207  0.00  0.00    +0.000 A 
BRANCH  19  22
ATOM     22  O   UNL     1       2.452   1.640  19.539  0.00  0.00    +0.000 OA
ATOM     23  C   UNL     1       3.544   1.022  18.860  0.00  0.00    +0.000 C 
ENDBRANCH  19  22
ENDBRANCH   7  16
BRANCH   5  24
ATOM     24  C   UNL     1       0.076  10.057  19.557  0.00  0.00    +0.000 C 
BRANCH  24  25
ATOM     25  C   UNL     1      -1.089  10.367  18.654  0.00  0.00    +0.000 A 
ATOM     26  C   UNL     1      -1.264   9.714  17.428  0.00  0.00    +0.000 A 
ATOM     27  C   UNL     1      -2.297  10.098  16.578  0.00  0.00    +0.000 A 
ATOM     28  C   UNL     1      -3.133  11.124  16.986  0.00  0.00    +0.000 A 
ATOM     29  N   UNL     1      -3.014  11.763  18.169  0.00  0.00    +0.000 NA
ATOM     30  C   UNL     1      -1.998  11.368  18.975  0.00  0.00    +0.000 A 
ENDBRANCH  24  25
ENDBRANCH   5  24
TORSDOF 6
ENDMDL
MODEL 8
REMARK VINA RESULT:      -6.3      1.121      1.375
REMARK  Name = 
REMARK  8 active torsions:
REMARK  status: ('A' for Active; 'I' for Inactive)
REMARK    1  A    between atoms: C_1  and  O_2
REMARK    2  A    between atoms: O_2  and  C_3
REMARK    3  A    between atoms: C_6  and  C_7
REMARK    4  A    between atoms: N_11  and  C_12
REMARK    5  A    between atoms: C_12  and  C_13
REMARK    6  A    between atoms: C_20  and  C_21
REMARK    7  A    between atoms: C_24  and  O_25
REMARK    8  A    between atoms: O_25  and  C_26
REMARK                            x       y       z     vdW  Elec       q    Type
REMARK                         _______ _______ _______ _____ _____    ______ ____
ROOT
ATOM      1  C   UNL     1      -0.589  12.061  20.503  0.00  0.00    +0.000 A 
ATOM      2  C   UNL     1      -0.152  12.540  21.671  0.00  0.00    +0.000 A 
ATOM      3  C   UNL     1      -0.969  13.456  22.483  0.00  0.00    +0.000 A 
ATOM      4  O   UNL     1      -0.541  13.814  23.579  0.00  0.00    +0.000 OA
ATOM      5  N   UNL     1      -2.174  13.850  21.931  0.00  0.00    +0.000 N 
ATOM      6  N   UNL     1      -2.678  13.359  20.740  0.00  0.00    +0.000 NA
ATOM      7  C   UNL     1      -1.964  12.500  20.069  0.00  0.00    +0.000 A 
ENDROOT
BRANCH   1  11
ATOM      8  C   UNL     1       1.989   9.594  18.138  0.00  0.00    +0.000 A 
ATOM      9  C   UNL     1       1.099   9.016  19.043  0.00  0.00    +0.000 A 
ATOM     10  C   UNL     1       0.297   9.818  19.860  0.00  0.00    +0.000 A 
ATOM     11  C   UNL     1       0.335  11.214  19.735  0.00  0.00    +0.000 A 
ATOM     12  C   UNL     1       1.266  11.791  18.865  0.00  0.00    +0.000 A 
ATOM     13  C   UNL     1       2.096  10.985  18.076  0.00  0.00    +0.000 A 
BRANCH   8  15
ATOM     14  C   UNL     1       2.988   7.450  18.009  0.00  0.00    +0.000 C 
ATOM     15  O   UNL     1       2.716   8.706  17.396  0.00  0.00    +0.000 OA
ENDBRANCH   8  15
ENDBRANCH   1  11
BRANCH   7  16
ATOM     16  C   UNL     1      -2.553  11.943  18.798  0.00  0.00    +0.000 A 
ATOM     17  C   UNL     1      -3.903  11.587  18.749  0.00  0.00    +0.000 A 
ATOM     18  C   UNL     1      -4.473  11.106  17.559  0.00  0.00    +0.000 A 
ATOM     19  C   UNL     1      -3.709  11.012  16.393  0.00  0.00    +0.000 A 
ATOM     20  C   UNL     1      -2.352  11.300  16.452  0.00  0.00    +0.000 A 
ATOM     21  C   UNL     1      -1.779  11.715  17.657  0.00  0.00    +0.000 A 
BRANCH  19  22
ATOM     22  O   UNL     1      -4.360  10.574  15.273  0.00  0.00    +0.000 OA
ATOM     23  C   UNL     1      -3.517  10.082  14.233  0.00  0.00    +0.000 C 
ENDBRANCH  19  22
ENDBRANCH   7  16
BRANCH   5  24
ATOM     24  C   UNL     1      -3.056  14.713  22.712  0.00  0.00    +0.000 C 
BRANCH  24  25
ATOM     25  C   UNL     1      -4.262  14.013  23.282  0.00  0.00    +0.000 A 
ATOM     26  C   UNL     1      -4.139  12.984  24.223  0.00  0.00    +0.000 A 
ATOM     27  C   UNL     1      -5.271  12.297  24.652  0.00  0.00    +0.000 A 
ATOM     28  C   UNL     1      -6.499  12.666  24.130  0.00  0.00    +0.000 A 
ATOM     29  N   UNL     1      -6.663  13.668  23.240  0.00  0.00    +0.000 NA
ATOM     30  C   UNL     1      -5.544  14.319  22.840  0.00  0.00    +0.000 A 
ENDBRANCH  24  25
ENDBRANCH   5  24
TORSDOF 6
ENDMDL
MODEL 9
REMARK VINA RESULT:      -6.3      4.067      7.433
REMARK  Name = 
REMARK  8 active torsions:
REMARK  status: ('A' for Active; 'I' for Inactive)
REMARK    1  A    between atoms: C_1  and  O_2
REMARK    2  A    between atoms: O_2  and  C_3
REMARK    3  A    between atoms: C_6  and  C_7
REMARK    4  A    between atoms: N_11  and  C_12
REMARK    5  A    between atoms: C_12  and  C_13
REMARK    6  A    between atoms: C_20  and  C_21
REMARK    7  A    between atoms: C_24  and  O_25
REMARK    8  A    between atoms: O_25  and  C_26
REMARK                            x       y       z     vdW  Elec       q    Type
REMARK                         _______ _______ _______ _____ _____    ______ ____
ROOT
ATOM      1  C   UNL     1       1.043  12.742  19.465  0.00  0.00    +0.000 A 
ATOM      2  C   UNL     1       2.115  13.114  18.758  0.00  0.00    +0.000 A 
ATOM      3  C   UNL     1       3.141  14.004  19.325  0.00  0.00    +0.000 A 
ATOM      4  O   UNL     1       4.137  14.260  18.649  0.00  0.00    +0.000 OA
ATOM      5  N   UNL     1       2.892  14.492  20.594  0.00  0.00    +0.000 N 
ATOM      6  N   UNL     1       1.811  14.113  21.371  0.00  0.00    +0.000 NA
ATOM      7  C   UNL     1       0.949  13.273  20.871  0.00  0.00    +0.000 A 
ENDROOT
BRANCH   1  11
ATOM      8  C   UNL     1      -1.789  10.351  17.323  0.00  0.00    +0.000 A 
ATOM      9  C   UNL     1      -2.026  11.711  17.526  0.00  0.00    +0.000 A 
ATOM     10  C   UNL     1      -1.135  12.483  18.274  0.00  0.00    +0.000 A 
ATOM     11  C   UNL     1       0.041  11.912  18.780  0.00  0.00    +0.000 A 
ATOM     12  C   UNL     1       0.251  10.538  18.620  0.00  0.00    +0.000 A 
ATOM     13  C   UNL     1      -0.665   9.760  17.902  0.00  0.00    +0.000 A 
BRANCH   8  15
ATOM     14  C   UNL     1      -2.989  10.249  15.283  0.00  0.00    +0.000 C 
ATOM     15  O   UNL     1      -2.732   9.705  16.573  0.00  0.00    +0.000 OA
ENDBRANCH   8  15
ENDBRANCH   1  11
BRANCH   7  16
ATOM     16  C   UNL     1      -0.194  12.840  21.753  0.00  0.00    +0.000 A 
ATOM     17  C   UNL     1      -1.158  13.767  22.158  0.00  0.00    +0.000 A 
ATOM     18  C   UNL     1      -2.249  13.365  22.945  0.00  0.00    +0.000 A 
ATOM     19  C   UNL     1      -2.411  12.025  23.306  0.00  0.00    +0.000 A 
ATOM     20  C   UNL     1      -1.422  11.112  22.964  0.00  0.00    +0.000 A 
ATOM     21  C   UNL     1      -0.306  11.532  22.236  0.00  0.00    +0.000 A 
BRANCH  19  22
ATOM     22  O   UNL     1      -3.526  11.721  24.037  0.00  0.00    +0.000 OA
ATOM     23  C   UNL     1      -4.440  12.799  24.227  0.00  0.00    +0.000 C 
ENDBRANCH  19  22
ENDBRANCH   7  16
BRANCH   5  24
ATOM     24  C   UNL     1       3.899  15.334  21.234  0.00  0.00    +0.000 C 
BRANCH  24  25
ATOM     25  C   UNL     1       5.145  14.600  21.653  0.00  0.00    +0.000 A 
ATOM     26  C   UNL     1       5.117  13.609  22.642  0.00  0.00    +0.000 A 
ATOM     27  C   UNL     1       6.305  13.023  23.071  0.00  0.00    +0.000 A 
ATOM     28  C   UNL     1       7.490  13.442  22.490  0.00  0.00    +0.000 A 
ATOM     29  N   UNL     1       7.557  14.377  21.518  0.00  0.00    +0.000 NA
ATOM     30  C   UNL     1       6.386  14.930  21.121  0.00  0.00    +0.000 A 
ENDBRANCH  24  25
ENDBRANCH   5  24
TORSDOF 6
ENDMDL
