MODEL 1
REMARK VINA RESULT:      -8.2      0.000      0.000
REMARK  Name = 
REMARK  16 active torsions:
REMARK  status: ('A' for Active; 'I' for Inactive)
REMARK    1  A    between atoms: C_1  and  C_2
REMARK    2  A    between atoms: C_2  and  C_3
REMARK    3  A    between atoms: C_3  and  C_4
REMARK    4  A    between atoms: C_4  and  C_5
REMARK    5  A    between atoms: C_5  and  C_6
REMARK    6  A    between atoms: C_6  and  C_7
REMARK    7  A    between atoms: C_7  and  C_8
REMARK    8  A    between atoms: C_8  and  S_9
REMARK    9  A    between atoms: S_9  and  N_12
REMARK   10  A    between atoms: N_12  and  C_13
REMARK   11  A    between atoms: C_16  and  C_17
REMARK   12  A    between atoms: C_18  and  C_19
REMARK   13  A    between atoms: C_22  and  O_23
REMARK   14  A    between atoms: O_23  and  C_24
REMARK   15  A    between atoms: C_28  and  C_29
REMARK   16  A    between atoms: C_29  and  O_31
REMARK                            x       y       z     vdW  Elec       q    Type
REMARK                         _______ _______ _______ _____ _____    ______ ____
ROOT
ATOM      1  C   UNL     1       6.820   5.487  17.976  0.00  0.00    +0.000 A 
ATOM      2  C   UNL     1       7.813   5.762  18.924  0.00  0.00    +0.000 A 
ATOM      3  C   UNL     1       8.375   7.044  19.030  0.00  0.00    +0.000 A 
ATOM      4  C   UNL     1       8.036   8.052  18.123  0.00  0.00    +0.000 A 
ATOM      5  C   UNL     1       7.054   7.773  17.168  0.00  0.00    +0.000 A 
ATOM      6  C   UNL     1       6.411   6.523  17.110  0.00  0.00    +0.000 A 
ENDROOT
BRANCH   1   7
ATOM      7  N   UNL     1       6.285   4.133  17.932  0.00  0.00    +0.000 N 
ATOM      8  H   UNL     1       5.948   3.898  16.989  0.00  0.00    +0.000 HD
BRANCH   7   9
ATOM      9  S   UNL     1       4.879   3.883  18.947  0.00  0.00    +0.000 S 
ATOM     10  O   UNL     1       4.331   5.201  19.200  0.00  0.00    +0.000 OA
ATOM     11  O   UNL     1       5.251   2.971  19.997  0.00  0.00    +0.000 OA
BRANCH   9  12
ATOM     12  C   UNL     1       3.848   3.005  17.757  0.00  0.00    +0.000 C 
BRANCH  12  13
ATOM     13  C   UNL     1       2.891   3.954  17.050  0.00  0.00    +0.000 C 
BRANCH  13  14
ATOM     14  C   UNL     1       1.482   3.895  17.640  0.00  0.00    +0.000 C 
BRANCH  14  15
ATOM     15  C   UNL     1       1.300   2.620  18.462  0.00  0.00    +0.000 C 
BRANCH  15  16
ATOM     16  C   UNL     1       0.661   2.929  19.811  0.00  0.00    +0.000 C 
BRANCH  16  17
ATOM     17  C   UNL     1       1.187   4.245  20.374  0.00  0.00    +0.000 C 
BRANCH  17  19
ATOM     18  C   UNL     1       2.338   2.510  21.773  0.00  0.00    +0.000 C 
ATOM     19  C   UNL     1       2.109   3.996  21.564  0.00  0.00    +0.000 C 
ENDBRANCH  17  19
ENDBRANCH  16  17
ENDBRANCH  15  16
ENDBRANCH  14  15
ENDBRANCH  13  14
ENDBRANCH  12  13
ENDBRANCH   9  12
ENDBRANCH   7   9
ENDBRANCH   1   7
BRANCH   4  20
ATOM     20  C   UNL     1       8.586   9.416  18.197  0.00  0.00    +0.000 C 
ATOM     21  C   UNL     1       9.377   9.880  19.180  0.00  0.00    +0.000 C 
BRANCH  21  22
ATOM     22  C   UNL     1       9.873  11.266  19.237  0.00  0.00    +0.000 A 
ATOM     23  C   UNL     1      10.574  11.846  18.173  0.00  0.00    +0.000 A 
ATOM     24  C   UNL     1      10.994  13.179  18.238  0.00  0.00    +0.000 A 
ATOM     25  C   UNL     1      10.681  13.965  19.345  0.00  0.00    +0.000 A 
ATOM     26  C   UNL     1       9.995  13.393  20.417  0.00  0.00    +0.000 A 
ATOM     27  C   UNL     1       9.588  12.053  20.359  0.00  0.00    +0.000 A 
BRANCH  25  28
ATOM     28  O   UNL     1      11.120  15.259  19.294  0.00  0.00    +0.000 OA
ATOM     29  C   UNL     1      12.112  15.523  18.306  0.00  0.00    +0.000 C 
ENDBRANCH  25  28
ENDBRANCH  21  22
ENDBRANCH   4  20
BRANCH   6  30
ATOM     30  C   UNL     1       5.213   6.510  16.215  0.00  0.00    +0.000 C 
ATOM     31  O   UNL     1       5.275   6.302  15.012  0.00  0.00    +0.000 OA
BRANCH  30  32
ATOM     32  O   UNL     1       4.118   7.058  16.800  0.00  0.00    +0.000 OA
ATOM     33  H   UNL     1       4.138   8.035  16.745  0.00  0.00    +0.000 HD
ENDBRANCH  30  32
ENDBRANCH   6  30
TORSDOF 14
ENDMDL
MODEL 2
REMARK VINA RESULT:      -7.8      1.239      1.706
REMARK  Name = 
REMARK  16 active torsions:
REMARK  status: ('A' for Active; 'I' for Inactive)
REMARK    1  A    between atoms: C_1  and  C_2
REMARK    2  A    between atoms: C_2  and  C_3
REMARK    3  A    between atoms: C_3  and  C_4
REMARK    4  A    between atoms: C_4  and  C_5
REMARK    5  A    between atoms: C_5  and  C_6
REMARK    6  A    between atoms: C_6  and  C_7
REMARK    7  A    between atoms: C_7  and  C_8
REMARK    8  A    between atoms: C_8  and  S_9
REMARK    9  A    between atoms: S_9  and  N_12
REMARK   10  A    between atoms: N_12  and  C_13
REMARK   11  A    between atoms: C_16  and  C_17
REMARK   12  A    between atoms: C_18  and  C_19
REMARK   13  A    between atoms: C_22  and  O_23
REMARK   14  A    between atoms: O_23  and  C_24
REMARK   15  A    between atoms: C_28  and  C_29
REMARK   16  A    between atoms: C_29  and  O_31
REMARK                            x       y       z     vdW  Elec       q    Type
REMARK                         _______ _______ _______ _____ _____    ______ ____
ROOT
ATOM      1  C   UNL     1       6.969   5.205  18.012  0.00  0.00    +0.000 A 
ATOM      2  C   UNL     1       7.676   5.706  19.111  0.00  0.00    +0.000 A 
ATOM      3  C   UNL     1       8.144   7.030  19.126  0.00  0.00    +0.000 A 
ATOM      4  C   UNL     1       8.010   7.849  18.002  0.00  0.00    +0.000 A 
ATOM      5  C   UNL     1       7.315   7.344  16.899  0.00  0.00    +0.000 A 
ATOM      6  C   UNL     1       6.756   6.053  16.904  0.00  0.00    +0.000 A 
ENDROOT
BRANCH   1   7
ATOM      7  N   UNL     1       6.514   3.823  18.075  0.00  0.00    +0.000 N 
ATOM      8  H   UNL     1       6.471   3.404  17.136  0.00  0.00    +0.000 HD
BRANCH   7   9
ATOM      9  S   UNL     1       4.883   3.631  18.687  0.00  0.00    +0.000 S 
ATOM     10  O   UNL     1       4.991   2.764  19.844  0.00  0.00    +0.000 OA
ATOM     11  O   UNL     1       4.023   3.347  17.568  0.00  0.00    +0.000 OA
BRANCH   9  12
ATOM     12  C   UNL     1       4.599   5.331  19.216  0.00  0.00    +0.000 C 
BRANCH  12  13
ATOM     13  C   UNL     1       3.546   6.009  18.350  0.00  0.00    +0.000 C 
BRANCH  13  14
ATOM     14  C   UNL     1       2.301   6.389  19.151  0.00  0.00    +0.000 C 
BRANCH  14  15
ATOM     15  C   UNL     1       2.236   5.589  20.450  0.00  0.00    +0.000 C 
BRANCH  15  16
ATOM     16  C   UNL     1       0.931   4.807  20.544  0.00  0.00    +0.000 C 
BRANCH  16  17
ATOM     17  C   UNL     1       0.959   3.589  19.627  0.00  0.00    +0.000 C 
BRANCH  17  19
ATOM     18  C   UNL     1       1.464   2.474  21.816  0.00  0.00    +0.000 C 
ATOM     19  C   UNL     1       1.646   2.411  20.310  0.00  0.00    +0.000 C 
ENDBRANCH  17  19
ENDBRANCH  16  17
ENDBRANCH  15  16
ENDBRANCH  14  15
ENDBRANCH  13  14
ENDBRANCH  12  13
ENDBRANCH   9  12
ENDBRANCH   7   9
ENDBRANCH   1   7
BRANCH   4  20
ATOM     20  C   UNL     1       8.473   9.248  17.970  0.00  0.00    +0.000 C 
ATOM     21  C   UNL     1       9.225   9.837  18.915  0.00  0.00    +0.000 C 
BRANCH  21  22
ATOM     22  C   UNL     1       9.631  11.252  18.864  0.00  0.00    +0.000 A 
ATOM     23  C   UNL     1      10.624  11.768  19.705  0.00  0.00    +0.000 A 
ATOM     24  C   UNL     1      11.021  13.105  19.605  0.00  0.00    +0.000 A 
ATOM     25  C   UNL     1      10.466  13.935  18.633  0.00  0.00    +0.000 A 
ATOM     26  C   UNL     1       9.466  13.435  17.798  0.00  0.00    +0.000 A 
ATOM     27  C   UNL     1       9.056  12.099  17.909  0.00  0.00    +0.000 A 
BRANCH  25  28
ATOM     28  O   UNL     1      10.943  15.216  18.608  0.00  0.00    +0.000 OA
ATOM     29  C   UNL     1      11.649  15.576  17.424  0.00  0.00    +0.000 C 
ENDBRANCH  25  28
ENDBRANCH  21  22
ENDBRANCH   4  20
BRANCH   6  30
ATOM     30  C   UNL     1       5.827   5.802  15.760  0.00  0.00    +0.000 C 
ATOM     31  O   UNL     1       5.852   4.782  15.086  0.00  0.00    +0.000 OA
BRANCH  30  32
ATOM     32  O   UNL     1       5.187   6.926  15.351  0.00  0.00    +0.000 OA
ATOM     33  H   UNL     1       5.534   7.719  15.807  0.00  0.00    +0.000 HD
ENDBRANCH  30  32
ENDBRANCH   6  30
TORSDOF 14
ENDMDL
MODEL 3
REMARK VINA RESULT:      -7.6      4.260      8.697
REMARK  Name = 
REMARK  16 active torsions:
REMARK  status: ('A' for Active; 'I' for Inactive)
REMARK    1  A    between atoms: C_1  and  C_2
REMARK    2  A    between atoms: C_2  and  C_3
REMARK    3  A    between atoms: C_3  and  C_4
REMARK    4  A    between atoms: C_4  and  C_5
REMARK    5  A    between atoms: C_5  and  C_6
REMARK    6  A    between atoms: C_6  and  C_7
REMARK    7  A    between atoms: C_7  and  C_8
REMARK    8  A    between atoms: C_8  and  S_9
REMARK    9  A    between atoms: S_9  and  N_12
REMARK   10  A    between atoms: N_12  and  C_13
REMARK   11  A    between atoms: C_16  and  C_17
REMARK   12  A    between atoms: C_18  and  C_19
REMARK   13  A    between atoms: C_22  and  O_23
REMARK   14  A    between atoms: O_23  and  C_24
REMARK   15  A    between atoms: C_28  and  C_29
REMARK   16  A    between atoms: C_29  and  O_31
REMARK                            x       y       z     vdW  Elec       q    Type
REMARK                         _______ _______ _______ _____ _____    ______ ____
ROOT
ATOM      1  C   UNL     1       4.531   5.368  17.397  0.00  0.00    +0.000 A 
ATOM      2  C   UNL     1       4.180   6.680  17.059  0.00  0.00    +0.000 A 
ATOM      3  C   UNL     1       3.366   7.451  17.905  0.00  0.00    +0.000 A 
ATOM      4  C   UNL     1       2.797   6.894  19.054  0.00  0.00    +0.000 A 
ATOM      5  C   UNL     1       3.138   5.579  19.384  0.00  0.00    +0.000 A 
ATOM      6  C   UNL     1       4.028   4.825  18.599  0.00  0.00    +0.000 A 
ENDROOT
BRANCH   1   7
ATOM      7  N   UNL     1       5.382   4.636  16.469  0.00  0.00    +0.000 N 
ATOM      8  H   UNL     1       5.449   3.644  16.732  0.00  0.00    +0.000 HD
BRANCH   7   9
ATOM      9  S   UNL     1       7.050   5.173  16.449  0.00  0.00    +0.000 S 
ATOM     10  O   UNL     1       7.297   5.657  15.105  0.00  0.00    +0.000 OA
ATOM     11  O   UNL     1       7.848   4.152  17.076  0.00  0.00    +0.000 OA
BRANCH   9  12
ATOM     12  C   UNL     1       6.894   6.562  17.586  0.00  0.00    +0.000 C 
BRANCH  12  13
ATOM     13  C   UNL     1       7.840   7.694  17.208  0.00  0.00    +0.000 C 
BRANCH  13  14
ATOM     14  C   UNL     1       8.352   8.450  18.434  0.00  0.00    +0.000 C 
BRANCH  14  15
ATOM     15  C   UNL     1       8.322   9.956  18.184  0.00  0.00    +0.000 C 
BRANCH  15  16
ATOM     16  C   UNL     1       9.584  10.623  18.722  0.00  0.00    +0.000 C 
BRANCH  16  17
ATOM     17  C   UNL     1       9.487  10.833  20.229  0.00  0.00    +0.000 C 
BRANCH  17  19
ATOM     18  C   UNL     1      11.751  11.880  19.964  0.00  0.00    +0.000 C 
ATOM     19  C   UNL     1      10.415  11.957  20.680  0.00  0.00    +0.000 C 
ENDBRANCH  17  19
ENDBRANCH  16  17
ENDBRANCH  15  16
ENDBRANCH  14  15
ENDBRANCH  13  14
ENDBRANCH  12  13
ENDBRANCH   9  12
ENDBRANCH   7   9
ENDBRANCH   1   7
BRANCH   4  20
ATOM     20  C   UNL     1       1.947   7.661  19.980  0.00  0.00    +0.000 C 
ATOM     21  C   UNL     1       1.473   8.898  19.754  0.00  0.00    +0.000 C 
BRANCH  21  22
ATOM     22  C   UNL     1       0.659   9.647  20.726  0.00  0.00    +0.000 A 
ATOM     23  C   UNL     1       0.310   9.108  21.970  0.00  0.00    +0.000 A 
ATOM     24  C   UNL     1      -0.427   9.859  22.892  0.00  0.00    +0.000 A 
ATOM     25  C   UNL     1      -0.786  11.175  22.604  0.00  0.00    +0.000 A 
ATOM     26  C   UNL     1      -0.455  11.717  21.362  0.00  0.00    +0.000 A 
ATOM     27  C   UNL     1       0.269  10.959  20.431  0.00  0.00    +0.000 A 
BRANCH  25  28
ATOM     28  O   UNL     1      -1.484  11.825  23.584  0.00  0.00    +0.000 OA
ATOM     29  C   UNL     1      -2.844  12.109  23.272  0.00  0.00    +0.000 C 
ENDBRANCH  25  28
ENDBRANCH  21  22
ENDBRANCH   4  20
BRANCH   6  30
ATOM     30  C   UNL     1       4.478   3.559  19.257  0.00  0.00    +0.000 C 
ATOM     31  O   UNL     1       3.834   2.990  20.128  0.00  0.00    +0.000 OA
BRANCH  30  32
ATOM     32  O   UNL     1       5.787   3.288  19.029  0.00  0.00    +0.000 OA
ATOM     33  H   UNL     1       6.341   3.549  19.792  0.00  0.00    +0.000 HD
ENDBRANCH  30  32
ENDBRANCH   6  30
TORSDOF 14
ENDMDL
MODEL 4
REMARK VINA RESULT:      -7.5      0.755      1.141
REMARK  Name = 
REMARK  16 active torsions:
REMARK  status: ('A' for Active; 'I' for Inactive)
REMARK    1  A    between atoms: C_1  and  C_2
REMARK    2  A    between atoms: C_2  and  C_3
REMARK    3  A    between atoms: C_3  and  C_4
REMARK    4  A    between atoms: C_4  and  C_5
REMARK    5  A    between atoms: C_5  and  C_6
REMARK    6  A    between atoms: C_6  and  C_7
REMARK    7  A    between atoms: C_7  and  C_8
REMARK    8  A    between atoms: C_8  and  S_9
REMARK    9  A    between atoms: S_9  and  N_12
REMARK   10  A    between atoms: N_12  and  C_13
REMARK   11  A    between atoms: C_16  and  C_17
REMARK   12  A    between atoms: C_18  and  C_19
REMARK   13  A    between atoms: C_22  and  O_23
REMARK   14  A    between atoms: O_23  and  C_24
REMARK   15  A    between atoms: C_28  and  C_29
REMARK   16  A    between atoms: C_29  and  O_31
REMARK                            x       y       z     vdW  Elec       q    Type
REMARK                         _______ _______ _______ _____ _____    ______ ____
ROOT
ATOM      1  C   UNL     1       6.838   5.271  17.983  0.00  0.00    +0.000 A 
ATOM      2  C   UNL     1       7.694   5.644  19.026  0.00  0.00    +0.000 A 
ATOM      3  C   UNL     1       8.225   6.942  19.094  0.00  0.00    +0.000 A 
ATOM      4  C   UNL     1       8.001   7.863  18.068  0.00  0.00    +0.000 A 
ATOM      5  C   UNL     1       7.156   7.486  17.020  0.00  0.00    +0.000 A 
ATOM      6  C   UNL     1       6.538   6.222  16.985  0.00  0.00    +0.000 A 
ENDROOT
BRANCH   1   7
ATOM      7  N   UNL     1       6.325   3.908  17.985  0.00  0.00    +0.000 N 
ATOM      8  H   UNL     1       6.080   3.603  17.034  0.00  0.00    +0.000 HD
BRANCH   7   9
ATOM      9  S   UNL     1       4.833   3.703  18.882  0.00  0.00    +0.000 S 
ATOM     10  O   UNL     1       4.269   5.031  19.026  0.00  0.00    +0.000 OA
ATOM     11  O   UNL     1       5.106   2.839  20.000  0.00  0.00    +0.000 OA
BRANCH   9  12
ATOM     12  C   UNL     1       3.909   2.773  17.645  0.00  0.00    +0.000 C 
BRANCH  12  13
ATOM     13  C   UNL     1       2.783   3.610  17.053  0.00  0.00    +0.000 C 
BRANCH  13  14
ATOM     14  C   UNL     1       1.579   3.701  17.990  0.00  0.00    +0.000 C 
BRANCH  14  15
ATOM     15  C   UNL     1       1.426   2.409  18.790  0.00  0.00    +0.000 C 
BRANCH  15  16
ATOM     16  C   UNL     1       0.888   2.694  20.188  0.00  0.00    +0.000 C 
BRANCH  16  17
ATOM     17  C   UNL     1       1.620   3.872  20.822  0.00  0.00    +0.000 C 
BRANCH  17  19
ATOM     18  C   UNL     1       1.806   6.372  20.759  0.00  0.00    +0.000 C 
ATOM     19  C   UNL     1       0.892   5.181  20.534  0.00  0.00    +0.000 C 
ENDBRANCH  17  19
ENDBRANCH  16  17
ENDBRANCH  15  16
ENDBRANCH  14  15
ENDBRANCH  13  14
ENDBRANCH  12  13
ENDBRANCH   9  12
ENDBRANCH   7   9
ENDBRANCH   1   7
BRANCH   4  20
ATOM     20  C   UNL     1       8.524   9.240  18.096  0.00  0.00    +0.000 C 
ATOM     21  C   UNL     1       9.285   9.760  19.075  0.00  0.00    +0.000 C 
BRANCH  21  22
ATOM     22  C   UNL     1       9.754  11.155  19.085  0.00  0.00    +0.000 A 
ATOM     23  C   UNL     1      10.072  11.838  17.904  0.00  0.00    +0.000 A 
ATOM     24  C   UNL     1      10.473  13.177  17.940  0.00  0.00    +0.000 A 
ATOM     25  C   UNL     1      10.517  13.868  19.149  0.00  0.00    +0.000 A 
ATOM     26  C   UNL     1      10.215  13.195  20.333  0.00  0.00    +0.000 A 
ATOM     27  C   UNL     1       9.829  11.848  20.299  0.00  0.00    +0.000 A 
BRANCH  25  28
ATOM     28  O   UNL     1      10.899  15.179  19.066  0.00  0.00    +0.000 OA
ATOM     29  C   UNL     1      10.198  16.070  19.928  0.00  0.00    +0.000 C 
ENDBRANCH  25  28
ENDBRANCH  21  22
ENDBRANCH   4  20
BRANCH   6  30
ATOM     30  C   UNL     1       5.468   6.111  15.946  0.00  0.00    +0.000 C 
ATOM     31  O   UNL     1       4.540   6.902  15.850  0.00  0.00    +0.000 OA
BRANCH  30  32
ATOM     32  O   UNL     1       5.451   4.897  15.341  0.00  0.00    +0.000 OA
ATOM     33  H   UNL     1       4.712   4.828  14.703  0.00  0.00    +0.000 HD
ENDBRANCH  30  32
ENDBRANCH   6  30
TORSDOF 14
ENDMDL
MODEL 5
REMARK VINA RESULT:      -7.3      4.298      8.704
REMARK  Name = 
REMARK  16 active torsions:
REMARK  status: ('A' for Active; 'I' for Inactive)
REMARK    1  A    between atoms: C_1  and  C_2
REMARK    2  A    between atoms: C_2  and  C_3
REMARK    3  A    between atoms: C_3  and  C_4
REMARK    4  A    between atoms: C_4  and  C_5
REMARK    5  A    between atoms: C_5  and  C_6
REMARK    6  A    between atoms: C_6  and  C_7
REMARK    7  A    between atoms: C_7  and  C_8
REMARK    8  A    between atoms: C_8  and  S_9
REMARK    9  A    between atoms: S_9  and  N_12
REMARK   10  A    between atoms: N_12  and  C_13
REMARK   11  A    between atoms: C_16  and  C_17
REMARK   12  A    between atoms: C_18  and  C_19
REMARK   13  A    between atoms: C_22  and  O_23
REMARK   14  A    between atoms: O_23  and  C_24
REMARK   15  A    between atoms: C_28  and  C_29
REMARK   16  A    between atoms: C_29  and  O_31
REMARK                            x       y       z     vdW  Elec       q    Type
REMARK                         _______ _______ _______ _____ _____    ______ ____
ROOT
ATOM      1  C   UNL     1       4.662   5.534  17.557  0.00  0.00    +0.000 A 
ATOM      2  C   UNL     1       4.500   6.790  16.959  0.00  0.00    +0.000 A 
ATOM      3  C   UNL     1       3.602   7.731  17.489  0.00  0.00    +0.000 A 
ATOM      4  C   UNL     1       2.770   7.402  18.562  0.00  0.00    +0.000 A 
ATOM      5  C   UNL     1       2.923   6.143  19.150  0.00  0.00    +0.000 A 
ATOM      6  C   UNL     1       3.884   5.224  18.692  0.00  0.00    +0.000 A 
ENDROOT
BRANCH   1   7
ATOM      7  N   UNL     1       5.615   4.616  16.949  0.00  0.00    +0.000 N 
ATOM      8  H   UNL     1       5.652   3.726  17.465  0.00  0.00    +0.000 HD
BRANCH   7   9
ATOM      9  S   UNL     1       7.274   5.179  16.979  0.00  0.00    +0.000 S 
ATOM     10  O   UNL     1       7.437   6.000  15.795  0.00  0.00    +0.000 OA
ATOM     11  O   UNL     1       8.117   4.050  17.275  0.00  0.00    +0.000 OA
BRANCH   9  12
ATOM     12  C   UNL     1       7.172   6.224  18.444  0.00  0.00    +0.000 C 
BRANCH  12  13
ATOM     13  C   UNL     1       8.220   7.328  18.408  0.00  0.00    +0.000 C 
BRANCH  13  14
ATOM     14  C   UNL     1       7.652   8.643  17.873  0.00  0.00    +0.000 C 
BRANCH  14  15
ATOM     15  C   UNL     1       8.750   9.700  17.778  0.00  0.00    +0.000 C 
BRANCH  15  16
ATOM     16  C   UNL     1       9.162  10.184  19.163  0.00  0.00    +0.000 C 
BRANCH  16  17
ATOM     17  C   UNL     1      10.348  11.138  19.076  0.00  0.00    +0.000 C 
BRANCH  17  19
ATOM     18  C   UNL     1       9.524  13.201  17.911  0.00  0.00    +0.000 C 
ATOM     19  C   UNL     1      10.322  11.918  17.765  0.00  0.00    +0.000 C 
ENDBRANCH  17  19
ENDBRANCH  16  17
ENDBRANCH  15  16
ENDBRANCH  14  15
ENDBRANCH  13  14
ENDBRANCH  12  13
ENDBRANCH   9  12
ENDBRANCH   7   9
ENDBRANCH   1   7
BRANCH   4  20
ATOM     20  C   UNL     1       1.821   8.355  19.163  0.00  0.00    +0.000 C 
ATOM     21  C   UNL     1       1.494   8.406  20.465  0.00  0.00    +0.000 C 
BRANCH  21  22
ATOM     22  C   UNL     1       0.507   9.348  21.019  0.00  0.00    +0.000 A 
ATOM     23  C   UNL     1       0.223   9.402  22.389  0.00  0.00    +0.000 A 
ATOM     24  C   UNL     1      -0.687  10.338  22.893  0.00  0.00    +0.000 A 
ATOM     25  C   UNL     1      -1.290  11.264  22.044  0.00  0.00    +0.000 A 
ATOM     26  C   UNL     1      -1.024  11.211  20.675  0.00  0.00    +0.000 A 
ATOM     27  C   UNL     1      -0.125  10.262  20.168  0.00  0.00    +0.000 A 
BRANCH  25  28
ATOM     28  O   UNL     1      -2.144  12.148  22.644  0.00  0.00    +0.000 OA
ATOM     29  C   UNL     1      -1.515  13.177  23.402  0.00  0.00    +0.000 C 
ENDBRANCH  25  28
ENDBRANCH  21  22
ENDBRANCH   4  20
BRANCH   6  30
ATOM     30  C   UNL     1       4.082   4.061  19.613  0.00  0.00    +0.000 C 
ATOM     31  O   UNL     1       4.957   3.222  19.455  0.00  0.00    +0.000 OA
BRANCH  30  32
ATOM     32  O   UNL     1       3.021   3.857  20.432  0.00  0.00    +0.000 OA
ATOM     33  H   UNL     1       3.303   3.781  21.366  0.00  0.00    +0.000 HD
ENDBRANCH  30  32
ENDBRANCH   6  30
TORSDOF 14
ENDMDL
MODEL 6
REMARK VINA RESULT:      -7.3      1.329      1.869
REMARK  Name = 
REMARK  16 active torsions:
REMARK  status: ('A' for Active; 'I' for Inactive)
REMARK    1  A    between atoms: C_1  and  C_2
REMARK    2  A    between atoms: C_2  and  C_3
REMARK    3  A    between atoms: C_3  and  C_4
REMARK    4  A    between atoms: C_4  and  C_5
REMARK    5  A    between atoms: C_5  and  C_6
REMARK    6  A    between atoms: C_6  and  C_7
REMARK    7  A    between atoms: C_7  and  C_8
REMARK    8  A    between atoms: C_8  and  S_9
REMARK    9  A    between atoms: S_9  and  N_12
REMARK   10  A    between atoms: N_12  and  C_13
REMARK   11  A    between atoms: C_16  and  C_17
REMARK   12  A    between atoms: C_18  and  C_19
REMARK   13  A    between atoms: C_22  and  O_23
REMARK   14  A    between atoms: O_23  and  C_24
REMARK   15  A    between atoms: C_28  and  C_29
REMARK   16  A    between atoms: C_29  and  O_31
REMARK                            x       y       z     vdW  Elec       q    Type
REMARK                         _______ _______ _______ _____ _____    ______ ____
ROOT
ATOM      1  C   UNL     1       7.108   5.333  17.800  0.00  0.00    +0.000 A 
ATOM      2  C   UNL     1       7.754   5.778  18.959  0.00  0.00    +0.000 A 
ATOM      3  C   UNL     1       8.178   7.111  19.083  0.00  0.00    +0.000 A 
ATOM      4  C   UNL     1       8.063   8.001  18.013  0.00  0.00    +0.000 A 
ATOM      5  C   UNL     1       7.430   7.552  16.850  0.00  0.00    +0.000 A 
ATOM      6  C   UNL     1       6.913   6.248  16.744  0.00  0.00    +0.000 A 
ENDROOT
BRANCH   1   7
ATOM      7  N   UNL     1       6.695   3.937  17.751  0.00  0.00    +0.000 N 
ATOM      8  H   UNL     1       6.728   3.575  16.789  0.00  0.00    +0.000 HD
BRANCH   7   9
ATOM      9  S   UNL     1       5.035   3.661  18.239  0.00  0.00    +0.000 S 
ATOM     10  O   UNL     1       5.101   3.079  19.565  0.00  0.00    +0.000 OA
ATOM     11  O   UNL     1       4.351   3.036  17.138  0.00  0.00    +0.000 OA
BRANCH   9  12
ATOM     12  C   UNL     1       4.504   5.380  18.347  0.00  0.00    +0.000 C 
BRANCH  12  13
ATOM     13  C   UNL     1       3.995   5.713  19.743  0.00  0.00    +0.000 C 
BRANCH  13  14
ATOM     14  C   UNL     1       2.669   6.473  19.707  0.00  0.00    +0.000 C 
BRANCH  14  15
ATOM     15  C   UNL     1       1.595   5.711  20.481  0.00  0.00    +0.000 C 
BRANCH  15  16
ATOM     16  C   UNL     1       2.090   4.324  20.877  0.00  0.00    +0.000 C 
BRANCH  16  17
ATOM     17  C   UNL     1       0.953   3.308  20.837  0.00  0.00    +0.000 C 
BRANCH  17  19
ATOM     18  C   UNL     1       1.783   1.853  18.970  0.00  0.00    +0.000 C 
ATOM     19  C   UNL     1       0.705   2.827  19.411  0.00  0.00    +0.000 C 
ENDBRANCH  17  19
ENDBRANCH  16  17
ENDBRANCH  15  16
ENDBRANCH  14  15
ENDBRANCH  13  14
ENDBRANCH  12  13
ENDBRANCH   9  12
ENDBRANCH   7   9
ENDBRANCH   1   7
BRANCH   4  20
ATOM     20  C   UNL     1       8.481   9.412  18.094  0.00  0.00    +0.000 C 
ATOM     21  C   UNL     1       9.245   9.939  19.066  0.00  0.00    +0.000 C 
BRANCH  21  22
ATOM     22  C   UNL     1       9.605  11.365  19.132  0.00  0.00    +0.000 A 
ATOM     23  C   UNL     1       9.590  12.186  17.997  0.00  0.00    +0.000 A 
ATOM     24  C   UNL     1       9.895  13.547  18.097  0.00  0.00    +0.000 A 
ATOM     25  C   UNL     1      10.174  14.119  19.337  0.00  0.00    +0.000 A 
ATOM     26  C   UNL     1      10.205  13.308  20.472  0.00  0.00    +0.000 A 
ATOM     27  C   UNL     1       9.915  11.940  20.370  0.00  0.00    +0.000 A 
BRANCH  25  28
ATOM     28  O   UNL     1      10.435  15.461  19.324  0.00  0.00    +0.000 OA
ATOM     29  C   UNL     1       9.389  16.276  18.803  0.00  0.00    +0.000 C 
ENDBRANCH  25  28
ENDBRANCH  21  22
ENDBRANCH   4  20
BRANCH   6  30
ATOM     30  C   UNL     1       6.039   6.049  15.547  0.00  0.00    +0.000 C 
ATOM     31  O   UNL     1       5.188   6.854  15.196  0.00  0.00    +0.000 OA
BRANCH  30  32
ATOM     32  O   UNL     1       6.061   4.772  15.091  0.00  0.00    +0.000 OA
ATOM     33  H   UNL     1       6.801   4.267  15.484  0.00  0.00    +0.000 HD
ENDBRANCH  30  32
ENDBRANCH   6  30
TORSDOF 14
ENDMDL
MODEL 7
REMARK VINA RESULT:      -7.3      2.674      3.387
REMARK  Name = 
REMARK  16 active torsions:
REMARK  status: ('A' for Active; 'I' for Inactive)
REMARK    1  A    between atoms: C_1  and  C_2
REMARK    2  A    between atoms: C_2  and  C_3
REMARK    3  A    between atoms: C_3  and  C_4
REMARK    4  A    between atoms: C_4  and  C_5
REMARK    5  A    between atoms: C_5  and  C_6
REMARK    6  A    between atoms: C_6  and  C_7
REMARK    7  A    between atoms: C_7  and  C_8
REMARK    8  A    between atoms: C_8  and  S_9
REMARK    9  A    between atoms: S_9  and  N_12
REMARK   10  A    between atoms: N_12  and  C_13
REMARK   11  A    between atoms: C_16  and  C_17
REMARK   12  A    between atoms: C_18  and  C_19
REMARK   13  A    between atoms: C_22  and  O_23
REMARK   14  A    between atoms: O_23  and  C_24
REMARK   15  A    between atoms: C_28  and  C_29
REMARK   16  A    between atoms: C_29  and  O_31
REMARK                            x       y       z     vdW  Elec       q    Type
REMARK                         _______ _______ _______ _____ _____    ______ ____
ROOT
ATOM      1  C   UNL     1       6.203   4.725  17.517  0.00  0.00    +0.000 A 
ATOM      2  C   UNL     1       6.867   4.775  18.748  0.00  0.00    +0.000 A 
ATOM      3  C   UNL     1       7.609   5.907  19.123  0.00  0.00    +0.000 A 
ATOM      4  C   UNL     1       7.794   6.969  18.235  0.00  0.00    +0.000 A 
ATOM      5  C   UNL     1       7.141   6.913  17.000  0.00  0.00    +0.000 A 
ATOM      6  C   UNL     1       6.316   5.830  16.646  0.00  0.00    +0.000 A 
ENDROOT
BRANCH   1   7
ATOM      7  N   UNL     1       5.451   3.518  17.203  0.00  0.00    +0.000 N 
ATOM      8  H   UNL     1       5.254   3.456  16.196  0.00  0.00    +0.000 HD
BRANCH   7   9
ATOM      9  S   UNL     1       3.862   3.451  17.939  0.00  0.00    +0.000 S 
ATOM     10  O   UNL     1       3.941   2.429  18.965  0.00  0.00    +0.000 OA
ATOM     11  O   UNL     1       2.887   3.428  16.880  0.00  0.00    +0.000 OA
BRANCH   9  12
ATOM     12  C   UNL     1       3.853   5.086  18.698  0.00  0.00    +0.000 C 
BRANCH  12  13
ATOM     13  C   UNL     1       2.864   6.011  18.002  0.00  0.00    +0.000 C 
BRANCH  13  14
ATOM     14  C   UNL     1       2.843   7.405  18.627  0.00  0.00    +0.000 C 
BRANCH  14  15
ATOM     15  C   UNL     1       2.377   8.442  17.607  0.00  0.00    +0.000 C 
BRANCH  15  16
ATOM     16  C   UNL     1       1.050   9.064  18.029  0.00  0.00    +0.000 C 
BRANCH  16  17
ATOM     17  C   UNL     1       1.050   9.385  19.520  0.00  0.00    +0.000 C 
BRANCH  17  19
ATOM     18  C   UNL     1      -0.515  11.111  18.591  0.00  0.00    +0.000 C 
ATOM     19  C   UNL     1      -0.014  10.427  19.850  0.00  0.00    +0.000 C 
ENDBRANCH  17  19
ENDBRANCH  16  17
ENDBRANCH  15  16
ENDBRANCH  14  15
ENDBRANCH  13  14
ENDBRANCH  12  13
ENDBRANCH   9  12
ENDBRANCH   7   9
ENDBRANCH   1   7
BRANCH   4  20
ATOM     20  C   UNL     1       8.552   8.183  18.582  0.00  0.00    +0.000 C 
ATOM     21  C   UNL     1       8.250   9.428  18.177  0.00  0.00    +0.000 C 
BRANCH  21  22
ATOM     22  C   UNL     1       9.059  10.611  18.513  0.00  0.00    +0.000 A 
ATOM     23  C   UNL     1       9.880  10.649  19.647  0.00  0.00    +0.000 A 
ATOM     24  C   UNL     1      10.672  11.769  19.918  0.00  0.00    +0.000 A 
ATOM     25  C   UNL     1      10.692  12.849  19.037  0.00  0.00    +0.000 A 
ATOM     26  C   UNL     1       9.868  12.828  17.911  0.00  0.00    +0.000 A 
ATOM     27  C   UNL     1       9.062  11.712  17.648  0.00  0.00    +0.000 A 
BRANCH  25  28
ATOM     28  O   UNL     1      11.520  13.880  19.386  0.00  0.00    +0.000 OA
ATOM     29  C   UNL     1      10.965  14.817  20.305  0.00  0.00    +0.000 C 
ENDBRANCH  25  28
ENDBRANCH  21  22
ENDBRANCH   4  20
BRANCH   6  30
ATOM     30  C   UNL     1       5.497   6.081  15.420  0.00  0.00    +0.000 C 
ATOM     31  O   UNL     1       4.883   7.120  15.223  0.00  0.00    +0.000 OA
BRANCH  30  32
ATOM     32  O   UNL     1       5.247   4.947  14.718  0.00  0.00    +0.000 OA
ATOM     33  H   UNL     1       4.437   5.037  14.176  0.00  0.00    +0.000 HD
ENDBRANCH  30  32
ENDBRANCH   6  30
TORSDOF 14
ENDMDL
MODEL 8
REMARK VINA RESULT:      -7.3      4.929      8.006
REMARK  Name = 
REMARK  16 active torsions:
REMARK  status: ('A' for Active; 'I' for Inactive)
REMARK    1  A    between atoms: C_1  and  C_2
REMARK    2  A    between atoms: C_2  and  C_3
REMARK    3  A    between atoms: C_3  and  C_4
REMARK    4  A    between atoms: C_4  and  C_5
REMARK    5  A    between atoms: C_5  and  C_6
REMARK    6  A    between atoms: C_6  and  C_7
REMARK    7  A    between atoms: C_7  and  C_8
REMARK    8  A    between atoms: C_8  and  S_9
REMARK    9  A    between atoms: S_9  and  N_12
REMARK   10  A    between atoms: N_12  and  C_13
REMARK   11  A    between atoms: C_16  and  C_17
REMARK   12  A    between atoms: C_18  and  C_19
REMARK   13  A    between atoms: C_22  and  O_23
REMARK   14  A    between atoms: O_23  and  C_24
REMARK   15  A    between atoms: C_28  and  C_29
REMARK   16  A    between atoms: C_29  and  O_31
REMARK                            x       y       z     vdW  Elec       q    Type
REMARK                         _______ _______ _______ _____ _____    ______ ____
ROOT
ATOM      1  C   UNL     1       3.297   4.500  19.718  0.00  0.00    +0.000 A 
ATOM      2  C   UNL     1       3.730   5.690  19.121  0.00  0.00    +0.000 A 
ATOM      3  C   UNL     1       3.069   6.904  19.368  0.00  0.00    +0.000 A 
ATOM      4  C   UNL     1       1.900   6.940  20.131  0.00  0.00    +0.000 A 
ATOM      5  C   UNL     1       1.460   5.749  20.717  0.00  0.00    +0.000 A 
ATOM      6  C   UNL     1       2.164   4.542  20.558  0.00  0.00    +0.000 A 
ENDROOT
BRANCH   1   7
ATOM      7  N   UNL     1       4.038   3.283  19.414  0.00  0.00    +0.000 N 
ATOM      8  H   UNL     1       4.973   3.501  19.045  0.00  0.00    +0.000 HD
BRANCH   7   9
ATOM      9  S   UNL     1       3.316   2.298  18.156  0.00  0.00    +0.000 S 
ATOM     10  O   UNL     1       1.895   2.267  18.441  0.00  0.00    +0.000 OA
ATOM     11  O   UNL     1       4.117   1.111  18.014  0.00  0.00    +0.000 OA
BRANCH   9  12
ATOM     12  C   UNL     1       3.639   3.384  16.754  0.00  0.00    +0.000 C 
BRANCH  12  13
ATOM     13  C   UNL     1       5.130   3.474  16.459  0.00  0.00    +0.000 C 
BRANCH  13  14
ATOM     14  C   UNL     1       5.417   4.274  15.188  0.00  0.00    +0.000 C 
BRANCH  14  15
ATOM     15  C   UNL     1       6.451   5.363  15.464  0.00  0.00    +0.000 C 
BRANCH  15  16
ATOM     16  C   UNL     1       5.853   6.480  16.312  0.00  0.00    +0.000 C 
BRANCH  16  17
ATOM     17  C   UNL     1       6.800   6.876  17.439  0.00  0.00    +0.000 C 
BRANCH  17  19
ATOM     18  C   UNL     1       7.676   5.753  19.504  0.00  0.00    +0.000 C 
ATOM     19  C   UNL     1       7.519   5.651  17.998  0.00  0.00    +0.000 C 
ENDBRANCH  17  19
ENDBRANCH  16  17
ENDBRANCH  15  16
ENDBRANCH  14  15
ENDBRANCH  13  14
ENDBRANCH  12  13
ENDBRANCH   9  12
ENDBRANCH   7   9
ENDBRANCH   1   7
BRANCH   4  20
ATOM     20  C   UNL     1       1.175   8.187  20.431  0.00  0.00    +0.000 C 
ATOM     21  C   UNL     1       1.125   8.784  21.634  0.00  0.00    +0.000 C 
BRANCH  21  22
ATOM     22  C   UNL     1       0.354  10.009  21.901  0.00  0.00    +0.000 A 
ATOM     23  C   UNL     1      -0.644  10.058  22.883  0.00  0.00    +0.000 A 
ATOM     24  C   UNL     1      -1.330  11.248  23.145  0.00  0.00    +0.000 A 
ATOM     25  C   UNL     1      -0.999  12.418  22.464  0.00  0.00    +0.000 A 
ATOM     26  C   UNL     1      -0.017  12.379  21.474  0.00  0.00    +0.000 A 
ATOM     27  C   UNL     1       0.660  11.182  21.200  0.00  0.00    +0.000 A 
BRANCH  25  28
ATOM     28  O   UNL     1      -1.716  13.529  22.816  0.00  0.00    +0.000 OA
ATOM     29  C   UNL     1      -2.659  13.334  23.865  0.00  0.00    +0.000 C 
ENDBRANCH  25  28
ENDBRANCH  21  22
ENDBRANCH   4  20
BRANCH   6  30
ATOM     30  C   UNL     1       1.699   3.455  21.475  0.00  0.00    +0.000 C 
ATOM     31  O   UNL     1       2.389   2.993  22.372  0.00  0.00    +0.000 OA
BRANCH  30  32
ATOM     32  O   UNL     1       0.586   2.828  21.019  0.00  0.00    +0.000 OA
ATOM     33  H   UNL     1      -0.191   3.033  21.577  0.00  0.00    +0.000 HD
ENDBRANCH  30  32
ENDBRANCH   6  30
TORSDOF 14
ENDMDL
MODEL 9
REMARK VINA RESULT:      -7.2      2.332      3.139
REMARK  Name = 
REMARK  16 active torsions:
REMARK  status: ('A' for Active; 'I' for Inactive)
REMARK    1  A    between atoms: C_1  and  C_2
REMARK    2  A    between atoms: C_2  and  C_3
REMARK    3  A    between atoms: C_3  and  C_4
REMARK    4  A    between atoms: C_4  and  C_5
REMARK    5  A    between atoms: C_5  and  C_6
REMARK    6  A    between atoms: C_6  and  C_7
REMARK    7  A    between atoms: C_7  and  C_8
REMARK    8  A    between atoms: C_8  and  S_9
REMARK    9  A    between atoms: S_9  and  N_12
REMARK   10  A    between atoms: N_12  and  C_13
REMARK   11  A    between atoms: C_16  and  C_17
REMARK   12  A    between atoms: C_18  and  C_19
REMARK   13  A    between atoms: C_22  and  O_23
REMARK   14  A    between atoms: O_23  and  C_24
REMARK   15  A    between atoms: C_28  and  C_29
REMARK   16  A    between atoms: C_29  and  O_31
REMARK                            x       y       z     vdW  Elec       q    Type
REMARK                         _______ _______ _______ _____ _____    ______ ____
ROOT
ATOM      1  C   UNL     1       6.775   5.103  18.025  0.00  0.00    +0.000 A 
ATOM      2  C   UNL     1       7.408   5.616  19.163  0.00  0.00    +0.000 A 
ATOM      3  C   UNL     1       7.922   6.922  19.177  0.00  0.00    +0.000 A 
ATOM      4  C   UNL     1       7.912   7.709  18.022  0.00  0.00    +0.000 A 
ATOM      5  C   UNL     1       7.291   7.192  16.881  0.00  0.00    +0.000 A 
ATOM      6  C   UNL     1       6.685   5.922  16.879  0.00  0.00    +0.000 A 
ENDROOT
BRANCH   1   7
ATOM      7  N   UNL     1       6.264   3.741  18.091  0.00  0.00    +0.000 N 
ATOM      8  H   UNL     1       6.072   3.371  17.151  0.00  0.00    +0.000 HD
BRANCH   7   9
ATOM      9  S   UNL     1       4.726   3.590  18.917  0.00  0.00    +0.000 S 
ATOM     10  O   UNL     1       5.006   2.897  20.159  0.00  0.00    +0.000 OA
ATOM     11  O   UNL     1       3.756   3.127  17.959  0.00  0.00    +0.000 OA
BRANCH   9  12
ATOM     12  C   UNL     1       4.428   5.338  19.240  0.00  0.00    +0.000 C 
BRANCH  12  13
ATOM     13  C   UNL     1       2.958   5.600  19.541  0.00  0.00    +0.000 C 
BRANCH  13  14
ATOM     14  C   UNL     1       2.302   6.481  18.478  0.00  0.00    +0.000 C 
BRANCH  14  15
ATOM     15  C   UNL     1       3.329   7.426  17.858  0.00  0.00    +0.000 C 
BRANCH  15  16
ATOM     16  C   UNL     1       2.804   8.857  17.828  0.00  0.00    +0.000 C 
BRANCH  16  17
ATOM     17  C   UNL     1       1.282   8.876  17.731  0.00  0.00    +0.000 C 
BRANCH  17  19
ATOM     18  C   UNL     1      -0.737  10.258  18.284  0.00  0.00    +0.000 C 
ATOM     19  C   UNL     1       0.692   9.922  18.672  0.00  0.00    +0.000 C 
ENDBRANCH  17  19
ENDBRANCH  16  17
ENDBRANCH  15  16
ENDBRANCH  14  15
ENDBRANCH  13  14
ENDBRANCH  12  13
ENDBRANCH   9  12
ENDBRANCH   7   9
ENDBRANCH   1   7
BRANCH   4  20
ATOM     20  C   UNL     1       8.427   9.088  17.986  0.00  0.00    +0.000 C 
ATOM     21  C   UNL     1       9.163   9.666  18.951  0.00  0.00    +0.000 C 
BRANCH  21  22
ATOM     22  C   UNL     1       9.624  11.063  18.894  0.00  0.00    +0.000 A 
ATOM     23  C   UNL     1      10.534  11.581  19.824  0.00  0.00    +0.000 A 
ATOM     24  C   UNL     1      10.988  12.900  19.720  0.00  0.00    +0.000 A 
ATOM     25  C   UNL     1      10.577  13.706  18.660  0.00  0.00    +0.000 A 
ATOM     26  C   UNL     1       9.661  13.205  17.735  0.00  0.00    +0.000 A 
ATOM     27  C   UNL     1       9.193  11.888  17.849  0.00  0.00    +0.000 A 
BRANCH  25  28
ATOM     28  O   UNL     1      11.101  14.969  18.642  0.00  0.00    +0.000 OA
ATOM     29  C   UNL     1      11.246  15.546  17.347  0.00  0.00    +0.000 C 
ENDBRANCH  25  28
ENDBRANCH  21  22
ENDBRANCH   4  20
BRANCH   6  30
ATOM     30  C   UNL     1       5.843   5.666  15.669  0.00  0.00    +0.000 C 
ATOM     31  O   UNL     1       4.720   5.186  15.723  0.00  0.00    +0.000 OA
BRANCH  30  32
ATOM     32  O   UNL     1       6.557   5.715  14.516  0.00  0.00    +0.000 OA
ATOM     33  H   UNL     1       6.183   5.113  13.842  0.00  0.00    +0.000 HD
ENDBRANCH  30  32
ENDBRANCH   6  30
TORSDOF 14
ENDMDL
