MODEL 1
REMARK VINA RESULT:      -8.3      0.000      0.000
REMARK  Name = 
REMARK  10 active torsions:
REMARK  status: ('A' for Active; 'I' for Inactive)
REMARK    1  A    between atoms: C_1  and  C_2
REMARK    2  A    between atoms: C_2  and  O_3
REMARK    3  A    between atoms: C_2  and  C_16
REMARK    4  A    between atoms: O_3  and  C_4
REMARK    5  A    between atoms: C_12  and  C_13
REMARK    6  A    between atoms: C_12  and  C_14
REMARK    7  A    between atoms: C_18  and  C_19
REMARK    8  A    between atoms: C_22  and  C_23
REMARK    9  A    between atoms: C_23  and  S_24
REMARK   10  A    between atoms: S_24  and  C_25
REMARK                            x       y       z     vdW  Elec       q    Type
REMARK                         _______ _______ _______ _____ _____    ______ ____
ROOT
ATOM      1  C   UNL     1       7.152   7.178  17.199  0.00  0.00    +0.000 A 
ATOM      2  N   UNL     1       7.322   8.480  17.226  0.00  0.00    +0.000 NA
ATOM      3  C   UNL     1       8.227   8.638  18.252  0.00  0.00    +0.000 A 
ATOM      4  N   UNL     1       8.567   7.489  18.863  0.00  0.00    +0.000 NA
ATOM      5  O   UNL     1       7.839   6.525  18.181  0.00  0.00    +0.000 OA
ENDROOT
BRANCH   3   6
ATOM      6  C   UNL     1       8.799   9.928  18.593  0.00  0.00    +0.000 A 
ATOM      7  C   UNL     1       8.828  10.964  17.655  0.00  0.00    +0.000 A 
ATOM      8  C   UNL     1       9.355  12.212  18.000  0.00  0.00    +0.000 A 
ATOM      9  C   UNL     1       9.879  12.436  19.281  0.00  0.00    +0.000 A 
ATOM     10  C   UNL     1       9.885  11.385  20.206  0.00  0.00    +0.000 A 
ATOM     11  C   UNL     1       9.339  10.147  19.868  0.00  0.00    +0.000 A 
BRANCH   9  12
ATOM     12  C   UNL     1      10.414  13.789  19.659  0.00  0.00    +0.000 C 
BRANCH  12  13
ATOM     13  S   UNL     1       9.305  14.624  20.792  0.00  0.00    +0.000 S 
ATOM     14  C   UNL     1       9.541  16.362  20.487  0.00  0.00    +0.000 C 
ATOM     15  O   UNL     1       7.953  14.311  20.362  0.00  0.00    +0.000 OA
ATOM     16  O   UNL     1       9.709  14.348  22.159  0.00  0.00    +0.000 OA
ENDBRANCH  12  13
ENDBRANCH   9  12
ENDBRANCH   3   6
BRANCH   1  18
ATOM     17  C   UNL     1       7.368   5.241  15.646  0.00  0.00    +0.000 C 
ATOM     18  C   UNL     1       6.457   6.347  16.177  0.00  0.00    +0.000 C 
BRANCH  18  19
ATOM     19  O   UNL     1       5.292   5.721  16.723  0.00  0.00    +0.000 OA
BRANCH  19  20
ATOM     20  C   UNL     1       5.432   4.397  17.261  0.00  0.00    +0.000 C 
ATOM     21  C   UNL     1       5.770   4.348  18.754  0.00  0.00    +0.000 C 
ATOM     22  C   UNL     1       4.717   5.072  19.591  0.00  0.00    +0.000 C 
ATOM     23  C   UNL     1       3.274   4.549  19.386  0.00  0.00    +0.000 C 
ATOM     24  C   UNL     1       2.973   4.437  17.867  0.00  0.00    +0.000 C 
ATOM     25  C   UNL     1       4.074   3.718  17.071  0.00  0.00    +0.000 C 
ATOM     26  C   UNL     1       2.303   5.509  20.116  0.00  0.00    +0.000 C 
ATOM     27  O   UNL     1       1.580   4.751  21.105  0.00  0.00    +0.000 OA
ATOM     28  C   UNL     1       1.581   3.384  20.673  0.00  0.00    +0.000 C 
ATOM     29  C   UNL     1       1.327   2.453  21.857  0.00  0.00    +0.000 C 
ATOM     30  C   UNL     1       0.428   3.210  19.674  0.00  0.00    +0.000 C 
ATOM     31  C   UNL     1       2.994   3.216  20.095  0.00  0.00    +0.000 C 
ENDBRANCH  19  20
ENDBRANCH  18  19
ENDBRANCH   1  18
TORSDOF 6
ENDMDL
MODEL 2
REMARK VINA RESULT:      -7.9      5.649      8.147
REMARK  Name = 
REMARK  10 active torsions:
REMARK  status: ('A' for Active; 'I' for Inactive)
REMARK    1  A    between atoms: C_1  and  C_2
REMARK    2  A    between atoms: C_2  and  O_3
REMARK    3  A    between atoms: C_2  and  C_16
REMARK    4  A    between atoms: O_3  and  C_4
REMARK    5  A    between atoms: C_12  and  C_13
REMARK    6  A    between atoms: C_12  and  C_14
REMARK    7  A    between atoms: C_18  and  C_19
REMARK    8  A    between atoms: C_22  and  C_23
REMARK    9  A    between atoms: C_23  and  S_24
REMARK   10  A    between atoms: S_24  and  C_25
REMARK                            x       y       z     vdW  Elec       q    Type
REMARK                         _______ _______ _______ _____ _____    ______ ____
ROOT
ATOM      1  C   UNL     1       1.725   6.840  20.834  0.00  0.00    +0.000 A 
ATOM      2  N   UNL     1       1.010   7.620  21.611  0.00  0.00    +0.000 NA
ATOM      3  C   UNL     1       0.855   8.747  20.836  0.00  0.00    +0.000 A 
ATOM      4  N   UNL     1       1.484   8.685  19.649  0.00  0.00    +0.000 NA
ATOM      5  O   UNL     1       2.079   7.432  19.656  0.00  0.00    +0.000 OA
ENDROOT
BRANCH   3   6
ATOM      6  C   UNL     1       0.033   9.870  21.251  0.00  0.00    +0.000 A 
ATOM      7  C   UNL     1      -0.454  10.783  20.311  0.00  0.00    +0.000 A 
ATOM      8  C   UNL     1      -1.267  11.844  20.715  0.00  0.00    +0.000 A 
ATOM      9  C   UNL     1      -1.591  12.020  22.068  0.00  0.00    +0.000 A 
ATOM     10  C   UNL     1      -1.070  11.128  23.013  0.00  0.00    +0.000 A 
ATOM     11  C   UNL     1      -0.275  10.057  22.606  0.00  0.00    +0.000 A 
BRANCH   9  12
ATOM     12  C   UNL     1      -2.494  13.144  22.496  0.00  0.00    +0.000 C 
BRANCH  12  13
ATOM     13  S   UNL     1      -1.548  14.617  22.877  0.00  0.00    +0.000 S 
ATOM     14  C   UNL     1      -2.749  15.926  23.006  0.00  0.00    +0.000 C 
ATOM     15  O   UNL     1      -1.000  14.430  24.210  0.00  0.00    +0.000 OA
ATOM     16  O   UNL     1      -0.662  14.926  21.769  0.00  0.00    +0.000 OA
ENDBRANCH  12  13
ENDBRANCH   9  12
ENDBRANCH   3   6
BRANCH   1  18
ATOM     17  C   UNL     1       0.941   4.506  20.444  0.00  0.00    +0.000 C 
ATOM     18  C   UNL     1       2.051   5.396  21.003  0.00  0.00    +0.000 C 
BRANCH  18  19
ATOM     19  O   UNL     1       3.261   5.055  20.319  0.00  0.00    +0.000 OA
BRANCH  19  20
ATOM     20  C   UNL     1       3.261   3.875  19.502  0.00  0.00    +0.000 C 
ATOM     21  C   UNL     1       2.522   4.023  18.168  0.00  0.00    +0.000 C 
ATOM     22  C   UNL     1       3.103   5.158  17.329  0.00  0.00    +0.000 C 
ATOM     23  C   UNL     1       4.621   5.029  17.050  0.00  0.00    +0.000 C 
ATOM     24  C   UNL     1       5.367   4.714  18.374  0.00  0.00    +0.000 C 
ATOM     25  C   UNL     1       4.729   3.578  19.188  0.00  0.00    +0.000 C 
ATOM     26  C   UNL     1       5.106   6.343  16.392  0.00  0.00    +0.000 C 
ATOM     27  O   UNL     1       5.656   6.023  15.099  0.00  0.00    +0.000 OA
ATOM     28  C   UNL     1       6.077   4.653  15.148  0.00  0.00    +0.000 C 
ATOM     29  C   UNL     1       6.171   4.076  13.736  0.00  0.00    +0.000 C 
ATOM     30  C   UNL     1       7.479   4.617  15.771  0.00  0.00    +0.000 C 
ATOM     31  C   UNL     1       4.964   3.989  15.973  0.00  0.00    +0.000 C 
ENDBRANCH  19  20
ENDBRANCH  18  19
ENDBRANCH   1  18
TORSDOF 6
ENDMDL
MODEL 3
REMARK VINA RESULT:      -7.9      5.829      8.701
REMARK  Name = 
REMARK  10 active torsions:
REMARK  status: ('A' for Active; 'I' for Inactive)
REMARK    1  A    between atoms: C_1  and  C_2
REMARK    2  A    between atoms: C_2  and  O_3
REMARK    3  A    between atoms: C_2  and  C_16
REMARK    4  A    between atoms: O_3  and  C_4
REMARK    5  A    between atoms: C_12  and  C_13
REMARK    6  A    between atoms: C_12  and  C_14
REMARK    7  A    between atoms: C_18  and  C_19
REMARK    8  A    between atoms: C_22  and  C_23
REMARK    9  A    between atoms: C_23  and  S_24
REMARK   10  A    between atoms: S_24  and  C_25
REMARK                            x       y       z     vdW  Elec       q    Type
REMARK                         _______ _______ _______ _____ _____    ______ ____
ROOT
ATOM      1  C   UNL     1       1.656   6.979  20.808  0.00  0.00    +0.000 A 
ATOM      2  N   UNL     1       0.980   7.786  21.593  0.00  0.00    +0.000 NA
ATOM      3  C   UNL     1       0.821   8.901  20.801  0.00  0.00    +0.000 A 
ATOM      4  N   UNL     1       1.411   8.805  19.597  0.00  0.00    +0.000 NA
ATOM      5  O   UNL     1       1.984   7.542  19.609  0.00  0.00    +0.000 OA
ENDROOT
BRANCH   3   6
ATOM      6  C   UNL     1       0.032  10.046  21.221  0.00  0.00    +0.000 A 
ATOM      7  C   UNL     1      -0.319  10.216  22.563  0.00  0.00    +0.000 A 
ATOM      8  C   UNL     1      -1.054  11.335  22.962  0.00  0.00    +0.000 A 
ATOM      9  C   UNL     1      -1.467  12.290  22.023  0.00  0.00    +0.000 A 
ATOM     10  C   UNL     1      -1.148  12.098  20.673  0.00  0.00    +0.000 A 
ATOM     11  C   UNL     1      -0.396  10.992  20.279  0.00  0.00    +0.000 A 
BRANCH   9  12
ATOM     12  C   UNL     1      -2.229  13.510  22.461  0.00  0.00    +0.000 C 
BRANCH  12  13
ATOM     13  S   UNL     1      -3.929  13.099  22.850  0.00  0.00    +0.000 S 
ATOM     14  C   UNL     1      -4.645  12.556  21.312  0.00  0.00    +0.000 C 
ATOM     15  O   UNL     1      -3.891  11.935  23.720  0.00  0.00    +0.000 OA
ATOM     16  O   UNL     1      -4.632  14.295  23.276  0.00  0.00    +0.000 OA
ENDBRANCH  12  13
ENDBRANCH   9  12
ENDBRANCH   3   6
BRANCH   1  18
ATOM     17  C   UNL     1       0.850   4.651  20.427  0.00  0.00    +0.000 C 
ATOM     18  C   UNL     1       1.962   5.532  20.995  0.00  0.00    +0.000 C 
BRANCH  18  19
ATOM     19  O   UNL     1       3.178   5.171  20.333  0.00  0.00    +0.000 OA
BRANCH  19  20
ATOM     20  C   UNL     1       3.176   3.982  19.527  0.00  0.00    +0.000 C 
ATOM     21  C   UNL     1       2.458   4.125  18.182  0.00  0.00    +0.000 C 
ATOM     22  C   UNL     1       3.065   5.245  17.340  0.00  0.00    +0.000 C 
ATOM     23  C   UNL     1       4.584   5.096  17.084  0.00  0.00    +0.000 C 
ATOM     24  C   UNL     1       5.308   4.787  18.422  0.00  0.00    +0.000 C 
ATOM     25  C   UNL     1       4.645   3.666  19.238  0.00  0.00    +0.000 C 
ATOM     26  C   UNL     1       5.094   6.398  16.419  0.00  0.00    +0.000 C 
ATOM     27  O   UNL     1       5.659   6.058  15.138  0.00  0.00    +0.000 OA
ATOM     28  C   UNL     1       6.063   4.684  15.207  0.00  0.00    +0.000 C 
ATOM     29  C   UNL     1       6.171   4.092  13.803  0.00  0.00    +0.000 C 
ATOM     30  C   UNL     1       7.456   4.639  15.850  0.00  0.00    +0.000 C 
ATOM     31  C   UNL     1       4.932   4.041  16.022  0.00  0.00    +0.000 C 
ENDBRANCH  19  20
ENDBRANCH  18  19
ENDBRANCH   1  18
TORSDOF 6
ENDMDL
MODEL 4
REMARK VINA RESULT:      -7.9      5.769      8.506
REMARK  Name = 
REMARK  10 active torsions:
REMARK  status: ('A' for Active; 'I' for Inactive)
REMARK    1  A    between atoms: C_1  and  C_2
REMARK    2  A    between atoms: C_2  and  O_3
REMARK    3  A    between atoms: C_2  and  C_16
REMARK    4  A    between atoms: O_3  and  C_4
REMARK    5  A    between atoms: C_12  and  C_13
REMARK    6  A    between atoms: C_12  and  C_14
REMARK    7  A    between atoms: C_18  and  C_19
REMARK    8  A    between atoms: C_22  and  C_23
REMARK    9  A    between atoms: C_23  and  S_24
REMARK   10  A    between atoms: S_24  and  C_25
REMARK                            x       y       z     vdW  Elec       q    Type
REMARK                         _______ _______ _______ _____ _____    ______ ____
ROOT
ATOM      1  C   UNL     1       1.743   6.956  20.834  0.00  0.00    +0.000 A 
ATOM      2  N   UNL     1       1.183   7.759  21.708  0.00  0.00    +0.000 NA
ATOM      3  C   UNL     1       0.955   8.893  20.961  0.00  0.00    +0.000 A 
ATOM      4  N   UNL     1       1.394   8.811  19.693  0.00  0.00    +0.000 NA
ATOM      5  O   UNL     1       1.937   7.537  19.614  0.00  0.00    +0.000 OA
ENDROOT
BRANCH   3   6
ATOM      6  C   UNL     1       0.246  10.044  21.492  0.00  0.00    +0.000 A 
ATOM      7  C   UNL     1       0.362  11.296  20.881  0.00  0.00    +0.000 A 
ATOM      8  C   UNL     1      -0.344  12.393  21.382  0.00  0.00    +0.000 A 
ATOM      9  C   UNL     1      -1.162  12.259  22.513  0.00  0.00    +0.000 A 
ATOM     10  C   UNL     1      -1.246  11.014  23.147  0.00  0.00    +0.000 A 
ATOM     11  C   UNL     1      -0.557   9.915  22.634  0.00  0.00    +0.000 A 
BRANCH   9  12
ATOM     12  C   UNL     1      -1.947  13.432  23.029  0.00  0.00    +0.000 C 
BRANCH  12  13
ATOM     13  S   UNL     1      -3.566  13.507  22.264  0.00  0.00    +0.000 S 
ATOM     14  C   UNL     1      -4.412  14.843  23.083  0.00  0.00    +0.000 C 
ATOM     15  O   UNL     1      -3.362  13.932  20.890  0.00  0.00    +0.000 OA
ATOM     16  O   UNL     1      -4.290  12.280  22.539  0.00  0.00    +0.000 OA
ENDBRANCH  12  13
ENDBRANCH   9  12
ENDBRANCH   3   6
BRANCH   1  18
ATOM     17  C   UNL     1       0.915   4.653  20.358  0.00  0.00    +0.000 C 
ATOM     18  C   UNL     1       2.038   5.500  20.956  0.00  0.00    +0.000 C 
BRANCH  18  19
ATOM     19  O   UNL     1       3.247   5.157  20.272  0.00  0.00    +0.000 OA
BRANCH  19  20
ATOM     20  C   UNL     1       3.253   3.961  19.478  0.00  0.00    +0.000 C 
ATOM     21  C   UNL     1       2.522   4.081  18.138  0.00  0.00    +0.000 C 
ATOM     22  C   UNL     1       3.107   5.200  17.280  0.00  0.00    +0.000 C 
ATOM     23  C   UNL     1       4.626   5.068  17.012  0.00  0.00    +0.000 C 
ATOM     24  C   UNL     1       5.365   4.781  18.347  0.00  0.00    +0.000 C 
ATOM     25  C   UNL     1       4.723   3.660  19.179  0.00  0.00    +0.000 C 
ATOM     26  C   UNL     1       5.114   6.369  16.330  0.00  0.00    +0.000 C 
ATOM     27  O   UNL     1       5.672   6.024  15.048  0.00  0.00    +0.000 OA
ATOM     28  C   UNL     1       6.094   4.656  15.126  0.00  0.00    +0.000 C 
ATOM     29  C   UNL     1       6.197   4.051  13.727  0.00  0.00    +0.000 C 
ATOM     30  C   UNL     1       7.493   4.634  15.758  0.00  0.00    +0.000 C 
ATOM     31  C   UNL     1       4.978   4.007  15.958  0.00  0.00    +0.000 C 
ENDBRANCH  19  20
ENDBRANCH  18  19
ENDBRANCH   1  18
TORSDOF 6
ENDMDL
MODEL 5
REMARK VINA RESULT:      -7.9      1.711      2.312
REMARK  Name = 
REMARK  10 active torsions:
REMARK  status: ('A' for Active; 'I' for Inactive)
REMARK    1  A    between atoms: C_1  and  C_2
REMARK    2  A    between atoms: C_2  and  O_3
REMARK    3  A    between atoms: C_2  and  C_16
REMARK    4  A    between atoms: O_3  and  C_4
REMARK    5  A    between atoms: C_12  and  C_13
REMARK    6  A    between atoms: C_12  and  C_14
REMARK    7  A    between atoms: C_18  and  C_19
REMARK    8  A    between atoms: C_22  and  C_23
REMARK    9  A    between atoms: C_23  and  S_24
REMARK   10  A    between atoms: S_24  and  C_25
REMARK                            x       y       z     vdW  Elec       q    Type
REMARK                         _______ _______ _______ _____ _____    ______ ____
ROOT
ATOM      1  C   UNL     1       7.681   8.399  17.765  0.00  0.00    +0.000 A 
ATOM      2  N   UNL     1       7.797   9.679  17.497  0.00  0.00    +0.000 NA
ATOM      3  C   UNL     1       8.813  10.066  18.343  0.00  0.00    +0.000 A 
ATOM      4  N   UNL     1       9.274   9.079  19.131  0.00  0.00    +0.000 NA
ATOM      5  O   UNL     1       8.510   7.980  18.765  0.00  0.00    +0.000 OA
ENDROOT
BRANCH   3   6
ATOM      6  C   UNL     1       9.366  11.408  18.330  0.00  0.00    +0.000 A 
ATOM      7  C   UNL     1      10.601  11.675  18.929  0.00  0.00    +0.000 A 
ATOM      8  C   UNL     1      11.140  12.963  18.888  0.00  0.00    +0.000 A 
ATOM      9  C   UNL     1      10.443  14.009  18.266  0.00  0.00    +0.000 A 
ATOM     10  C   UNL     1       9.188  13.749  17.702  0.00  0.00    +0.000 A 
ATOM     11  C   UNL     1       8.661  12.458  17.725  0.00  0.00    +0.000 A 
BRANCH   9  12
ATOM     12  C   UNL     1      11.041  15.387  18.194  0.00  0.00    +0.000 C 
BRANCH  12  13
ATOM     13  S   UNL     1      10.004  16.581  19.037  0.00  0.00    +0.000 S 
ATOM     14  C   UNL     1      11.072  17.959  19.399  0.00  0.00    +0.000 C 
ATOM     15  O   UNL     1       9.035  17.056  18.063  0.00  0.00    +0.000 OA
ATOM     16  O   UNL     1       9.546  16.022  20.296  0.00  0.00    +0.000 OA
ENDBRANCH  12  13
ENDBRANCH   9  12
ENDBRANCH   3   6
BRANCH   1  18
ATOM     17  C   UNL     1       7.698   6.060  16.903  0.00  0.00    +0.000 C 
ATOM     18  C   UNL     1       6.902   7.358  17.037  0.00  0.00    +0.000 C 
BRANCH  18  19
ATOM     19  O   UNL     1       5.685   7.048  17.722  0.00  0.00    +0.000 OA
BRANCH  19  20
ATOM     20  C   UNL     1       4.531   6.730  16.930  0.00  0.00    +0.000 C 
ATOM     21  C   UNL     1       4.522   5.310  16.357  0.00  0.00    +0.000 C 
ATOM     22  C   UNL     1       4.620   4.261  17.462  0.00  0.00    +0.000 C 
ATOM     23  C   UNL     1       3.517   4.372  18.543  0.00  0.00    +0.000 C 
ATOM     24  C   UNL     1       3.402   5.846  19.017  0.00  0.00    +0.000 C 
ATOM     25  C   UNL     1       3.327   6.861  17.865  0.00  0.00    +0.000 C 
ATOM     26  C   UNL     1       3.869   3.402  19.697  0.00  0.00    +0.000 C 
ATOM     27  O   UNL     1       2.790   2.458  19.837  0.00  0.00    +0.000 OA
ATOM     28  C   UNL     1       1.612   3.084  19.313  0.00  0.00    +0.000 C 
ATOM     29  C   UNL     1       0.576   2.029  18.930  0.00  0.00    +0.000 C 
ATOM     30  C   UNL     1       1.013   3.958  20.424  0.00  0.00    +0.000 C 
ATOM     31  C   UNL     1       2.150   3.840  18.088  0.00  0.00    +0.000 C 
ENDBRANCH  19  20
ENDBRANCH  18  19
ENDBRANCH   1  18
TORSDOF 6
ENDMDL
MODEL 6
REMARK VINA RESULT:      -7.9      1.262      2.024
REMARK  Name = 
REMARK  10 active torsions:
REMARK  status: ('A' for Active; 'I' for Inactive)
REMARK    1  A    between atoms: C_1  and  C_2
REMARK    2  A    between atoms: C_2  and  O_3
REMARK    3  A    between atoms: C_2  and  C_16
REMARK    4  A    between atoms: O_3  and  C_4
REMARK    5  A    between atoms: C_12  and  C_13
REMARK    6  A    between atoms: C_12  and  C_14
REMARK    7  A    between atoms: C_18  and  C_19
REMARK    8  A    between atoms: C_22  and  C_23
REMARK    9  A    between atoms: C_23  and  S_24
REMARK   10  A    between atoms: S_24  and  C_25
REMARK                            x       y       z     vdW  Elec       q    Type
REMARK                         _______ _______ _______ _____ _____    ______ ____
ROOT
ATOM      1  C   UNL     1       7.013   6.932  17.138  0.00  0.00    +0.000 A 
ATOM      2  N   UNL     1       7.120   8.240  17.131  0.00  0.00    +0.000 NA
ATOM      3  C   UNL     1       8.062   8.464  18.110  0.00  0.00    +0.000 A 
ATOM      4  N   UNL     1       8.486   7.346  18.726  0.00  0.00    +0.000 NA
ATOM      5  O   UNL     1       7.775   6.333  18.100  0.00  0.00    +0.000 OA
ENDROOT
BRANCH   3   6
ATOM      6  C   UNL     1       8.585   9.787  18.398  0.00  0.00    +0.000 A 
ATOM      7  C   UNL     1       9.335  10.021  19.555  0.00  0.00    +0.000 A 
ATOM      8  C   UNL     1       9.859  11.290  19.810  0.00  0.00    +0.000 A 
ATOM      9  C   UNL     1       9.624  12.351  18.923  0.00  0.00    +0.000 A 
ATOM     10  C   UNL     1       8.840  12.125  17.786  0.00  0.00    +0.000 A 
ATOM     11  C   UNL     1       8.336  10.852  17.521  0.00  0.00    +0.000 A 
BRANCH   9  12
ATOM     12  C   UNL     1      10.217  13.707  19.184  0.00  0.00    +0.000 C 
BRANCH  12  13
ATOM     13  S   UNL     1       8.972  14.848  19.784  0.00  0.00    +0.000 S 
ATOM     14  C   UNL     1       8.344  14.113  21.279  0.00  0.00    +0.000 C 
ATOM     15  O   UNL     1       9.669  16.059  20.182  0.00  0.00    +0.000 OA
ATOM     16  O   UNL     1       7.883  14.924  18.827  0.00  0.00    +0.000 OA
ENDBRANCH  12  13
ENDBRANCH   9  12
ENDBRANCH   3   6
BRANCH   1  18
ATOM     17  C   UNL     1       7.073   4.736  15.958  0.00  0.00    +0.000 C 
ATOM     18  C   UNL     1       6.312   6.045  16.166  0.00  0.00    +0.000 C 
BRANCH  18  19
ATOM     19  O   UNL     1       4.998   5.712  16.624  0.00  0.00    +0.000 OA
BRANCH  19  20
ATOM     20  C   UNL     1       4.546   6.298  17.853  0.00  0.00    +0.000 C 
ATOM     21  C   UNL     1       3.024   6.369  18.005  0.00  0.00    +0.000 C 
ATOM     22  C   UNL     1       2.386   4.986  17.899  0.00  0.00    +0.000 C 
ATOM     23  C   UNL     1       2.943   3.950  18.906  0.00  0.00    +0.000 C 
ATOM     24  C   UNL     1       4.495   3.984  18.882  0.00  0.00    +0.000 C 
ATOM     25  C   UNL     1       5.082   5.402  18.972  0.00  0.00    +0.000 C 
ATOM     26  C   UNL     1       2.373   2.559  18.537  0.00  0.00    +0.000 C 
ATOM     27  O   UNL     1       1.628   2.063  19.666  0.00  0.00    +0.000 OA
ATOM     28  C   UNL     1       2.154   2.708  20.833  0.00  0.00    +0.000 C 
ATOM     29  C   UNL     1       1.131   2.670  21.967  0.00  0.00    +0.000 C 
ATOM     30  C   UNL     1       3.392   1.920  21.284  0.00  0.00    +0.000 C 
ATOM     31  C   UNL     1       2.418   4.137  20.338  0.00  0.00    +0.000 C 
ENDBRANCH  19  20
ENDBRANCH  18  19
ENDBRANCH   1  18
TORSDOF 6
ENDMDL
MODEL 7
REMARK VINA RESULT:      -7.8      1.949      2.510
REMARK  Name = 
REMARK  10 active torsions:
REMARK  status: ('A' for Active; 'I' for Inactive)
REMARK    1  A    between atoms: C_1  and  C_2
REMARK    2  A    between atoms: C_2  and  O_3
REMARK    3  A    between atoms: C_2  and  C_16
REMARK    4  A    between atoms: O_3  and  C_4
REMARK    5  A    between atoms: C_12  and  C_13
REMARK    6  A    between atoms: C_12  and  C_14
REMARK    7  A    between atoms: C_18  and  C_19
REMARK    8  A    between atoms: C_22  and  C_23
REMARK    9  A    between atoms: C_23  and  S_24
REMARK   10  A    between atoms: S_24  and  C_25
REMARK                            x       y       z     vdW  Elec       q    Type
REMARK                         _______ _______ _______ _____ _____    ______ ____
ROOT
ATOM      1  C   UNL     1       7.758   8.380  17.861  0.00  0.00    +0.000 A 
ATOM      2  N   UNL     1       7.876   9.597  17.380  0.00  0.00    +0.000 NA
ATOM      3  C   UNL     1       8.859  10.135  18.179  0.00  0.00    +0.000 A 
ATOM      4  N   UNL     1       9.299   9.303  19.140  0.00  0.00    +0.000 NA
ATOM      5  O   UNL     1       8.555   8.150  18.944  0.00  0.00    +0.000 OA
ENDROOT
BRANCH   3   6
ATOM      6  C   UNL     1       9.405  11.462  17.953  0.00  0.00    +0.000 A 
ATOM      7  C   UNL     1       8.570  12.583  17.944  0.00  0.00    +0.000 A 
ATOM      8  C   UNL     1       9.107  13.859  17.754  0.00  0.00    +0.000 A 
ATOM      9  C   UNL     1      10.483  14.031  17.551  0.00  0.00    +0.000 A 
ATOM     10  C   UNL     1      11.312  12.903  17.521  0.00  0.00    +0.000 A 
ATOM     11  C   UNL     1      10.779  11.633  17.731  0.00  0.00    +0.000 A 
BRANCH   9  12
ATOM     12  C   UNL     1      11.062  15.408  17.380  0.00  0.00    +0.000 C 
BRANCH  12  13
ATOM     13  S   UNL     1      10.242  16.586  18.453  0.00  0.00    +0.000 S 
ATOM     14  C   UNL     1      10.538  16.000  20.108  0.00  0.00    +0.000 C 
ATOM     15  O   UNL     1      10.963  17.842  18.326  0.00  0.00    +0.000 OA
ATOM     16  O   UNL     1       8.811  16.549  18.211  0.00  0.00    +0.000 OA
ENDBRANCH  12  13
ENDBRANCH   9  12
ENDBRANCH   3   6
BRANCH   1  18
ATOM     17  C   UNL     1       7.763   5.910  17.526  0.00  0.00    +0.000 C 
ATOM     18  C   UNL     1       7.011   7.221  17.298  0.00  0.00    +0.000 C 
BRANCH  18  19
ATOM     19  O   UNL     1       5.722   7.090  17.907  0.00  0.00    +0.000 OA
BRANCH  19  20
ATOM     20  C   UNL     1       4.602   6.809  17.054  0.00  0.00    +0.000 C 
ATOM     21  C   UNL     1       4.602   5.405  16.443  0.00  0.00    +0.000 C 
ATOM     22  C   UNL     1       4.636   4.325  17.523  0.00  0.00    +0.000 C 
ATOM     23  C   UNL     1       3.486   4.423  18.555  0.00  0.00    +0.000 C 
ATOM     24  C   UNL     1       3.368   5.885  19.063  0.00  0.00    +0.000 C 
ATOM     25  C   UNL     1       3.358   6.931  17.937  0.00  0.00    +0.000 C 
ATOM     26  C   UNL     1       3.773   3.418  19.697  0.00  0.00    +0.000 C 
ATOM     27  O   UNL     1       2.677   2.485  19.763  0.00  0.00    +0.000 OA
ATOM     28  C   UNL     1       1.532   3.141  19.202  0.00  0.00    +0.000 C 
ATOM     29  C   UNL     1       0.501   2.111  18.744  0.00  0.00    +0.000 C 
ATOM     30  C   UNL     1       0.894   3.993  20.308  0.00  0.00    +0.000 C 
ATOM     31  C   UNL     1       2.134   3.922  18.024  0.00  0.00    +0.000 C 
ENDBRANCH  19  20
ENDBRANCH  18  19
ENDBRANCH   1  18
TORSDOF 6
ENDMDL
MODEL 8
REMARK VINA RESULT:      -7.8      1.435      1.627
REMARK  Name = 
REMARK  10 active torsions:
REMARK  status: ('A' for Active; 'I' for Inactive)
REMARK    1  A    between atoms: C_1  and  C_2
REMARK    2  A    between atoms: C_2  and  O_3
REMARK    3  A    between atoms: C_2  and  C_16
REMARK    4  A    between atoms: O_3  and  C_4
REMARK    5  A    between atoms: C_12  and  C_13
REMARK    6  A    between atoms: C_12  and  C_14
REMARK    7  A    between atoms: C_18  and  C_19
REMARK    8  A    between atoms: C_22  and  C_23
REMARK    9  A    between atoms: C_23  and  S_24
REMARK   10  A    between atoms: S_24  and  C_25
REMARK                            x       y       z     vdW  Elec       q    Type
REMARK                         _______ _______ _______ _____ _____    ______ ____
ROOT
ATOM      1  C   UNL     1       6.672   6.683  16.728  0.00  0.00    +0.000 A 
ATOM      2  N   UNL     1       6.796   7.985  16.845  0.00  0.00    +0.000 NA
ATOM      3  C   UNL     1       7.770   8.103  17.811  0.00  0.00    +0.000 A 
ATOM      4  N   UNL     1       8.199   6.926  18.301  0.00  0.00    +0.000 NA
ATOM      5  O   UNL     1       7.456   5.987  17.601  0.00  0.00    +0.000 OA
ENDROOT
BRANCH   3   6
ATOM      6  C   UNL     1       8.319   9.386  18.210  0.00  0.00    +0.000 A 
ATOM      7  C   UNL     1       8.167  10.511  17.393  0.00  0.00    +0.000 A 
ATOM      8  C   UNL     1       8.673  11.749  17.798  0.00  0.00    +0.000 A 
ATOM      9  C   UNL     1       9.356  11.877  19.015  0.00  0.00    +0.000 A 
ATOM     10  C   UNL     1       9.543  10.742  19.813  0.00  0.00    +0.000 A 
ATOM     11  C   UNL     1       9.018   9.511  19.419  0.00  0.00    +0.000 A 
BRANCH   9  12
ATOM     12  C   UNL     1       9.871  13.217  19.463  0.00  0.00    +0.000 C 
BRANCH  12  13
ATOM     13  S   UNL     1      11.634  13.356  19.176  0.00  0.00    +0.000 S 
ATOM     14  C   UNL     1      11.861  12.977  17.451  0.00  0.00    +0.000 C 
ATOM     15  O   UNL     1      11.976  14.759  19.337  0.00  0.00    +0.000 OA
ATOM     16  O   UNL     1      12.333  12.350  19.954  0.00  0.00    +0.000 OA
ENDBRANCH  12  13
ENDBRANCH   9  12
ENDBRANCH   3   6
BRANCH   1  18
ATOM     17  C   UNL     1       6.842   4.890  15.005  0.00  0.00    +0.000 C 
ATOM     18  C   UNL     1       5.931   5.904  15.697  0.00  0.00    +0.000 C 
BRANCH  18  19
ATOM     19  O   UNL     1       4.843   5.179  16.278  0.00  0.00    +0.000 OA
BRANCH  19  20
ATOM     20  C   UNL     1       5.153   4.007  17.047  0.00  0.00    +0.000 C 
ATOM     21  C   UNL     1       5.506   4.280  18.512  0.00  0.00    +0.000 C 
ATOM     22  C   UNL     1       4.376   5.012  19.233  0.00  0.00    +0.000 C 
ATOM     23  C   UNL     1       3.009   4.287  19.173  0.00  0.00    +0.000 C 
ATOM     24  C   UNL     1       2.713   3.857  17.711  0.00  0.00    +0.000 C 
ATOM     25  C   UNL     1       3.890   3.142  17.027  0.00  0.00    +0.000 C 
ATOM     26  C   UNL     1       1.930   5.239  19.742  0.00  0.00    +0.000 C 
ATOM     27  O   UNL     1       1.316   4.598  20.876  0.00  0.00    +0.000 OA
ATOM     28  C   UNL     1       1.486   3.185  20.704  0.00  0.00    +0.000 C 
ATOM     29  C   UNL     1       1.360   2.467  22.047  0.00  0.00    +0.000 C 
ATOM     30  C   UNL     1       0.357   2.686  19.791  0.00  0.00    +0.000 C 
ATOM     31  C   UNL     1       2.905   3.085  20.124  0.00  0.00    +0.000 C 
ENDBRANCH  19  20
ENDBRANCH  18  19
ENDBRANCH   1  18
TORSDOF 6
ENDMDL
MODEL 9
REMARK VINA RESULT:      -7.8      5.554      8.087
REMARK  Name = 
REMARK  10 active torsions:
REMARK  status: ('A' for Active; 'I' for Inactive)
REMARK    1  A    between atoms: C_1  and  C_2
REMARK    2  A    between atoms: C_2  and  O_3
REMARK    3  A    between atoms: C_2  and  C_16
REMARK    4  A    between atoms: O_3  and  C_4
REMARK    5  A    between atoms: C_12  and  C_13
REMARK    6  A    between atoms: C_12  and  C_14
REMARK    7  A    between atoms: C_18  and  C_19
REMARK    8  A    between atoms: C_22  and  C_23
REMARK    9  A    between atoms: C_23  and  S_24
REMARK   10  A    between atoms: S_24  and  C_25
REMARK                            x       y       z     vdW  Elec       q    Type
REMARK                         _______ _______ _______ _____ _____    ______ ____
ROOT
ATOM      1  C   UNL     1       1.762   6.860  20.768  0.00  0.00    +0.000 A 
ATOM      2  N   UNL     1       1.036   7.648  21.527  0.00  0.00    +0.000 NA
ATOM      3  C   UNL     1       0.900   8.770  20.740  0.00  0.00    +0.000 A 
ATOM      4  N   UNL     1       1.549   8.697  19.565  0.00  0.00    +0.000 NA
ATOM      5  O   UNL     1       2.140   7.442  19.592  0.00  0.00    +0.000 OA
ENDROOT
BRANCH   3   6
ATOM      6  C   UNL     1       0.074   9.899  21.132  0.00  0.00    +0.000 A 
ATOM      7  C   UNL     1      -0.226  10.128  22.478  0.00  0.00    +0.000 A 
ATOM      8  C   UNL     1      -0.997  11.232  22.850  0.00  0.00    +0.000 A 
ATOM      9  C   UNL     1      -1.498  12.112  21.880  0.00  0.00    +0.000 A 
ATOM     10  C   UNL     1      -1.230  11.858  20.529  0.00  0.00    +0.000 A 
ATOM     11  C   UNL     1      -0.442  10.768  20.161  0.00  0.00    +0.000 A 
BRANCH   9  12
ATOM     12  C   UNL     1      -2.299  13.317  22.285  0.00  0.00    +0.000 C 
BRANCH  12  13
ATOM     13  S   UNL     1      -1.226  14.669  22.767  0.00  0.00    +0.000 S 
ATOM     14  C   UNL     1      -1.444  14.838  24.526  0.00  0.00    +0.000 C 
ATOM     15  O   UNL     1       0.139  14.214  22.563  0.00  0.00    +0.000 OA
ATOM     16  O   UNL     1      -1.679  15.896  22.137  0.00  0.00    +0.000 OA
ENDBRANCH  12  13
ENDBRANCH   9  12
ENDBRANCH   3   6
BRANCH   1  18
ATOM     17  C   UNL     1       0.981   4.526  20.376  0.00  0.00    +0.000 C 
ATOM     18  C   UNL     1       2.080   5.416  20.953  0.00  0.00    +0.000 C 
BRANCH  18  19
ATOM     19  O   UNL     1       3.304   5.067  20.300  0.00  0.00    +0.000 OA
BRANCH  19  20
ATOM     20  C   UNL     1       3.318   3.883  19.489  0.00  0.00    +0.000 C 
ATOM     21  C   UNL     1       2.559   4.008  18.164  0.00  0.00    +0.000 C 
ATOM     22  C   UNL     1       3.107   5.151  17.312  0.00  0.00    +0.000 C 
ATOM     23  C   UNL     1       4.623   5.051  17.014  0.00  0.00    +0.000 C 
ATOM     24  C   UNL     1       5.392   4.760  18.330  0.00  0.00    +0.000 C 
ATOM     25  C   UNL     1       4.788   3.614  19.158  0.00  0.00    +0.000 C 
ATOM     26  C   UNL     1       5.073   6.371  16.342  0.00  0.00    +0.000 C 
ATOM     27  O   UNL     1       5.613   6.056  15.044  0.00  0.00    +0.000 OA
ATOM     28  C   UNL     1       6.062   4.695  15.095  0.00  0.00    +0.000 C 
ATOM     29  C   UNL     1       6.150   4.113  13.686  0.00  0.00    +0.000 C 
ATOM     30  C   UNL     1       7.473   4.692  15.700  0.00  0.00    +0.000 C 
ATOM     31  C   UNL     1       4.974   4.013  15.938  0.00  0.00    +0.000 C 
ENDBRANCH  19  20
ENDBRANCH  18  19
ENDBRANCH   1  18
TORSDOF 6
ENDMDL
