MODEL 1
REMARK VINA RESULT:      -8.1      0.000      0.000
REMARK  Name = 
REMARK  8 active torsions:
REMARK  status: ('A' for Active; 'I' for Inactive)
REMARK    1  A    between atoms: C_1  and  O_2
REMARK    2  A    between atoms: O_2  and  C_3
REMARK    3  A    between atoms: C_6  and  N_7
REMARK    4  A    between atoms: C_8  and  C_10
REMARK    5  A    between atoms: C_11  and  C_12
REMARK    6  A    between atoms: N_14  and  C_15
REMARK    7  A    between atoms: C_22  and  C_23
REMARK    8  A    between atoms: C_26  and  C_27
REMARK                            x       y       z     vdW  Elec       q    Type
REMARK                         _______ _______ _______ _____ _____    ______ ____
ROOT
ATOM      1  C   UNL     1       6.747   5.508  18.043  0.00  0.00    +0.000 A 
ATOM      2  C   UNL     1       7.308   6.524  18.775  0.00  0.00    +0.000 A 
ATOM      3  N   UNL     1       7.726   7.478  17.877  0.00  0.00    +0.000 N 
ATOM      4  N   UNL     1       7.528   7.073  16.596  0.00  0.00    +0.000 NA
ATOM      5  C   UNL     1       6.956   5.861  16.678  0.00  0.00    +0.000 A 
ENDROOT
BRANCH   5   6
ATOM      6  C   UNL     1       6.654   5.087  15.466  0.00  0.00    +0.000 A 
ATOM      7  C   UNL     1       5.486   4.312  15.399  0.00  0.00    +0.000 A 
ATOM      8  C   UNL     1       5.149   3.622  14.230  0.00  0.00    +0.000 A 
ATOM      9  C   UNL     1       5.973   3.694  13.103  0.00  0.00    +0.000 A 
ATOM     10  C   UNL     1       5.621   2.981  11.833  0.00  0.00    +0.000 C 
ATOM     11  C   UNL     1       7.146   4.450  13.169  0.00  0.00    +0.000 A 
ATOM     12  C   UNL     1       7.486   5.126  14.341  0.00  0.00    +0.000 A 
ENDBRANCH   5   6
BRANCH   3  13
ATOM     13  C   UNL     1       8.246   8.774  18.165  0.00  0.00    +0.000 A 
ATOM     14  C   UNL     1       9.057   8.992  19.289  0.00  0.00    +0.000 A 
ATOM     15  C   UNL     1       9.511  10.278  19.589  0.00  0.00    +0.000 A 
ATOM     16  C   UNL     1       9.156  11.355  18.779  0.00  0.00    +0.000 A 
ATOM     17  C   UNL     1       8.358  11.147  17.655  0.00  0.00    +0.000 A 
ATOM     18  C   UNL     1       7.911   9.859  17.342  0.00  0.00    +0.000 A 
ENDBRANCH   3  13
BRANCH   1  20
ATOM     19  C   UNL     1       4.795   4.257  18.932  0.00  0.00    +0.000 C 
ATOM     20  C   UNL     1       6.092   4.371  18.601  0.00  0.00    +0.000 C 
BRANCH  19  22
ATOM     21  N   UNL     1       3.589   6.252  19.474  0.00  0.00    +0.000 N 
ATOM     22  C   UNL     1       3.799   5.270  18.527  0.00  0.00    +0.000 C 
ATOM     23  O   UNL     1       3.249   5.152  17.435  0.00  0.00    +0.000 OA
ATOM     24  H   UNL     1       4.220   6.298  20.266  0.00  0.00    +0.000 HD
BRANCH  21  28
ATOM     25  C   UNL     1       0.925   9.521  19.108  0.00  0.00    +0.000 A 
ATOM     26  C   UNL     1       1.714   9.140  18.030  0.00  0.00    +0.000 A 
ATOM     27  C   UNL     1       2.568   8.043  18.131  0.00  0.00    +0.000 A 
ATOM     28  C   UNL     1       2.673   7.320  19.320  0.00  0.00    +0.000 A 
ATOM     29  C   UNL     1       1.854   7.680  20.394  0.00  0.00    +0.000 A 
ATOM     30  C   UNL     1       0.989   8.784  20.290  0.00  0.00    +0.000 A 
BRANCH  25  32
ATOM     31  C   UNL     1      -1.119  10.397  18.322  0.00  0.00    +0.000 C 
ATOM     32  O   UNL     1       0.161  10.631  18.887  0.00  0.00    +0.000 OA
ENDBRANCH  25  32
ENDBRANCH  21  28
ENDBRANCH  19  22
ENDBRANCH   1  20
TORSDOF 6
ENDMDL
MODEL 2
REMARK VINA RESULT:      -8.0      0.447      1.304
REMARK  Name = 
REMARK  8 active torsions:
REMARK  status: ('A' for Active; 'I' for Inactive)
REMARK    1  A    between atoms: C_1  and  O_2
REMARK    2  A    between atoms: O_2  and  C_3
REMARK    3  A    between atoms: C_6  and  N_7
REMARK    4  A    between atoms: C_8  and  C_10
REMARK    5  A    between atoms: C_11  and  C_12
REMARK    6  A    between atoms: N_14  and  C_15
REMARK    7  A    between atoms: C_22  and  C_23
REMARK    8  A    between atoms: C_26  and  C_27
REMARK                            x       y       z     vdW  Elec       q    Type
REMARK                         _______ _______ _______ _____ _____    ______ ____
ROOT
ATOM      1  C   UNL     1       6.747   5.573  17.977  0.00  0.00    +0.000 A 
ATOM      2  C   UNL     1       7.306   6.577  18.729  0.00  0.00    +0.000 A 
ATOM      3  N   UNL     1       7.698   7.560  17.851  0.00  0.00    +0.000 N 
ATOM      4  N   UNL     1       7.486   7.187  16.562  0.00  0.00    +0.000 NA
ATOM      5  C   UNL     1       6.931   5.965  16.620  0.00  0.00    +0.000 A 
ENDROOT
BRANCH   5   6
ATOM      6  C   UNL     1       6.620   5.220  15.392  0.00  0.00    +0.000 A 
ATOM      7  C   UNL     1       7.494   5.276  14.295  0.00  0.00    +0.000 A 
ATOM      8  C   UNL     1       7.249   4.521  13.144  0.00  0.00    +0.000 A 
ATOM      9  C   UNL     1       6.124   3.695  13.065  0.00  0.00    +0.000 A 
ATOM     10  C   UNL     1       5.852   2.862  11.850  0.00  0.00    +0.000 C 
ATOM     11  C   UNL     1       5.240   3.650  14.146  0.00  0.00    +0.000 A 
ATOM     12  C   UNL     1       5.481   4.414  15.288  0.00  0.00    +0.000 A 
ENDBRANCH   5   6
BRANCH   3  13
ATOM     13  C   UNL     1       8.205   8.855  18.166  0.00  0.00    +0.000 A 
ATOM     14  C   UNL     1       7.919   9.959  17.349  0.00  0.00    +0.000 A 
ATOM     15  C   UNL     1       8.471  11.209  17.640  0.00  0.00    +0.000 A 
ATOM     16  C   UNL     1       9.312  11.367  18.739  0.00  0.00    +0.000 A 
ATOM     17  C   UNL     1       9.593  10.277  19.562  0.00  0.00    +0.000 A 
ATOM     18  C   UNL     1       9.035   9.026  19.284  0.00  0.00    +0.000 A 
ENDBRANCH   3  13
BRANCH   1  20
ATOM     19  C   UNL     1       4.828   4.275  18.868  0.00  0.00    +0.000 C 
ATOM     20  C   UNL     1       6.116   4.413  18.515  0.00  0.00    +0.000 C 
BRANCH  19  22
ATOM     21  N   UNL     1       3.586   6.217  19.510  0.00  0.00    +0.000 N 
ATOM     22  C   UNL     1       3.812   5.288  18.515  0.00  0.00    +0.000 C 
ATOM     23  O   UNL     1       3.263   5.215  17.419  0.00  0.00    +0.000 OA
ATOM     24  H   UNL     1       4.217   6.235  20.303  0.00  0.00    +0.000 HD
BRANCH  21  28
ATOM     25  C   UNL     1       0.866   9.455  19.304  0.00  0.00    +0.000 A 
ATOM     26  C   UNL     1       1.619   9.104  18.190  0.00  0.00    +0.000 A 
ATOM     27  C   UNL     1       2.492   8.018  18.240  0.00  0.00    +0.000 A 
ATOM     28  C   UNL     1       2.651   7.275  19.410  0.00  0.00    +0.000 A 
ATOM     29  C   UNL     1       1.867   7.605  20.520  0.00  0.00    +0.000 A 
ATOM     30  C   UNL     1       0.984   8.698  20.469  0.00  0.00    +0.000 A 
BRANCH  25  32
ATOM     31  C   UNL     1      -0.201  11.305  20.305  0.00  0.00    +0.000 C 
ATOM     32  O   UNL     1       0.080  10.558  19.132  0.00  0.00    +0.000 OA
ENDBRANCH  25  32
ENDBRANCH  21  28
ENDBRANCH  19  22
ENDBRANCH   1  20
TORSDOF 6
ENDMDL
MODEL 3
REMARK VINA RESULT:      -7.9      2.502      7.176
REMARK  Name = 
REMARK  8 active torsions:
REMARK  status: ('A' for Active; 'I' for Inactive)
REMARK    1  A    between atoms: C_1  and  O_2
REMARK    2  A    between atoms: O_2  and  C_3
REMARK    3  A    between atoms: C_6  and  N_7
REMARK    4  A    between atoms: C_8  and  C_10
REMARK    5  A    between atoms: C_11  and  C_12
REMARK    6  A    between atoms: N_14  and  C_15
REMARK    7  A    between atoms: C_22  and  C_23
REMARK    8  A    between atoms: C_26  and  C_27
REMARK                            x       y       z     vdW  Elec       q    Type
REMARK                         _______ _______ _______ _____ _____    ______ ____
ROOT
ATOM      1  C   UNL     1       6.576   5.243  17.603  0.00  0.00    +0.000 A 
ATOM      2  C   UNL     1       7.138   4.668  16.490  0.00  0.00    +0.000 A 
ATOM      3  N   UNL     1       6.242   4.837  15.460  0.00  0.00    +0.000 N 
ATOM      4  N   UNL     1       5.096   5.424  15.891  0.00  0.00    +0.000 NA
ATOM      5  C   UNL     1       5.272   5.654  17.203  0.00  0.00    +0.000 A 
ENDROOT
BRANCH   5   6
ATOM      6  C   UNL     1       4.194   6.232  18.017  0.00  0.00    +0.000 A 
ATOM      7  C   UNL     1       3.810   5.614  19.217  0.00  0.00    +0.000 A 
ATOM      8  C   UNL     1       2.832   6.185  20.037  0.00  0.00    +0.000 A 
ATOM      9  C   UNL     1       2.218   7.387  19.675  0.00  0.00    +0.000 A 
ATOM     10  C   UNL     1       1.183   8.028  20.548  0.00  0.00    +0.000 C 
ATOM     11  C   UNL     1       2.582   7.998  18.473  0.00  0.00    +0.000 A 
ATOM     12  C   UNL     1       3.549   7.419  17.650  0.00  0.00    +0.000 A 
ENDBRANCH   5   6
BRANCH   3  13
ATOM     13  C   UNL     1       6.436   4.529  14.082  0.00  0.00    +0.000 A 
ATOM     14  C   UNL     1       5.643   3.566  13.440  0.00  0.00    +0.000 A 
ATOM     15  C   UNL     1       5.884   3.234  12.104  0.00  0.00    +0.000 A 
ATOM     16  C   UNL     1       6.915   3.854  11.402  0.00  0.00    +0.000 A 
ATOM     17  C   UNL     1       7.701   4.820  12.028  0.00  0.00    +0.000 A 
ATOM     18  C   UNL     1       7.458   5.165  13.362  0.00  0.00    +0.000 A 
ENDBRANCH   3  13
BRANCH   1  20
ATOM     19  C   UNL     1       8.056   6.364  19.251  0.00  0.00    +0.000 C 
ATOM     20  C   UNL     1       7.229   5.379  18.863  0.00  0.00    +0.000 C 
BRANCH  19  22
ATOM     21  N   UNL     1       8.762   8.650  19.171  0.00  0.00    +0.000 N 
ATOM     22  C   UNL     1       8.216   7.601  18.459  0.00  0.00    +0.000 C 
ATOM     23  O   UNL     1       7.851   7.601  17.287  0.00  0.00    +0.000 OA
ATOM     24  H   UNL     1       9.146   8.458  20.089  0.00  0.00    +0.000 HD
BRANCH  21  28
ATOM     25  C   UNL     1       9.380  12.553  17.653  0.00  0.00    +0.000 A 
ATOM     26  C   UNL     1      10.419  11.875  18.278  0.00  0.00    +0.000 A 
ATOM     27  C   UNL     1      10.233  10.576  18.750  0.00  0.00    +0.000 A 
ATOM     28  C   UNL     1       8.999   9.936  18.632  0.00  0.00    +0.000 A 
ATOM     29  C   UNL     1       7.963  10.604  17.971  0.00  0.00    +0.000 A 
ATOM     30  C   UNL     1       8.152  11.912  17.491  0.00  0.00    +0.000 A 
BRANCH  25  32
ATOM     31  C   UNL     1       9.509  14.828  18.261  0.00  0.00    +0.000 C 
ATOM     32  O   UNL     1       9.683  13.828  17.270  0.00  0.00    +0.000 OA
ENDBRANCH  25  32
ENDBRANCH  21  28
ENDBRANCH  19  22
ENDBRANCH   1  20
TORSDOF 6
ENDMDL
MODEL 4
REMARK VINA RESULT:      -7.8      0.513      1.003
REMARK  Name = 
REMARK  8 active torsions:
REMARK  status: ('A' for Active; 'I' for Inactive)
REMARK    1  A    between atoms: C_1  and  O_2
REMARK    2  A    between atoms: O_2  and  C_3
REMARK    3  A    between atoms: C_6  and  N_7
REMARK    4  A    between atoms: C_8  and  C_10
REMARK    5  A    between atoms: C_11  and  C_12
REMARK    6  A    between atoms: N_14  and  C_15
REMARK    7  A    between atoms: C_22  and  C_23
REMARK    8  A    between atoms: C_26  and  C_27
REMARK                            x       y       z     vdW  Elec       q    Type
REMARK                         _______ _______ _______ _____ _____    ______ ____
ROOT
ATOM      1  C   UNL     1       6.623   5.593  18.016  0.00  0.00    +0.000 A 
ATOM      2  C   UNL     1       7.184   6.605  18.754  0.00  0.00    +0.000 A 
ATOM      3  N   UNL     1       7.680   7.523  17.858  0.00  0.00    +0.000 N 
ATOM      4  N   UNL     1       7.529   7.097  16.577  0.00  0.00    +0.000 NA
ATOM      5  C   UNL     1       6.910   5.908  16.657  0.00  0.00    +0.000 A 
ENDROOT
BRANCH   5   6
ATOM      6  C   UNL     1       6.638   5.119  15.447  0.00  0.00    +0.000 A 
ATOM      7  C   UNL     1       5.477   4.334  15.365  0.00  0.00    +0.000 A 
ATOM      8  C   UNL     1       5.170   3.629  14.197  0.00  0.00    +0.000 A 
ATOM      9  C   UNL     1       6.016   3.694  13.087  0.00  0.00    +0.000 A 
ATOM     10  C   UNL     1       5.696   2.965  11.818  0.00  0.00    +0.000 C 
ATOM     11  C   UNL     1       7.183   4.459  13.168  0.00  0.00    +0.000 A 
ATOM     12  C   UNL     1       7.493   5.151  14.340  0.00  0.00    +0.000 A 
ENDBRANCH   5   6
BRANCH   3  13
ATOM     13  C   UNL     1       8.232   8.806  18.145  0.00  0.00    +0.000 A 
ATOM     14  C   UNL     1       9.052   9.004  19.265  0.00  0.00    +0.000 A 
ATOM     15  C   UNL     1       9.538  10.279  19.564  0.00  0.00    +0.000 A 
ATOM     16  C   UNL     1       9.207  11.364  18.755  0.00  0.00    +0.000 A 
ATOM     17  C   UNL     1       8.400  11.175  17.634  0.00  0.00    +0.000 A 
ATOM     18  C   UNL     1       7.920   9.899  17.322  0.00  0.00    +0.000 A 
ENDBRANCH   3  13
BRANCH   1  20
ATOM     19  C   UNL     1       4.611   4.468  18.937  0.00  0.00    +0.000 C 
ATOM     20  C   UNL     1       5.901   4.493  18.565  0.00  0.00    +0.000 C 
BRANCH  19  22
ATOM     21  N   UNL     1       3.325   6.346  19.676  0.00  0.00    +0.000 N 
ATOM     22  C   UNL     1       3.682   5.565  18.596  0.00  0.00    +0.000 C 
ATOM     23  O   UNL     1       3.307   5.678  17.432  0.00  0.00    +0.000 OA
ATOM     24  H   UNL     1       3.827   6.220  20.547  0.00  0.00    +0.000 HD
BRANCH  21  28
ATOM     25  C   UNL     1       0.592   9.564  19.358  0.00  0.00    +0.000 A 
ATOM     26  C   UNL     1       0.735   8.887  20.563  0.00  0.00    +0.000 A 
ATOM     27  C   UNL     1       1.658   7.849  20.685  0.00  0.00    +0.000 A 
ATOM     28  C   UNL     1       2.438   7.446  19.600  0.00  0.00    +0.000 A 
ATOM     29  C   UNL     1       2.320   8.151  18.398  0.00  0.00    +0.000 A 
ATOM     30  C   UNL     1       1.393   9.200  18.276  0.00  0.00    +0.000 A 
BRANCH  25  32
ATOM     31  C   UNL     1      -0.699  11.068  20.635  0.00  0.00    +0.000 C 
ATOM     32  O   UNL     1      -0.369  10.534  19.363  0.00  0.00    +0.000 OA
ENDBRANCH  25  32
ENDBRANCH  21  28
ENDBRANCH  19  22
ENDBRANCH   1  20
TORSDOF 6
ENDMDL
MODEL 5
REMARK VINA RESULT:      -7.8      4.155      9.263
REMARK  Name = 
REMARK  8 active torsions:
REMARK  status: ('A' for Active; 'I' for Inactive)
REMARK    1  A    between atoms: C_1  and  O_2
REMARK    2  A    between atoms: O_2  and  C_3
REMARK    3  A    between atoms: C_6  and  N_7
REMARK    4  A    between atoms: C_8  and  C_10
REMARK    5  A    between atoms: C_11  and  C_12
REMARK    6  A    between atoms: N_14  and  C_15
REMARK    7  A    between atoms: C_22  and  C_23
REMARK    8  A    between atoms: C_26  and  C_27
REMARK                            x       y       z     vdW  Elec       q    Type
REMARK                         _______ _______ _______ _____ _____    ______ ____
ROOT
ATOM      1  C   UNL     1      -0.367  12.273  21.003  0.00  0.00    +0.000 A 
ATOM      2  C   UNL     1       0.883  12.803  20.808  0.00  0.00    +0.000 A 
ATOM      3  N   UNL     1       0.847  13.476  19.609  0.00  0.00    +0.000 N 
ATOM      4  N   UNL     1      -0.354  13.328  18.994  0.00  0.00    +0.000 NA
ATOM      5  C   UNL     1      -1.099  12.573  19.818  0.00  0.00    +0.000 A 
ENDROOT
BRANCH   5   6
ATOM      6  C   UNL     1      -2.456  12.156  19.438  0.00  0.00    +0.000 A 
ATOM      7  C   UNL     1      -3.565  12.635  20.151  0.00  0.00    +0.000 A 
ATOM      8  C   UNL     1      -4.866  12.301  19.763  0.00  0.00    +0.000 A 
ATOM      9  C   UNL     1      -5.085  11.483  18.651  0.00  0.00    +0.000 A 
ATOM     10  C   UNL     1      -6.470  11.129  18.204  0.00  0.00    +0.000 C 
ATOM     11  C   UNL     1      -3.985  10.987  17.948  0.00  0.00    +0.000 A 
ATOM     12  C   UNL     1      -2.687  11.312  18.346  0.00  0.00    +0.000 A 
ENDBRANCH   5   6
BRANCH   3  13
ATOM     13  C   UNL     1       1.864  14.302  19.046  0.00  0.00    +0.000 A 
ATOM     14  C   UNL     1       1.593  15.627  18.673  0.00  0.00    +0.000 A 
ATOM     15  C   UNL     1       2.584  16.404  18.069  0.00  0.00    +0.000 A 
ATOM     16  C   UNL     1       3.847  15.867  17.826  0.00  0.00    +0.000 A 
ATOM     17  C   UNL     1       4.128  14.554  18.202  0.00  0.00    +0.000 A 
ATOM     18  C   UNL     1       3.144  13.774  18.819  0.00  0.00    +0.000 A 
ENDBRANCH   3  13
BRANCH   1  20
ATOM     19  C   UNL     1      -0.405  10.367  22.594  0.00  0.00    +0.000 C 
ATOM     20  C   UNL     1      -0.783  11.588  22.184  0.00  0.00    +0.000 C 
BRANCH  19  22
ATOM     21  N   UNL     1       0.368   9.014  20.778  0.00  0.00    +0.000 N 
ATOM     22  C   UNL     1       0.714   9.644  21.956  0.00  0.00    +0.000 C 
ATOM     23  O   UNL     1       1.810   9.648  22.510  0.00  0.00    +0.000 OA
ATOM     24  H   UNL     1      -0.537   9.220  20.372  0.00  0.00    +0.000 HD
BRANCH  21  28
ATOM     25  C   UNL     1       3.152   6.827  18.456  0.00  0.00    +0.000 A 
ATOM     26  C   UNL     1       2.671   6.300  19.648  0.00  0.00    +0.000 A 
ATOM     27  C   UNL     1       1.728   6.998  20.401  0.00  0.00    +0.000 A 
ATOM     28  C   UNL     1       1.266   8.250  19.994  0.00  0.00    +0.000 A 
ATOM     29  C   UNL     1       1.723   8.766  18.777  0.00  0.00    +0.000 A 
ATOM     30  C   UNL     1       2.670   8.059  18.016  0.00  0.00    +0.000 A 
BRANCH  25  32
ATOM     31  C   UNL     1       4.892   6.722  16.868  0.00  0.00    +0.000 C 
ATOM     32  O   UNL     1       4.096   6.059  17.837  0.00  0.00    +0.000 OA
ENDBRANCH  25  32
ENDBRANCH  21  28
ENDBRANCH  19  22
ENDBRANCH   1  20
TORSDOF 6
ENDMDL
MODEL 6
REMARK VINA RESULT:      -7.8      5.183     10.888
REMARK  Name = 
REMARK  8 active torsions:
REMARK  status: ('A' for Active; 'I' for Inactive)
REMARK    1  A    between atoms: C_1  and  O_2
REMARK    2  A    between atoms: O_2  and  C_3
REMARK    3  A    between atoms: C_6  and  N_7
REMARK    4  A    between atoms: C_8  and  C_10
REMARK    5  A    between atoms: C_11  and  C_12
REMARK    6  A    between atoms: N_14  and  C_15
REMARK    7  A    between atoms: C_22  and  C_23
REMARK    8  A    between atoms: C_26  and  C_27
REMARK                            x       y       z     vdW  Elec       q    Type
REMARK                         _______ _______ _______ _____ _____    ______ ____
ROOT
ATOM      1  C   UNL     1      -0.352  11.063  20.708  0.00  0.00    +0.000 A 
ATOM      2  C   UNL     1      -0.596  10.457  19.501  0.00  0.00    +0.000 A 
ATOM      3  N   UNL     1      -1.799  10.944  19.047  0.00  0.00    +0.000 N 
ATOM      4  N   UNL     1      -2.372  11.776  19.956  0.00  0.00    +0.000 NA
ATOM      5  C   UNL     1      -1.515  11.838  20.988  0.00  0.00    +0.000 A 
ENDROOT
BRANCH   5   6
ATOM      6  C   UNL     1      -1.844  12.610  22.194  0.00  0.00    +0.000 A 
ATOM      7  C   UNL     1      -0.952  13.581  22.674  0.00  0.00    +0.000 A 
ATOM      8  C   UNL     1      -1.278  14.370  23.782  0.00  0.00    +0.000 A 
ATOM      9  C   UNL     1      -2.504  14.205  24.432  0.00  0.00    +0.000 A 
ATOM     10  C   UNL     1      -2.884  15.053  25.607  0.00  0.00    +0.000 C 
ATOM     11  C   UNL     1      -3.390  13.227  23.971  0.00  0.00    +0.000 A 
ATOM     12  C   UNL     1      -3.055  12.433  22.873  0.00  0.00    +0.000 A 
ENDBRANCH   5   6
BRANCH   3  13
ATOM     13  C   UNL     1      -2.406  10.714  17.778  0.00  0.00    +0.000 A 
ATOM     14  C   UNL     1      -1.829   9.831  16.853  0.00  0.00    +0.000 A 
ATOM     15  C   UNL     1      -2.405   9.661  15.591  0.00  0.00    +0.000 A 
ATOM     16  C   UNL     1      -3.552  10.371  15.241  0.00  0.00    +0.000 A 
ATOM     17  C   UNL     1      -4.137  11.243  16.157  0.00  0.00    +0.000 A 
ATOM     18  C   UNL     1      -3.573  11.409  17.426  0.00  0.00    +0.000 A 
ENDBRANCH   3  13
BRANCH   1  20
ATOM     19  C   UNL     1       1.459   9.769  21.808  0.00  0.00    +0.000 C 
ATOM     20  C   UNL     1       0.848  10.914  21.464  0.00  0.00    +0.000 C 
BRANCH  19  22
ATOM     21  N   UNL     1       2.092   7.809  20.590  0.00  0.00    +0.000 N 
ATOM     22  C   UNL     1       1.062   8.471  21.225  0.00  0.00    +0.000 C 
ATOM     23  O   UNL     1      -0.107   8.110  21.333  0.00  0.00    +0.000 OA
ATOM     24  H   UNL     1       3.034   8.163  20.707  0.00  0.00    +0.000 HD
BRANCH  21  28
ATOM     25  C   UNL     1       1.535   4.069  18.687  0.00  0.00    +0.000 A 
ATOM     26  C   UNL     1       1.970   5.166  17.954  0.00  0.00    +0.000 A 
ATOM     27  C   UNL     1       2.190   6.392  18.581  0.00  0.00    +0.000 A 
ATOM     28  C   UNL     1       1.953   6.556  19.946  0.00  0.00    +0.000 A 
ATOM     29  C   UNL     1       1.549   5.444  20.690  0.00  0.00    +0.000 A 
ATOM     30  C   UNL     1       1.332   4.206  20.059  0.00  0.00    +0.000 A 
BRANCH  25  32
ATOM     31  C   UNL     1       2.432   2.059  17.840  0.00  0.00    +0.000 C 
ATOM     32  O   UNL     1       1.326   2.940  17.947  0.00  0.00    +0.000 OA
ENDBRANCH  25  32
ENDBRANCH  21  28
ENDBRANCH  19  22
ENDBRANCH   1  20
TORSDOF 6
ENDMDL
MODEL 7
REMARK VINA RESULT:      -7.7      4.267      9.592
REMARK  Name = 
REMARK  8 active torsions:
REMARK  status: ('A' for Active; 'I' for Inactive)
REMARK    1  A    between atoms: C_1  and  O_2
REMARK    2  A    between atoms: O_2  and  C_3
REMARK    3  A    between atoms: C_6  and  N_7
REMARK    4  A    between atoms: C_8  and  C_10
REMARK    5  A    between atoms: C_11  and  C_12
REMARK    6  A    between atoms: N_14  and  C_15
REMARK    7  A    between atoms: C_22  and  C_23
REMARK    8  A    between atoms: C_26  and  C_27
REMARK                            x       y       z     vdW  Elec       q    Type
REMARK                         _______ _______ _______ _____ _____    ______ ____
ROOT
ATOM      1  C   UNL     1      -0.286  11.361  20.614  0.00  0.00    +0.000 A 
ATOM      2  C   UNL     1      -1.441  10.912  20.025  0.00  0.00    +0.000 A 
ATOM      3  N   UNL     1      -1.404  11.323  18.713  0.00  0.00    +0.000 N 
ATOM      4  N   UNL     1      -0.309  12.086  18.462  0.00  0.00    +0.000 NA
ATOM      5  C   UNL     1       0.371  12.142  19.619  0.00  0.00    +0.000 A 
ENDROOT
BRANCH   5   6
ATOM      6  C   UNL     1       1.596  12.946  19.735  0.00  0.00    +0.000 A 
ATOM      7  C   UNL     1       2.346  13.254  18.589  0.00  0.00    +0.000 A 
ATOM      8  C   UNL     1       3.477  14.073  18.671  0.00  0.00    +0.000 A 
ATOM      9  C   UNL     1       3.881  14.602  19.900  0.00  0.00    +0.000 A 
ATOM     10  C   UNL     1       5.076  15.498  20.008  0.00  0.00    +0.000 C 
ATOM     11  C   UNL     1       3.149  14.284  21.047  0.00  0.00    +0.000 A 
ATOM     12  C   UNL     1       2.029  13.456  20.964  0.00  0.00    +0.000 A 
ENDBRANCH   5   6
BRANCH   3  13
ATOM     13  C   UNL     1      -2.315  10.982  17.670  0.00  0.00    +0.000 A 
ATOM     14  C   UNL     1      -1.956  10.065  16.671  0.00  0.00    +0.000 A 
ATOM     15  C   UNL     1      -2.839   9.786  15.624  0.00  0.00    +0.000 A 
ATOM     16  C   UNL     1      -4.078  10.420  15.562  0.00  0.00    +0.000 A 
ATOM     17  C   UNL     1      -4.446  11.326  16.555  0.00  0.00    +0.000 A 
ATOM     18  C   UNL     1      -3.573  11.601  17.613  0.00  0.00    +0.000 A 
ENDBRANCH   3  13
BRANCH   1  20
ATOM     19  C   UNL     1       0.317   9.838  22.480  0.00  0.00    +0.000 C 
ATOM     20  C   UNL     1       0.118  11.055  21.947  0.00  0.00    +0.000 C 
BRANCH  19  22
ATOM     21  N   UNL     1       1.597   8.386  21.073  0.00  0.00    +0.000 N 
ATOM     22  C   UNL     1       0.363   8.622  21.643  0.00  0.00    +0.000 C 
ATOM     23  O   UNL     1      -0.662   7.956  21.515  0.00  0.00    +0.000 OA
ATOM     24  H   UNL     1       2.384   8.942  21.386  0.00  0.00    +0.000 HD
BRANCH  21  28
ATOM     25  C   UNL     1       2.585   5.149  18.529  0.00  0.00    +0.000 A 
ATOM     26  C   UNL     1       2.126   4.908  19.818  0.00  0.00    +0.000 A 
ATOM     27  C   UNL     1       1.765   5.968  20.650  0.00  0.00    +0.000 A 
ATOM     28  C   UNL     1       1.882   7.291  20.223  0.00  0.00    +0.000 A 
ATOM     29  C   UNL     1       2.310   7.532  18.914  0.00  0.00    +0.000 A 
ATOM     30  C   UNL     1       2.669   6.464  18.073  0.00  0.00    +0.000 A 
BRANCH  25  32
ATOM     31  C   UNL     1       4.290   3.960  17.416  0.00  0.00    +0.000 C 
ATOM     32  O   UNL     1       2.936   4.028  17.834  0.00  0.00    +0.000 OA
ENDBRANCH  25  32
ENDBRANCH  21  28
ENDBRANCH  19  22
ENDBRANCH   1  20
TORSDOF 6
ENDMDL
MODEL 8
REMARK VINA RESULT:      -7.6      5.169     10.890
REMARK  Name = 
REMARK  8 active torsions:
REMARK  status: ('A' for Active; 'I' for Inactive)
REMARK    1  A    between atoms: C_1  and  O_2
REMARK    2  A    between atoms: O_2  and  C_3
REMARK    3  A    between atoms: C_6  and  N_7
REMARK    4  A    between atoms: C_8  and  C_10
REMARK    5  A    between atoms: C_11  and  C_12
REMARK    6  A    between atoms: N_14  and  C_15
REMARK    7  A    between atoms: C_22  and  C_23
REMARK    8  A    between atoms: C_26  and  C_27
REMARK                            x       y       z     vdW  Elec       q    Type
REMARK                         _______ _______ _______ _____ _____    ______ ____
ROOT
ATOM      1  C   UNL     1      -0.354  11.095  20.674  0.00  0.00    +0.000 A 
ATOM      2  C   UNL     1      -0.612  10.449  19.491  0.00  0.00    +0.000 A 
ATOM      3  N   UNL     1      -1.793  10.960  19.007  0.00  0.00    +0.000 N 
ATOM      4  N   UNL     1      -2.341  11.849  19.875  0.00  0.00    +0.000 NA
ATOM      5  C   UNL     1      -1.489  11.924  20.911  0.00  0.00    +0.000 A 
ENDROOT
BRANCH   5   6
ATOM      6  C   UNL     1      -1.798  12.756  22.082  0.00  0.00    +0.000 A 
ATOM      7  C   UNL     1      -2.969  12.526  22.820  0.00  0.00    +0.000 A 
ATOM      8  C   UNL     1      -3.247  13.264  23.974  0.00  0.00    +0.000 A 
ATOM      9  C   UNL     1      -2.358  14.248  24.416  0.00  0.00    +0.000 A 
ATOM     10  C   UNL     1      -2.623  15.037  25.661  0.00  0.00    +0.000 C 
ATOM     11  C   UNL     1      -1.199  14.496  23.675  0.00  0.00    +0.000 A 
ATOM     12  C   UNL     1      -0.932  13.766  22.517  0.00  0.00    +0.000 A 
ENDBRANCH   5   6
BRANCH   3  13
ATOM     13  C   UNL     1      -2.399  10.700  17.743  0.00  0.00    +0.000 A 
ATOM     14  C   UNL     1      -1.814   9.807  16.833  0.00  0.00    +0.000 A 
ATOM     15  C   UNL     1      -2.389   9.607  15.576  0.00  0.00    +0.000 A 
ATOM     16  C   UNL     1      -3.545  10.297  15.214  0.00  0.00    +0.000 A 
ATOM     17  C   UNL     1      -4.138  11.179  16.116  0.00  0.00    +0.000 A 
ATOM     18  C   UNL     1      -3.574  11.375  17.381  0.00  0.00    +0.000 A 
ENDBRANCH   3  13
BRANCH   1  20
ATOM     19  C   UNL     1       1.412   9.782  21.823  0.00  0.00    +0.000 C 
ATOM     20  C   UNL     1       0.835  10.934  21.445  0.00  0.00    +0.000 C 
BRANCH  19  22
ATOM     21  N   UNL     1       1.998   7.792  20.630  0.00  0.00    +0.000 N 
ATOM     22  C   UNL     1       0.986   8.481  21.268  0.00  0.00    +0.000 C 
ATOM     23  O   UNL     1      -0.187   8.140  21.399  0.00  0.00    +0.000 OA
ATOM     24  H   UNL     1       2.946   8.133  20.728  0.00  0.00    +0.000 HD
BRANCH  21  28
ATOM     25  C   UNL     1       1.635   4.013  18.756  0.00  0.00    +0.000 A 
ATOM     26  C   UNL     1       1.289   4.165  20.093  0.00  0.00    +0.000 A 
ATOM     27  C   UNL     1       1.372   5.413  20.708  0.00  0.00    +0.000 A 
ATOM     28  C   UNL     1       1.829   6.531  20.009  0.00  0.00    +0.000 A 
ATOM     29  C   UNL     1       2.144   6.387  18.655  0.00  0.00    +0.000 A 
ATOM     30  C   UNL     1       2.055   5.129  18.033  0.00  0.00    +0.000 A 
BRANCH  25  32
ATOM     31  C   UNL     1       2.759   2.138  17.873  0.00  0.00    +0.000 C 
ATOM     32  O   UNL     1       1.541   2.734  18.288  0.00  0.00    +0.000 OA
ENDBRANCH  25  32
ENDBRANCH  21  28
ENDBRANCH  19  22
ENDBRANCH   1  20
TORSDOF 6
ENDMDL
MODEL 9
REMARK VINA RESULT:      -7.5      4.433      9.045
REMARK  Name = 
REMARK  8 active torsions:
REMARK  status: ('A' for Active; 'I' for Inactive)
REMARK    1  A    between atoms: C_1  and  O_2
REMARK    2  A    between atoms: O_2  and  C_3
REMARK    3  A    between atoms: C_6  and  N_7
REMARK    4  A    between atoms: C_8  and  C_10
REMARK    5  A    between atoms: C_11  and  C_12
REMARK    6  A    between atoms: N_14  and  C_15
REMARK    7  A    between atoms: C_22  and  C_23
REMARK    8  A    between atoms: C_26  and  C_27
REMARK                            x       y       z     vdW  Elec       q    Type
REMARK                         _______ _______ _______ _____ _____    ______ ____
ROOT
ATOM      1  C   UNL     1      -0.073  12.205  21.115  0.00  0.00    +0.000 A 
ATOM      2  C   UNL     1       1.220  12.655  21.018  0.00  0.00    +0.000 A 
ATOM      3  N   UNL     1       1.296  13.402  19.866  0.00  0.00    +0.000 N 
ATOM      4  N   UNL     1       0.123  13.378  19.181  0.00  0.00    +0.000 NA
ATOM      5  C   UNL     1      -0.716  12.629  19.917  0.00  0.00    +0.000 A 
ENDROOT
BRANCH   5   6
ATOM      6  C   UNL     1      -2.075  12.334  19.442  0.00  0.00    +0.000 A 
ATOM      7  C   UNL     1      -2.264  11.539  18.301  0.00  0.00    +0.000 A 
ATOM      8  C   UNL     1      -3.550  11.193  17.873  0.00  0.00    +0.000 A 
ATOM      9  C   UNL     1      -4.673  11.635  18.578  0.00  0.00    +0.000 A 
ATOM     10  C   UNL     1      -6.059  11.260  18.151  0.00  0.00    +0.000 C 
ATOM     11  C   UNL     1      -4.492  12.442  19.704  0.00  0.00    +0.000 A 
ATOM     12  C   UNL     1      -3.208  12.795  20.121  0.00  0.00    +0.000 A 
ENDBRANCH   5   6
BRANCH   3  13
ATOM     13  C   UNL     1       2.396  14.185  19.409  0.00  0.00    +0.000 A 
ATOM     14  C   UNL     1       2.451  14.647  18.085  0.00  0.00    +0.000 A 
ATOM     15  C   UNL     1       3.563  15.365  17.637  0.00  0.00    +0.000 A 
ATOM     16  C   UNL     1       4.627  15.621  18.500  0.00  0.00    +0.000 A 
ATOM     17  C   UNL     1       4.576  15.175  19.820  0.00  0.00    +0.000 A 
ATOM     18  C   UNL     1       3.461  14.467  20.278  0.00  0.00    +0.000 A 
ENDBRANCH   3  13
BRANCH   1  20
ATOM     19  C   UNL     1      -0.307  10.222  22.591  0.00  0.00    +0.000 C 
ATOM     20  C   UNL     1      -0.599  11.481  22.226  0.00  0.00    +0.000 C 
BRANCH  19  22
ATOM     21  N   UNL     1       0.520   8.926  20.756  0.00  0.00    +0.000 N 
ATOM     22  C   UNL     1       0.817   9.478  21.986  0.00  0.00    +0.000 C 
ATOM     23  O   UNL     1       1.874   9.399  22.607  0.00  0.00    +0.000 OA
ATOM     24  H   UNL     1      -0.347   9.196  20.306  0.00  0.00    +0.000 HD
BRANCH  21  28
ATOM     25  C   UNL     1       3.139   6.537  18.442  0.00  0.00    +0.000 A 
ATOM     26  C   UNL     1       2.769   7.800  17.996  0.00  0.00    +0.000 A 
ATOM     27  C   UNL     1       1.934   8.607  18.769  0.00  0.00    +0.000 A 
ATOM     28  C   UNL     1       1.430   8.159  19.990  0.00  0.00    +0.000 A 
ATOM     29  C   UNL     1       1.831   6.904  20.457  0.00  0.00    +0.000 A 
ATOM     30  C   UNL     1       2.676   6.092  19.680  0.00  0.00    +0.000 A 
BRANCH  25  32
ATOM     31  C   UNL     1       3.651   4.452  17.466  0.00  0.00    +0.000 C 
ATOM     32  O   UNL     1       3.930   5.839  17.575  0.00  0.00    +0.000 OA
ENDBRANCH  25  32
ENDBRANCH  21  28
ENDBRANCH  19  22
ENDBRANCH   1  20
TORSDOF 6
ENDMDL
