MODEL 1
REMARK VINA RESULT:      -9.3      0.000      0.000
REMARK  Name = 
REMARK  6 active torsions:
REMARK  status: ('A' for Active; 'I' for Inactive)
REMARK    1  A    between atoms: C_1  and  C_2
REMARK    2  A    between atoms: C_2  and  N_3
REMARK    3  A    between atoms: C_2  and  C_11
REMARK    4  A    between atoms: N_4  and  C_5
REMARK    5  A    between atoms: C_17  and  C_18
REMARK    6  A    between atoms: C_18  and  C_19
REMARK                            x       y       z     vdW  Elec       q    Type
REMARK                         _______ _______ _______ _____ _____    ______ ____
ROOT
ATOM      1  C   UNL     1       5.402   5.256  18.375  0.00  0.00    +0.000 A 
ATOM      2  C   UNL     1       5.243   3.943  19.095  0.00  0.00    +0.000 A 
ATOM      3  C   UNL     1       4.171   3.786  19.873  0.00  0.00    +0.000 A 
ATOM      4  C   UNL     1       3.239   4.847  19.986  0.00  0.00    +0.000 A 
ATOM      5  N   UNL     1       2.135   4.928  20.697  0.00  0.00    +0.000 NA
ATOM      6  C   UNL     1       1.617   6.163  20.388  0.00  0.00    +0.000 A 
ATOM      7  C   UNL     1       2.392   6.825  19.483  0.00  0.00    +0.000 A 
ATOM      8  N   UNL     1       3.474   5.987  19.246  0.00  0.00    +0.000 N 
ATOM      9  N   UNL     1       4.545   6.243  18.437  0.00  0.00    +0.000 NA
ENDROOT
BRANCH   1  11
ATOM     10  C   UNL     1       7.851   4.816  18.227  0.00  0.00    +0.000 C 
ATOM     11  C   UNL     1       6.663   5.491  17.551  0.00  0.00    +0.000 C 
BRANCH  11  12
ATOM     12  N   UNL     1       6.488   4.926  16.206  0.00  0.00    +0.000 NA
ATOM     13  N   UNL     1       7.363   5.308  15.399  0.00  0.00    +0.000 NA
BRANCH  13  14
ATOM     14  C   UNL     1       7.119   4.801  14.099  0.00  0.00    +0.000 A 
ATOM     15  C   UNL     1       6.093   3.849  13.939  0.00  0.00    +0.000 A 
ATOM     16  C   UNL     1       5.832   3.302  12.680  0.00  0.00    +0.000 A 
ATOM     17  C   UNL     1       6.571   3.689  11.575  0.00  0.00    +0.000 A 
ATOM     18  C   UNL     1       7.571   4.651  11.712  0.00  0.00    +0.000 A 
ATOM     19  C   UNL     1       7.834   5.208  12.966  0.00  0.00    +0.000 A 
ENDBRANCH  13  14
ENDBRANCH  11  12
ENDBRANCH   1  11
BRANCH   7  20
ATOM     20  C   UNL     1       2.140   8.113  18.759  0.00  0.00    +0.000 C 
BRANCH  20  21
ATOM     21  C   UNL     1       1.205   9.071  19.445  0.00  0.00    +0.000 A 
ATOM     22  C   UNL     1       1.199   9.137  20.838  0.00  0.00    +0.000 A 
ATOM     23  C   UNL     1       0.277   9.960  21.480  0.00  0.00    +0.000 A 
ATOM     24  C   UNL     1       0.001   9.754  22.824  0.00  0.00    +0.000 A 
ATOM     25  C   UNL     1      -1.078  10.414  23.372  0.00  0.00    +0.000 A 
ATOM     26  C   UNL     1      -1.580  11.520  22.711  0.00  0.00    +0.000 A 
ATOM     27  N   UNL     1      -1.320  11.763  21.414  0.00  0.00    +0.000 NA
ATOM     28  C   UNL     1      -0.514  10.894  20.773  0.00  0.00    +0.000 A 
ATOM     29  C   UNL     1      -0.515  10.806  19.398  0.00  0.00    +0.000 A 
ATOM     30  C   UNL     1       0.294   9.870  18.746  0.00  0.00    +0.000 A 
ATOM     31  F   UNL     1       0.196   9.759  17.413  0.00  0.00    +0.000 F 
ENDBRANCH  20  21
ENDBRANCH   7  20
TORSDOF 5
ENDMDL
MODEL 2
REMARK VINA RESULT:      -9.2      1.802      2.670
REMARK  Name = 
REMARK  6 active torsions:
REMARK  status: ('A' for Active; 'I' for Inactive)
REMARK    1  A    between atoms: C_1  and  C_2
REMARK    2  A    between atoms: C_2  and  N_3
REMARK    3  A    between atoms: C_2  and  C_11
REMARK    4  A    between atoms: N_4  and  C_5
REMARK    5  A    between atoms: C_17  and  C_18
REMARK    6  A    between atoms: C_18  and  C_19
REMARK                            x       y       z     vdW  Elec       q    Type
REMARK                         _______ _______ _______ _____ _____    ______ ____
ROOT
ATOM      1  C   UNL     1       5.026   6.469  17.919  0.00  0.00    +0.000 A 
ATOM      2  C   UNL     1       4.895   5.254  18.800  0.00  0.00    +0.000 A 
ATOM      3  C   UNL     1       3.852   5.196  19.629  0.00  0.00    +0.000 A 
ATOM      4  C   UNL     1       2.924   6.266  19.646  0.00  0.00    +0.000 A 
ATOM      5  N   UNL     1       1.846   6.436  20.382  0.00  0.00    +0.000 NA
ATOM      6  C   UNL     1       1.316   7.626  19.943  0.00  0.00    +0.000 A 
ATOM      7  C   UNL     1       2.057   8.171  18.937  0.00  0.00    +0.000 A 
ATOM      8  N   UNL     1       3.130   7.307  18.765  0.00  0.00    +0.000 N 
ATOM      9  N   UNL     1       4.171   7.459  17.892  0.00  0.00    +0.000 NA
ENDROOT
BRANCH   1  11
ATOM     10  C   UNL     1       7.493   6.140  17.791  0.00  0.00    +0.000 C 
ATOM     11  C   UNL     1       6.256   6.598  17.028  0.00  0.00    +0.000 C 
BRANCH  11  12
ATOM     12  N   UNL     1       6.090   5.762  15.831  0.00  0.00    +0.000 NA
ATOM     13  N   UNL     1       7.137   5.664  15.156  0.00  0.00    +0.000 NA
BRANCH  13  14
ATOM     14  C   UNL     1       6.918   4.911  13.975  0.00  0.00    +0.000 A 
ATOM     15  C   UNL     1       5.826   4.021  13.948  0.00  0.00    +0.000 A 
ATOM     16  C   UNL     1       5.585   3.240  12.815  0.00  0.00    +0.000 A 
ATOM     17  C   UNL     1       6.408   3.333  11.706  0.00  0.00    +0.000 A 
ATOM     18  C   UNL     1       7.476   4.229  11.706  0.00  0.00    +0.000 A 
ATOM     19  C   UNL     1       7.721   5.018  12.833  0.00  0.00    +0.000 A 
ENDBRANCH  13  14
ENDBRANCH  11  12
ENDBRANCH   1  11
BRANCH   7  20
ATOM     20  C   UNL     1       1.776   9.362  18.071  0.00  0.00    +0.000 C 
BRANCH  20  21
ATOM     21  C   UNL     1       0.443  10.023  18.290  0.00  0.00    +0.000 A 
ATOM     22  C   UNL     1      -0.663   9.582  17.564  0.00  0.00    +0.000 A 
ATOM     23  C   UNL     1      -1.881  10.245  17.701  0.00  0.00    +0.000 A 
ATOM     24  C   UNL     1      -2.860  10.075  16.733  0.00  0.00    +0.000 A 
ATOM     25  C   UNL     1      -3.950  10.919  16.760  0.00  0.00    +0.000 A 
ATOM     26  C   UNL     1      -4.226  11.602  17.931  0.00  0.00    +0.000 A 
ATOM     27  N   UNL     1      -3.308  11.770  18.899  0.00  0.00    +0.000 NA
ATOM     28  C   UNL     1      -2.096  11.217  18.704  0.00  0.00    +0.000 A 
ATOM     29  C   UNL     1      -0.992  11.659  19.400  0.00  0.00    +0.000 A 
ATOM     30  C   UNL     1       0.269  11.107  19.157  0.00  0.00    +0.000 A 
ATOM     31  F   UNL     1       1.328  11.628  19.794  0.00  0.00    +0.000 F 
ENDBRANCH  20  21
ENDBRANCH   7  20
TORSDOF 5
ENDMDL
MODEL 3
REMARK VINA RESULT:      -9.2      3.844     10.330
REMARK  Name = 
REMARK  6 active torsions:
REMARK  status: ('A' for Active; 'I' for Inactive)
REMARK    1  A    between atoms: C_1  and  C_2
REMARK    2  A    between atoms: C_2  and  N_3
REMARK    3  A    between atoms: C_2  and  C_11
REMARK    4  A    between atoms: N_4  and  C_5
REMARK    5  A    between atoms: C_17  and  C_18
REMARK    6  A    between atoms: C_18  and  C_19
REMARK                            x       y       z     vdW  Elec       q    Type
REMARK                         _______ _______ _______ _____ _____    ______ ____
ROOT
ATOM      1  C   UNL     1      -1.205  10.672  18.261  0.00  0.00    +0.000 A 
ATOM      2  C   UNL     1      -1.550  11.123  19.656  0.00  0.00    +0.000 A 
ATOM      3  C   UNL     1      -0.816  10.646  20.662  0.00  0.00    +0.000 A 
ATOM      4  C   UNL     1       0.242   9.748  20.381  0.00  0.00    +0.000 A 
ATOM      5  N   UNL     1       1.076   9.143  21.200  0.00  0.00    +0.000 NA
ATOM      6  C   UNL     1       1.911   8.430  20.373  0.00  0.00    +0.000 A 
ATOM      7  C   UNL     1       1.599   8.611  19.059  0.00  0.00    +0.000 A 
ATOM      8  N   UNL     1       0.485   9.439  19.059  0.00  0.00    +0.000 N 
ATOM      9  N   UNL     1      -0.217   9.866  17.967  0.00  0.00    +0.000 NA
ENDROOT
BRANCH   1  11
ATOM     10  C   UNL     1      -2.435   9.943  16.220  0.00  0.00    +0.000 C 
ATOM     11  C   UNL     1      -2.084  11.133  17.104  0.00  0.00    +0.000 C 
BRANCH  11  12
ATOM     12  N   UNL     1      -3.322  11.725  17.629  0.00  0.00    +0.000 NA
ATOM     13  N   UNL     1      -4.324  11.002  17.449  0.00  0.00    +0.000 NA
BRANCH  13  14
ATOM     14  C   UNL     1      -5.506  11.638  17.903  0.00  0.00    +0.000 A 
ATOM     15  C   UNL     1      -5.989  12.741  17.173  0.00  0.00    +0.000 A 
ATOM     16  C   UNL     1      -7.137  13.416  17.596  0.00  0.00    +0.000 A 
ATOM     17  C   UNL     1      -7.816  13.009  18.733  0.00  0.00    +0.000 A 
ATOM     18  C   UNL     1      -7.366  11.901  19.451  0.00  0.00    +0.000 A 
ATOM     19  C   UNL     1      -6.223  11.218  19.031  0.00  0.00    +0.000 A 
ENDBRANCH  13  14
ENDBRANCH  11  12
ENDBRANCH   1  11
BRANCH   7  20
ATOM     20  C   UNL     1       2.322   8.157  17.827  0.00  0.00    +0.000 C 
BRANCH  20  21
ATOM     21  C   UNL     1       2.750   6.715  17.818  0.00  0.00    +0.000 A 
ATOM     22  C   UNL     1       1.797   5.721  18.042  0.00  0.00    +0.000 A 
ATOM     23  C   UNL     1       2.201   4.390  18.118  0.00  0.00    +0.000 A 
ATOM     24  C   UNL     1       1.360   3.457  18.706  0.00  0.00    +0.000 A 
ATOM     25  C   UNL     1       1.875   2.208  18.986  0.00  0.00    +0.000 A 
ATOM     26  C   UNL     1       3.027   1.808  18.335  0.00  0.00    +0.000 A 
ATOM     27  N   UNL     1       3.856   2.682  17.738  0.00  0.00    +0.000 NA
ATOM     28  C   UNL     1       3.509   3.983  17.768  0.00  0.00    +0.000 A 
ATOM     29  C   UNL     1       4.446   4.974  17.569  0.00  0.00    +0.000 A 
ATOM     30  C   UNL     1       4.081   6.321  17.647  0.00  0.00    +0.000 A 
ATOM     31  F   UNL     1       5.041   7.251  17.534  0.00  0.00    +0.000 F 
ENDBRANCH  20  21
ENDBRANCH   7  20
TORSDOF 5
ENDMDL
MODEL 4
REMARK VINA RESULT:      -9.0      1.620      2.666
REMARK  Name = 
REMARK  6 active torsions:
REMARK  status: ('A' for Active; 'I' for Inactive)
REMARK    1  A    between atoms: C_1  and  C_2
REMARK    2  A    between atoms: C_2  and  N_3
REMARK    3  A    between atoms: C_2  and  C_11
REMARK    4  A    between atoms: N_4  and  C_5
REMARK    5  A    between atoms: C_17  and  C_18
REMARK    6  A    between atoms: C_18  and  C_19
REMARK                            x       y       z     vdW  Elec       q    Type
REMARK                         _______ _______ _______ _____ _____    ______ ____
ROOT
ATOM      1  C   UNL     1       5.097   5.847  18.273  0.00  0.00    +0.000 A 
ATOM      2  C   UNL     1       4.808   4.592  19.053  0.00  0.00    +0.000 A 
ATOM      3  C   UNL     1       3.709   4.569  19.808  0.00  0.00    +0.000 A 
ATOM      4  C   UNL     1       2.872   5.711  19.844  0.00  0.00    +0.000 A 
ATOM      5  N   UNL     1       1.763   5.923  20.521  0.00  0.00    +0.000 NA
ATOM      6  C   UNL     1       1.363   7.181  20.137  0.00  0.00    +0.000 A 
ATOM      7  C   UNL     1       2.213   7.726  19.221  0.00  0.00    +0.000 A 
ATOM      8  N   UNL     1       3.222   6.787  19.056  0.00  0.00    +0.000 N 
ATOM      9  N   UNL     1       4.329   6.907  18.263  0.00  0.00    +0.000 NA
ENDROOT
BRANCH   1  11
ATOM     10  C   UNL     1       7.528   5.297  18.267  0.00  0.00    +0.000 C 
ATOM     11  C   UNL     1       6.392   5.930  17.472  0.00  0.00    +0.000 C 
BRANCH  11  12
ATOM     12  N   UNL     1       6.234   5.212  16.200  0.00  0.00    +0.000 NA
ATOM     13  N   UNL     1       7.134   5.477  15.375  0.00  0.00    +0.000 NA
BRANCH  13  14
ATOM     14  C   UNL     1       6.907   4.822  14.139  0.00  0.00    +0.000 A 
ATOM     15  C   UNL     1       7.769   5.115  13.064  0.00  0.00    +0.000 A 
ATOM     16  C   UNL     1       7.570   4.512  11.820  0.00  0.00    +0.000 A 
ATOM     17  C   UNL     1       6.530   3.619  11.627  0.00  0.00    +0.000 A 
ATOM     18  C   UNL     1       5.685   3.297  12.688  0.00  0.00    +0.000 A 
ATOM     19  C   UNL     1       5.881   3.891  13.937  0.00  0.00    +0.000 A 
ENDBRANCH  13  14
ENDBRANCH  11  12
ENDBRANCH   1  11
BRANCH   7  20
ATOM     20  C   UNL     1       2.091   8.992  18.428  0.00  0.00    +0.000 C 
BRANCH  20  21
ATOM     21  C   UNL     1       0.763   9.692  18.524  0.00  0.00    +0.000 A 
ATOM     22  C   UNL     1      -0.244   9.370  17.614  0.00  0.00    +0.000 A 
ATOM     23  C   UNL     1      -1.446  10.074  17.646  0.00  0.00    +0.000 A 
ATOM     24  C   UNL     1      -2.284  10.039  16.541  0.00  0.00    +0.000 A 
ATOM     25  C   UNL     1      -3.339  10.926  16.499  0.00  0.00    +0.000 A 
ATOM     26  C   UNL     1      -3.754  11.512  17.682  0.00  0.00    +0.000 A 
ATOM     27  N   UNL     1      -2.977  11.549  18.778  0.00  0.00    +0.000 NA
ATOM     28  C   UNL     1      -1.768  10.960  18.699  0.00  0.00    +0.000 A 
ATOM     29  C   UNL     1      -0.759  11.285  19.579  0.00  0.00    +0.000 A 
ATOM     30  C   UNL     1       0.504  10.699  19.460  0.00  0.00    +0.000 A 
ATOM     31  F   UNL     1       1.480  11.111  20.283  0.00  0.00    +0.000 F 
ENDBRANCH  20  21
ENDBRANCH   7  20
TORSDOF 5
ENDMDL
MODEL 5
REMARK VINA RESULT:      -9.0      2.478     10.817
REMARK  Name = 
REMARK  6 active torsions:
REMARK  status: ('A' for Active; 'I' for Inactive)
REMARK    1  A    between atoms: C_1  and  C_2
REMARK    2  A    between atoms: C_2  and  N_3
REMARK    3  A    between atoms: C_2  and  C_11
REMARK    4  A    between atoms: N_4  and  C_5
REMARK    5  A    between atoms: C_17  and  C_18
REMARK    6  A    between atoms: C_18  and  C_19
REMARK                            x       y       z     vdW  Elec       q    Type
REMARK                         _______ _______ _______ _____ _____    ______ ____
ROOT
ATOM      1  C   UNL     1       0.007   9.927  21.182  0.00  0.00    +0.000 A 
ATOM      2  C   UNL     1      -0.307  11.101  20.293  0.00  0.00    +0.000 A 
ATOM      3  C   UNL     1       0.250  11.130  19.081  0.00  0.00    +0.000 A 
ATOM      4  C   UNL     1       1.102  10.070  18.687  0.00  0.00    +0.000 A 
ATOM      5  N   UNL     1       1.768   9.894  17.566  0.00  0.00    +0.000 NA
ATOM      6  C   UNL     1       2.388   8.677  17.723  0.00  0.00    +0.000 A 
ATOM      7  C   UNL     1       2.091   8.108  18.924  0.00  0.00    +0.000 A 
ATOM      8  N   UNL     1       1.283   9.030  19.575  0.00  0.00    +0.000 N 
ATOM      9  N   UNL     1       0.767   8.920  20.837  0.00  0.00    +0.000 NA
ENDROOT
BRANCH   1  11
ATOM     10  C   UNL     1       0.455   9.252  23.538  0.00  0.00    +0.000 C 
ATOM     11  C   UNL     1      -0.546   9.917  22.602  0.00  0.00    +0.000 C 
BRANCH  11  12
ATOM     12  N   UNL     1      -0.784  11.295  23.051  0.00  0.00    +0.000 NA
ATOM     13  N   UNL     1      -1.998  11.570  23.159  0.00  0.00    +0.000 NA
BRANCH  13  14
ATOM     14  C   UNL     1      -2.187  12.927  23.523  0.00  0.00    +0.000 A 
ATOM     15  C   UNL     1      -3.440  13.306  24.044  0.00  0.00    +0.000 A 
ATOM     16  C   UNL     1      -3.681  14.637  24.394  0.00  0.00    +0.000 A 
ATOM     17  C   UNL     1      -2.695  15.597  24.239  0.00  0.00    +0.000 A 
ATOM     18  C   UNL     1      -1.441  15.232  23.752  0.00  0.00    +0.000 A 
ATOM     19  C   UNL     1      -1.189  13.902  23.405  0.00  0.00    +0.000 A 
ENDBRANCH  13  14
ENDBRANCH  11  12
ENDBRANCH   1  11
BRANCH   7  20
ATOM     20  C   UNL     1       2.417   6.742  19.450  0.00  0.00    +0.000 C 
BRANCH  20  21
ATOM     21  C   UNL     1       3.190   5.854  18.514  0.00  0.00    +0.000 A 
ATOM     22  C   UNL     1       4.516   6.167  18.218  0.00  0.00    +0.000 A 
ATOM     23  C   UNL     1       5.211   5.397  17.288  0.00  0.00    +0.000 A 
ATOM     24  C   UNL     1       6.364   5.905  16.708  0.00  0.00    +0.000 A 
ATOM     25  C   UNL     1       6.894   5.236  15.626  0.00  0.00    +0.000 A 
ATOM     26  C   UNL     1       6.520   3.921  15.415  0.00  0.00    +0.000 A 
ATOM     27  N   UNL     1       5.420   3.388  15.975  0.00  0.00    +0.000 NA
ATOM     28  C   UNL     1       4.693   4.181  16.786  0.00  0.00    +0.000 A 
ATOM     29  C   UNL     1       3.376   3.892  17.069  0.00  0.00    +0.000 A 
ATOM     30  C   UNL     1       2.620   4.746  17.878  0.00  0.00    +0.000 A 
ATOM     31  F   UNL     1       1.319   4.473  18.054  0.00  0.00    +0.000 F 
ENDBRANCH  20  21
ENDBRANCH   7  20
TORSDOF 5
ENDMDL
MODEL 6
REMARK VINA RESULT:      -8.8      3.617      5.933
REMARK  Name = 
REMARK  6 active torsions:
REMARK  status: ('A' for Active; 'I' for Inactive)
REMARK    1  A    between atoms: C_1  and  C_2
REMARK    2  A    between atoms: C_2  and  N_3
REMARK    3  A    between atoms: C_2  and  C_11
REMARK    4  A    between atoms: N_4  and  C_5
REMARK    5  A    between atoms: C_17  and  C_18
REMARK    6  A    between atoms: C_18  and  C_19
REMARK                            x       y       z     vdW  Elec       q    Type
REMARK                         _______ _______ _______ _____ _____    ______ ____
ROOT
ATOM      1  C   UNL     1       1.340   8.607  19.555  0.00  0.00    +0.000 A 
ATOM      2  C   UNL     1       1.538   7.954  20.898  0.00  0.00    +0.000 A 
ATOM      3  C   UNL     1       1.125   8.619  21.979  0.00  0.00    +0.000 A 
ATOM      4  C   UNL     1       0.527   9.892  21.819  0.00  0.00    +0.000 A 
ATOM      5  N   UNL     1       0.068  10.728  22.726  0.00  0.00    +0.000 NA
ATOM      6  C   UNL     1      -0.435  11.781  21.999  0.00  0.00    +0.000 A 
ATOM      7  C   UNL     1      -0.298  11.582  20.658  0.00  0.00    +0.000 A 
ATOM      8  N   UNL     1       0.366  10.368  20.535  0.00  0.00    +0.000 N 
ATOM      9  N   UNL     1       0.766   9.768  19.374  0.00  0.00    +0.000 NA
ENDROOT
BRANCH   1  11
ATOM     10  C   UNL     1       2.974   8.760  17.679  0.00  0.00    +0.000 C 
ATOM     11  C   UNL     1       1.883   7.907  18.314  0.00  0.00    +0.000 C 
BRANCH  11  12
ATOM     12  N   UNL     1       2.447   6.603  18.689  0.00  0.00    +0.000 NA
ATOM     13  N   UNL     1       2.151   5.694  17.884  0.00  0.00    +0.000 NA
BRANCH  13  14
ATOM     14  C   UNL     1       2.652   4.441  18.318  0.00  0.00    +0.000 A 
ATOM     15  C   UNL     1       2.577   3.352  17.428  0.00  0.00    +0.000 A 
ATOM     16  C   UNL     1       3.036   2.092  17.820  0.00  0.00    +0.000 A 
ATOM     17  C   UNL     1       3.574   1.897  19.081  0.00  0.00    +0.000 A 
ATOM     18  C   UNL     1       3.681   2.971  19.964  0.00  0.00    +0.000 A 
ATOM     19  C   UNL     1       3.230   4.236  19.577  0.00  0.00    +0.000 A 
ENDBRANCH  13  14
ENDBRANCH  11  12
ENDBRANCH   1  11
BRANCH   7  20
ATOM     20  C   UNL     1      -0.829  12.381  19.506  0.00  0.00    +0.000 C 
BRANCH  20  21
ATOM     21  C   UNL     1      -2.234  12.051  19.081  0.00  0.00    +0.000 A 
ATOM     22  C   UNL     1      -3.304  12.548  19.824  0.00  0.00    +0.000 A 
ATOM     23  C   UNL     1      -4.604  12.178  19.485  0.00  0.00    +0.000 A 
ATOM     24  C   UNL     1      -5.622  12.340  20.413  0.00  0.00    +0.000 A 
ATOM     25  C   UNL     1      -6.840  11.750  20.148  0.00  0.00    +0.000 A 
ATOM     26  C   UNL     1      -7.125  11.382  18.845  0.00  0.00    +0.000 A 
ATOM     27  N   UNL     1      -6.167  11.233  17.914  0.00  0.00    +0.000 NA
ATOM     28  C   UNL     1      -4.897  11.487  18.287  0.00  0.00    +0.000 A 
ATOM     29  C   UNL     1      -3.832  10.985  17.572  0.00  0.00    +0.000 A 
ATOM     30  C   UNL     1      -2.520  11.219  17.994  0.00  0.00    +0.000 A 
ATOM     31  F   UNL     1      -1.518  10.638  17.318  0.00  0.00    +0.000 F 
ENDBRANCH  20  21
ENDBRANCH   7  20
TORSDOF 5
ENDMDL
MODEL 7
REMARK VINA RESULT:      -8.7      3.000      5.956
REMARK  Name = 
REMARK  6 active torsions:
REMARK  status: ('A' for Active; 'I' for Inactive)
REMARK    1  A    between atoms: C_1  and  C_2
REMARK    2  A    between atoms: C_2  and  N_3
REMARK    3  A    between atoms: C_2  and  C_11
REMARK    4  A    between atoms: N_4  and  C_5
REMARK    5  A    between atoms: C_17  and  C_18
REMARK    6  A    between atoms: C_18  and  C_19
REMARK                            x       y       z     vdW  Elec       q    Type
REMARK                         _______ _______ _______ _____ _____    ______ ____
ROOT
ATOM      1  C   UNL     1       1.040   9.185  19.766  0.00  0.00    +0.000 A 
ATOM      2  C   UNL     1       1.213   8.267  20.947  0.00  0.00    +0.000 A 
ATOM      3  C   UNL     1       0.749   8.679  22.128  0.00  0.00    +0.000 A 
ATOM      4  C   UNL     1       0.122   9.946  22.220  0.00  0.00    +0.000 A 
ATOM      5  N   UNL     1      -0.387  10.561  23.265  0.00  0.00    +0.000 NA
ATOM      6  C   UNL     1      -0.895  11.734  22.759  0.00  0.00    +0.000 A 
ATOM      7  C   UNL     1      -0.710  11.826  21.412  0.00  0.00    +0.000 A 
ATOM      8  N   UNL     1      -0.011  10.679  21.060  0.00  0.00    +0.000 N 
ATOM      9  N   UNL     1       0.442  10.347  19.813  0.00  0.00    +0.000 NA
ENDROOT
BRANCH   1  11
ATOM     10  C   UNL     1       2.175  10.005  17.704  0.00  0.00    +0.000 C 
ATOM     11  C   UNL     1       1.641   8.774  18.426  0.00  0.00    +0.000 C 
BRANCH  11  12
ATOM     12  N   UNL     1       2.743   7.829  18.648  0.00  0.00    +0.000 NA
ATOM     13  N   UNL     1       3.362   7.546  17.599  0.00  0.00    +0.000 NA
BRANCH  13  14
ATOM     14  C   UNL     1       4.369   6.579  17.841  0.00  0.00    +0.000 A 
ATOM     15  C   UNL     1       5.626   6.763  17.233  0.00  0.00    +0.000 A 
ATOM     16  C   UNL     1       6.642   5.823  17.423  0.00  0.00    +0.000 A 
ATOM     17  C   UNL     1       6.431   4.704  18.212  0.00  0.00    +0.000 A 
ATOM     18  C   UNL     1       5.201   4.522  18.843  0.00  0.00    +0.000 A 
ATOM     19  C   UNL     1       4.181   5.461  18.663  0.00  0.00    +0.000 A 
ENDBRANCH  13  14
ENDBRANCH  11  12
ENDBRANCH   1  11
BRANCH   7  20
ATOM     20  C   UNL     1      -1.225  12.841  20.436  0.00  0.00    +0.000 C 
BRANCH  20  21
ATOM     21  C   UNL     1      -2.498  12.470  19.725  0.00  0.00    +0.000 A 
ATOM     22  C   UNL     1      -3.721  12.688  20.360  0.00  0.00    +0.000 A 
ATOM     23  C   UNL     1      -4.897  12.269  19.741  0.00  0.00    +0.000 A 
ATOM     24  C   UNL     1      -6.051  12.128  20.499  0.00  0.00    +0.000 A 
ATOM     25  C   UNL     1      -7.128  11.488  19.924  0.00  0.00    +0.000 A 
ATOM     26  C   UNL     1      -7.171  11.378  18.545  0.00  0.00    +0.000 A 
ATOM     27  N   UNL     1      -6.078  11.527  17.777  0.00  0.00    +0.000 NA
ATOM     28  C   UNL     1      -4.920  11.822  18.401  0.00  0.00    +0.000 A 
ATOM     29  C   UNL     1      -3.706  11.592  17.792  0.00  0.00    +0.000 A 
ATOM     30  C   UNL     1      -2.511  11.862  18.466  0.00  0.00    +0.000 A 
ATOM     31  F   UNL     1      -1.354  11.541  17.868  0.00  0.00    +0.000 F 
ENDBRANCH  20  21
ENDBRANCH   7  20
TORSDOF 5
ENDMDL
MODEL 8
REMARK VINA RESULT:      -8.7      1.251      1.749
REMARK  Name = 
REMARK  6 active torsions:
REMARK  status: ('A' for Active; 'I' for Inactive)
REMARK    1  A    between atoms: C_1  and  C_2
REMARK    2  A    between atoms: C_2  and  N_3
REMARK    3  A    between atoms: C_2  and  C_11
REMARK    4  A    between atoms: N_4  and  C_5
REMARK    5  A    between atoms: C_17  and  C_18
REMARK    6  A    between atoms: C_18  and  C_19
REMARK                            x       y       z     vdW  Elec       q    Type
REMARK                         _______ _______ _______ _____ _____    ______ ____
ROOT
ATOM      1  C   UNL     1       4.799   6.678  17.799  0.00  0.00    +0.000 A 
ATOM      2  C   UNL     1       4.735   5.393  18.582  0.00  0.00    +0.000 A 
ATOM      3  C   UNL     1       3.745   5.251  19.464  0.00  0.00    +0.000 A 
ATOM      4  C   UNL     1       2.808   6.301  19.625  0.00  0.00    +0.000 A 
ATOM      5  N   UNL     1       1.775   6.392  20.435  0.00  0.00    +0.000 NA
ATOM      6  C   UNL     1       1.206   7.606  20.129  0.00  0.00    +0.000 A 
ATOM      7  C   UNL     1       1.878   8.243  19.129  0.00  0.00    +0.000 A 
ATOM      8  N   UNL     1       2.949   7.413  18.823  0.00  0.00    +0.000 N 
ATOM      9  N   UNL     1       3.933   7.653  17.905  0.00  0.00    +0.000 NA
ENDROOT
BRANCH   1  11
ATOM     10  C   UNL     1       7.275   6.538  17.551  0.00  0.00    +0.000 C 
ATOM     11  C   UNL     1       5.972   6.899  16.850  0.00  0.00    +0.000 C 
BRANCH  11  12
ATOM     12  N   UNL     1       5.812   6.052  15.661  0.00  0.00    +0.000 NA
ATOM     13  N   UNL     1       6.892   5.567  15.259  0.00  0.00    +0.000 NA
BRANCH  13  14
ATOM     14  C   UNL     1       6.707   4.816  14.071  0.00  0.00    +0.000 A 
ATOM     15  C   UNL     1       7.632   4.992  13.024  0.00  0.00    +0.000 A 
ATOM     16  C   UNL     1       7.478   4.291  11.825  0.00  0.00    +0.000 A 
ATOM     17  C   UNL     1       6.420   3.414  11.651  0.00  0.00    +0.000 A 
ATOM     18  C   UNL     1       5.511   3.208  12.689  0.00  0.00    +0.000 A 
ATOM     19  C   UNL     1       5.663   3.900  13.893  0.00  0.00    +0.000 A 
ENDBRANCH  13  14
ENDBRANCH  11  12
ENDBRANCH   1  11
BRANCH   7  20
ATOM     20  C   UNL     1       1.533   9.496  18.383  0.00  0.00    +0.000 C 
BRANCH  20  21
ATOM     21  C   UNL     1       0.368  10.275  18.928  0.00  0.00    +0.000 A 
ATOM     22  C   UNL     1       0.493  10.915  20.161  0.00  0.00    +0.000 A 
ATOM     23  C   UNL     1      -0.609  11.568  20.708  0.00  0.00    +0.000 A 
ATOM     24  C   UNL     1      -0.619  11.868  22.063  0.00  0.00    +0.000 A 
ATOM     25  C   UNL     1      -1.805  12.289  22.625  0.00  0.00    +0.000 A 
ATOM     26  C   UNL     1      -2.796  12.773  21.788  0.00  0.00    +0.000 A 
ATOM     27  N   UNL     1      -2.809  12.519  20.468  0.00  0.00    +0.000 NA
ATOM     28  C   UNL     1      -1.793  11.789  19.968  0.00  0.00    +0.000 A 
ATOM     29  C   UNL     1      -1.913  11.136  18.761  0.00  0.00    +0.000 A 
ATOM     30  C   UNL     1      -0.867  10.347  18.274  0.00  0.00    +0.000 A 
ATOM     31  F   UNL     1      -1.061   9.660  17.138  0.00  0.00    +0.000 F 
ENDBRANCH  20  21
ENDBRANCH   7  20
TORSDOF 5
ENDMDL
MODEL 9
REMARK VINA RESULT:      -8.7      2.107      3.172
REMARK  Name = 
REMARK  6 active torsions:
REMARK  status: ('A' for Active; 'I' for Inactive)
REMARK    1  A    between atoms: C_1  and  C_2
REMARK    2  A    between atoms: C_2  and  N_3
REMARK    3  A    between atoms: C_2  and  C_11
REMARK    4  A    between atoms: N_4  and  C_5
REMARK    5  A    between atoms: C_17  and  C_18
REMARK    6  A    between atoms: C_18  and  C_19
REMARK                            x       y       z     vdW  Elec       q    Type
REMARK                         _______ _______ _______ _____ _____    ______ ____
ROOT
ATOM      1  C   UNL     1       4.351   6.857  17.639  0.00  0.00    +0.000 A 
ATOM      2  C   UNL     1       4.144   5.451  18.135  0.00  0.00    +0.000 A 
ATOM      3  C   UNL     1       3.194   5.248  19.049  0.00  0.00    +0.000 A 
ATOM      4  C   UNL     1       2.431   6.349  19.509  0.00  0.00    +0.000 A 
ATOM      5  N   UNL     1       1.470   6.394  20.406  0.00  0.00    +0.000 NA
ATOM      6  C   UNL     1       1.069   7.709  20.413  0.00  0.00    +0.000 A 
ATOM      7  C   UNL     1       1.770   8.457  19.516  0.00  0.00    +0.000 A 
ATOM      8  N   UNL     1       2.688   7.583  18.950  0.00  0.00    +0.000 N 
ATOM      9  N   UNL     1       3.644   7.889  18.022  0.00  0.00    +0.000 NA
ENDROOT
BRANCH   1  11
ATOM     10  C   UNL     1       6.826   6.965  17.371  0.00  0.00    +0.000 C 
ATOM     11  C   UNL     1       5.489   7.128  16.660  0.00  0.00    +0.000 C 
BRANCH  11  12
ATOM     12  N   UNL     1       5.417   6.177  15.543  0.00  0.00    +0.000 NA
ATOM     13  N   UNL     1       6.536   5.736  15.204  0.00  0.00    +0.000 NA
BRANCH  13  14
ATOM     14  C   UNL     1       6.432   4.880  14.080  0.00  0.00    +0.000 A 
ATOM     15  C   UNL     1       7.462   4.917  13.119  0.00  0.00    +0.000 A 
ATOM     16  C   UNL     1       7.392   4.109  11.982  0.00  0.00    +0.000 A 
ATOM     17  C   UNL     1       6.315   3.259  11.786  0.00  0.00    +0.000 A 
ATOM     18  C   UNL     1       5.302   3.190  12.741  0.00  0.00    +0.000 A 
ATOM     19  C   UNL     1       5.368   3.991  13.884  0.00  0.00    +0.000 A 
ENDBRANCH  13  14
ENDBRANCH  11  12
ENDBRANCH   1  11
BRANCH   7  20
ATOM     20  C   UNL     1       1.571   9.879  19.084  0.00  0.00    +0.000 C 
BRANCH  20  21
ATOM     21  C   UNL     1       0.145  10.289  18.837  0.00  0.00    +0.000 A 
ATOM     22  C   UNL     1      -0.541   9.746  17.751  0.00  0.00    +0.000 A 
ATOM     23  C   UNL     1      -1.834  10.184  17.469  0.00  0.00    +0.000 A 
ATOM     24  C   UNL     1      -2.371   9.953  16.211  0.00  0.00    +0.000 A 
ATOM     25  C   UNL     1      -3.542  10.600  15.879  0.00  0.00    +0.000 A 
ATOM     26  C   UNL     1      -4.326  11.110  16.898  0.00  0.00    +0.000 A 
ATOM     27  N   UNL     1      -3.845  11.330  18.134  0.00  0.00    +0.000 NA
ATOM     28  C   UNL     1      -2.558  11.004  18.363  0.00  0.00    +0.000 A 
ATOM     29  C   UNL     1      -1.864  11.550  19.421  0.00  0.00    +0.000 A 
ATOM     30  C   UNL     1      -0.517  11.238  19.623  0.00  0.00    +0.000 A 
ATOM     31  F   UNL     1       0.142  11.860  20.612  0.00  0.00    +0.000 F 
ENDBRANCH  20  21
ENDBRANCH   7  20
TORSDOF 5
ENDMDL
