MODEL 1
REMARK VINA RESULT:      -8.1      0.000      0.000
REMARK  Name = 
REMARK  11 active torsions:
REMARK  status: ('A' for Active; 'I' for Inactive)
REMARK    1  A    between atoms: C_1  and  C_2
REMARK    2  A    between atoms: C_2  and  C_3
REMARK    3  A    between atoms: C_2  and  C_4
REMARK    4  A    between atoms: C_4  and  N_5
REMARK    5  A    between atoms: N_5  and  C_6
REMARK    6  A    between atoms: N_5  and  C_23
REMARK    7  A    between atoms: C_6  and  C_7
REMARK    8  A    between atoms: N_11  and  C_12
REMARK    9  A    between atoms: C_23  and  C_24
REMARK   10  A    between atoms: C_24  and  C_25
REMARK   11  A    between atoms: C_24  and  C_26
REMARK                            x       y       z     vdW  Elec       q    Type
REMARK                         _______ _______ _______ _____ _____    ______ ____
ROOT
ATOM      1  C   UNL     1       3.457   4.637  18.472  0.00  0.00    +0.000 A 
ATOM      2  C   UNL     1       3.057   3.664  19.368  0.00  0.00    +0.000 A 
ATOM      3  S   UNL     1       2.411   4.377  20.785  0.00  0.00    +0.000 S 
ATOM      4  C   UNL     1       2.569   5.938  20.070  0.00  0.00    +0.000 A 
ATOM      5  N   UNL     1       2.036   7.012  20.701  0.00  0.00    +0.000 N 
ATOM      6  N   UNL     1       3.203   5.933  18.912  0.00  0.00    +0.000 NA
ATOM      7  H   UNL     1       1.595   6.844  21.604  0.00  0.00    +0.000 HD
ENDROOT
BRANCH   5   8
ATOM      8  C   UNL     1       1.586   8.207  20.081  0.00  0.00    +0.000 A 
ATOM      9  C   UNL     1       1.886   8.467  18.733  0.00  0.00    +0.000 A 
ATOM     10  C   UNL     1       1.551   9.679  18.137  0.00  0.00    +0.000 A 
ATOM     11  C   UNL     1       0.898  10.652  18.876  0.00  0.00    +0.000 A 
ATOM     12  C   UNL     1       0.522  10.413  20.208  0.00  0.00    +0.000 A 
ATOM     13  C   UNL     1      -0.203  11.385  20.918  0.00  0.00    +0.000 A 
ATOM     14  C   UNL     1      -0.627  11.150  22.224  0.00  0.00    +0.000 A 
ATOM     15  C   UNL     1      -0.297   9.958  22.855  0.00  0.00    +0.000 A 
ATOM     16  C   UNL     1       0.459   9.000  22.175  0.00  0.00    +0.000 A 
ATOM     17  C   UNL     1       0.864   9.181  20.830  0.00  0.00    +0.000 A 
ENDBRANCH   5   8
BRANCH   1  18
ATOM     18  C   UNL     1       3.940   4.416  17.053  0.00  0.00    +0.000 C 
BRANCH  18  19
ATOM     19  N   UNL     1       5.364   4.720  16.758  0.00  0.00    +0.000 NA
BRANCH  19  20
ATOM     20  C   UNL     1       5.961   3.919  15.675  0.00  0.00    +0.000 C 
BRANCH  20  22
ATOM     21  C   UNL     1       7.424   5.189  13.985  0.00  0.00    +0.000 C 
ATOM     22  C   UNL     1       6.056   4.563  14.266  0.00  0.00    +0.000 C 
ATOM     23  C   UNL     1       5.775   3.506  13.186  0.00  0.00    +0.000 C 
ENDBRANCH  20  22
ENDBRANCH  19  20
BRANCH  19  24
ATOM     24  C   UNL     1       6.169   4.678  17.999  0.00  0.00    +0.000 C 
BRANCH  24  25
ATOM     25  C   UNL     1       7.464   5.538  18.060  0.00  0.00    +0.000 C 
ATOM     26  C   UNL     1       7.326   6.935  17.444  0.00  0.00    +0.000 C 
ATOM     27  C   UNL     1       7.898   5.680  19.525  0.00  0.00    +0.000 C 
ENDBRANCH  24  25
ENDBRANCH  19  24
ENDBRANCH  18  19
ENDBRANCH   1  18
TORSDOF 7
ENDMDL
MODEL 2
REMARK VINA RESULT:      -8.1      0.743      2.735
REMARK  Name = 
REMARK  11 active torsions:
REMARK  status: ('A' for Active; 'I' for Inactive)
REMARK    1  A    between atoms: C_1  and  C_2
REMARK    2  A    between atoms: C_2  and  C_3
REMARK    3  A    between atoms: C_2  and  C_4
REMARK    4  A    between atoms: C_4  and  N_5
REMARK    5  A    between atoms: N_5  and  C_6
REMARK    6  A    between atoms: N_5  and  C_23
REMARK    7  A    between atoms: C_6  and  C_7
REMARK    8  A    between atoms: N_11  and  C_12
REMARK    9  A    between atoms: C_23  and  C_24
REMARK   10  A    between atoms: C_24  and  C_25
REMARK   11  A    between atoms: C_24  and  C_26
REMARK                            x       y       z     vdW  Elec       q    Type
REMARK                         _______ _______ _______ _____ _____    ______ ____
ROOT
ATOM      1  C   UNL     1       3.907   4.395  18.086  0.00  0.00    +0.000 A 
ATOM      2  C   UNL     1       3.531   3.374  18.938  0.00  0.00    +0.000 A 
ATOM      3  S   UNL     1       2.838   4.006  20.370  0.00  0.00    +0.000 S 
ATOM      4  C   UNL     1       2.947   5.599  19.720  0.00  0.00    +0.000 A 
ATOM      5  N   UNL     1       2.365   6.627  20.383  0.00  0.00    +0.000 N 
ATOM      6  N   UNL     1       3.598   5.663  18.572  0.00  0.00    +0.000 NA
ATOM      7  H   UNL     1       1.918   6.407  21.272  0.00  0.00    +0.000 HD
ENDROOT
BRANCH   5   8
ATOM      8  C   UNL     1       1.880   7.828  19.803  0.00  0.00    +0.000 A 
ATOM      9  C   UNL     1       2.151   8.130  18.457  0.00  0.00    +0.000 A 
ATOM     10  C   UNL     1       1.781   9.349  17.899  0.00  0.00    +0.000 A 
ATOM     11  C   UNL     1       1.120  10.289  18.675  0.00  0.00    +0.000 A 
ATOM     12  C   UNL     1       0.771  10.006  20.006  0.00  0.00    +0.000 A 
ATOM     13  C   UNL     1       0.038  10.942  20.753  0.00  0.00    +0.000 A 
ATOM     14  C   UNL     1      -0.359  10.664  22.060  0.00  0.00    +0.000 A 
ATOM     15  C   UNL     1       0.006   9.463  22.652  0.00  0.00    +0.000 A 
ATOM     16  C   UNL     1       0.772   8.540  21.936  0.00  0.00    +0.000 A 
ATOM     17  C   UNL     1       1.150   8.766  20.590  0.00  0.00    +0.000 A 
ENDBRANCH   5   8
BRANCH   1  18
ATOM     18  C   UNL     1       4.418   4.249  16.667  0.00  0.00    +0.000 C 
BRANCH  18  19
ATOM     19  N   UNL     1       5.669   4.967  16.311  0.00  0.00    +0.000 NA
BRANCH  19  20
ATOM     20  C   UNL     1       5.942   6.176  17.107  0.00  0.00    +0.000 C 
BRANCH  20  22
ATOM     21  C   UNL     1       7.750   7.946  17.558  0.00  0.00    +0.000 C 
ATOM     22  C   UNL     1       7.412   6.455  17.520  0.00  0.00    +0.000 C 
ATOM     23  C   UNL     1       7.688   5.858  18.910  0.00  0.00    +0.000 C 
ENDBRANCH  20  22
ENDBRANCH  19  20
BRANCH  19  24
ATOM     24  C   UNL     1       5.718   5.228  14.855  0.00  0.00    +0.000 C 
BRANCH  24  25
ATOM     25  C   UNL     1       6.594   4.292  13.974  0.00  0.00    +0.000 C 
ATOM     26  C   UNL     1       5.824   3.553  12.874  0.00  0.00    +0.000 C 
ATOM     27  C   UNL     1       7.712   5.121  13.328  0.00  0.00    +0.000 C 
ENDBRANCH  24  25
ENDBRANCH  19  24
ENDBRANCH  18  19
ENDBRANCH   1  18
TORSDOF 7
ENDMDL
MODEL 3
REMARK VINA RESULT:      -8.0      0.775      2.632
REMARK  Name = 
REMARK  11 active torsions:
REMARK  status: ('A' for Active; 'I' for Inactive)
REMARK    1  A    between atoms: C_1  and  C_2
REMARK    2  A    between atoms: C_2  and  C_3
REMARK    3  A    between atoms: C_2  and  C_4
REMARK    4  A    between atoms: C_4  and  N_5
REMARK    5  A    between atoms: N_5  and  C_6
REMARK    6  A    between atoms: N_5  and  C_23
REMARK    7  A    between atoms: C_6  and  C_7
REMARK    8  A    between atoms: N_11  and  C_12
REMARK    9  A    between atoms: C_23  and  C_24
REMARK   10  A    between atoms: C_24  and  C_25
REMARK   11  A    between atoms: C_24  and  C_26
REMARK                            x       y       z     vdW  Elec       q    Type
REMARK                         _______ _______ _______ _____ _____    ______ ____
ROOT
ATOM      1  C   UNL     1       3.374   5.400  18.540  0.00  0.00    +0.000 A 
ATOM      2  C   UNL     1       2.906   4.300  19.233  0.00  0.00    +0.000 A 
ATOM      3  S   UNL     1       2.048   4.787  20.632  0.00  0.00    +0.000 S 
ATOM      4  C   UNL     1       2.224   6.437  20.164  0.00  0.00    +0.000 A 
ATOM      5  N   UNL     1       1.563   7.396  20.857  0.00  0.00    +0.000 N 
ATOM      6  N   UNL     1       3.004   6.614  19.113  0.00  0.00    +0.000 NA
ATOM      7  H   UNL     1       1.016   7.090  21.660  0.00  0.00    +0.000 HD
ENDROOT
BRANCH   5   8
ATOM      8  C   UNL     1       1.143   8.653  20.349  0.00  0.00    +0.000 A 
ATOM      9  C   UNL     1       1.472   9.039  19.038  0.00  0.00    +0.000 A 
ATOM     10  C   UNL     1       1.166  10.308  18.558  0.00  0.00    +0.000 A 
ATOM     11  C   UNL     1       0.513  11.216  19.378  0.00  0.00    +0.000 A 
ATOM     12  C   UNL     1       0.108  10.853  20.673  0.00  0.00    +0.000 A 
ATOM     13  C   UNL     1      -0.617  11.762  21.462  0.00  0.00    +0.000 A 
ATOM     14  C   UNL     1      -1.069  11.408  22.731  0.00  0.00    +0.000 A 
ATOM     15  C   UNL     1      -0.768  10.154  23.247  0.00  0.00    +0.000 A 
ATOM     16  C   UNL     1      -0.013   9.255  22.491  0.00  0.00    +0.000 A 
ATOM     17  C   UNL     1       0.421   9.560  21.178  0.00  0.00    +0.000 A 
ENDBRANCH   5   8
BRANCH   1  18
ATOM     18  C   UNL     1       4.048   5.395  17.183  0.00  0.00    +0.000 C 
BRANCH  18  19
ATOM     19  N   UNL     1       5.533   5.365  17.155  0.00  0.00    +0.000 NA
BRANCH  19  20
ATOM     20  C   UNL     1       6.181   6.680  17.015  0.00  0.00    +0.000 C 
BRANCH  20  22
ATOM     21  C   UNL     1       7.996   8.305  17.836  0.00  0.00    +0.000 C 
ATOM     22  C   UNL     1       7.617   6.845  17.579  0.00  0.00    +0.000 C 
ATOM     23  C   UNL     1       7.754   6.069  18.899  0.00  0.00    +0.000 C 
ENDBRANCH  20  22
ENDBRANCH  19  20
BRANCH  19  24
ATOM     24  C   UNL     1       6.012   4.392  16.148  0.00  0.00    +0.000 C 
BRANCH  24  25
ATOM     25  C   UNL     1       6.023   4.829  14.655  0.00  0.00    +0.000 C 
ATOM     26  C   UNL     1       7.401   5.236  14.124  0.00  0.00    +0.000 C 
ATOM     27  C   UNL     1       5.477   3.681  13.796  0.00  0.00    +0.000 C 
ENDBRANCH  24  25
ENDBRANCH  19  24
ENDBRANCH  18  19
ENDBRANCH   1  18
TORSDOF 7
ENDMDL
MODEL 4
REMARK VINA RESULT:      -7.9      2.953      8.731
REMARK  Name = 
REMARK  11 active torsions:
REMARK  status: ('A' for Active; 'I' for Inactive)
REMARK    1  A    between atoms: C_1  and  C_2
REMARK    2  A    between atoms: C_2  and  C_3
REMARK    3  A    between atoms: C_2  and  C_4
REMARK    4  A    between atoms: C_4  and  N_5
REMARK    5  A    between atoms: N_5  and  C_6
REMARK    6  A    between atoms: N_5  and  C_23
REMARK    7  A    between atoms: C_6  and  C_7
REMARK    8  A    between atoms: N_11  and  C_12
REMARK    9  A    between atoms: C_23  and  C_24
REMARK   10  A    between atoms: C_24  and  C_25
REMARK   11  A    between atoms: C_24  and  C_26
REMARK                            x       y       z     vdW  Elec       q    Type
REMARK                         _______ _______ _______ _____ _____    ______ ____
ROOT
ATOM      1  C   UNL     1       0.602  10.164  19.939  0.00  0.00    +0.000 A 
ATOM      2  C   UNL     1       0.830  10.524  21.253  0.00  0.00    +0.000 A 
ATOM      3  S   UNL     1       1.321   9.167  22.175  0.00  0.00    +0.000 S 
ATOM      4  C   UNL     1       1.338   8.203  20.746  0.00  0.00    +0.000 A 
ATOM      5  N   UNL     1       1.838   6.945  20.802  0.00  0.00    +0.000 N 
ATOM      6  N   UNL     1       0.862   8.820  19.680  0.00  0.00    +0.000 NA
ATOM      7  H   UNL     1       2.147   6.612  21.714  0.00  0.00    +0.000 HD
ENDROOT
BRANCH   5   8
ATOM      8  C   UNL     1       2.426   6.231  19.725  0.00  0.00    +0.000 A 
ATOM      9  C   UNL     1       3.403   6.837  18.916  0.00  0.00    +0.000 A 
ATOM     10  C   UNL     1       3.911   6.197  17.791  0.00  0.00    +0.000 A 
ATOM     11  C   UNL     1       3.460   4.929  17.457  0.00  0.00    +0.000 A 
ATOM     12  C   UNL     1       2.532   4.259  18.270  0.00  0.00    +0.000 A 
ATOM     13  C   UNL     1       2.141   2.947  17.955  0.00  0.00    +0.000 A 
ATOM     14  C   UNL     1       1.258   2.246  18.773  0.00  0.00    +0.000 A 
ATOM     15  C   UNL     1       0.719   2.860  19.896  0.00  0.00    +0.000 A 
ATOM     16  C   UNL     1       1.066   4.179  20.199  0.00  0.00    +0.000 A 
ATOM     17  C   UNL     1       1.999   4.906  19.420  0.00  0.00    +0.000 A 
ENDBRANCH   5   8
BRANCH   1  18
ATOM     18  C   UNL     1       0.299  11.097  18.785  0.00  0.00    +0.000 C 
BRANCH  18  19
ATOM     19  N   UNL     1      -1.119  11.488  18.573  0.00  0.00    +0.000 NA
BRANCH  19  20
ATOM     20  C   UNL     1      -1.567  12.654  19.352  0.00  0.00    +0.000 C 
BRANCH  20  22
ATOM     21  C   UNL     1      -1.824  12.860  21.901  0.00  0.00    +0.000 C 
ATOM     22  C   UNL     1      -2.465  12.396  20.592  0.00  0.00    +0.000 C 
ATOM     23  C   UNL     1      -3.810  13.121  20.425  0.00  0.00    +0.000 C 
ENDBRANCH  20  22
ENDBRANCH  19  20
BRANCH  19  24
ATOM     24  C   UNL     1      -2.009  10.318  18.747  0.00  0.00    +0.000 C 
BRANCH  24  25
ATOM     25  C   UNL     1      -3.007   9.981  17.602  0.00  0.00    +0.000 C 
ATOM     26  C   UNL     1      -4.369  10.672  17.723  0.00  0.00    +0.000 C 
ATOM     27  C   UNL     1      -2.371  10.365  16.260  0.00  0.00    +0.000 C 
ENDBRANCH  24  25
ENDBRANCH  19  24
ENDBRANCH  18  19
ENDBRANCH   1  18
TORSDOF 7
ENDMDL
MODEL 5
REMARK VINA RESULT:      -7.8      2.945      8.267
REMARK  Name = 
REMARK  11 active torsions:
REMARK  status: ('A' for Active; 'I' for Inactive)
REMARK    1  A    between atoms: C_1  and  C_2
REMARK    2  A    between atoms: C_2  and  C_3
REMARK    3  A    between atoms: C_2  and  C_4
REMARK    4  A    between atoms: C_4  and  N_5
REMARK    5  A    between atoms: N_5  and  C_6
REMARK    6  A    between atoms: N_5  and  C_23
REMARK    7  A    between atoms: C_6  and  C_7
REMARK    8  A    between atoms: N_11  and  C_12
REMARK    9  A    between atoms: C_23  and  C_24
REMARK   10  A    between atoms: C_24  and  C_25
REMARK   11  A    between atoms: C_24  and  C_26
REMARK                            x       y       z     vdW  Elec       q    Type
REMARK                         _______ _______ _______ _____ _____    ______ ____
ROOT
ATOM      1  C   UNL     1       0.561  10.152  19.818  0.00  0.00    +0.000 A 
ATOM      2  C   UNL     1       0.794  10.552  21.120  0.00  0.00    +0.000 A 
ATOM      3  S   UNL     1       1.310   9.228  22.076  0.00  0.00    +0.000 S 
ATOM      4  C   UNL     1       1.331   8.225  20.673  0.00  0.00    +0.000 A 
ATOM      5  N   UNL     1       1.849   6.976  20.760  0.00  0.00    +0.000 N 
ATOM      6  N   UNL     1       0.838   8.806  19.595  0.00  0.00    +0.000 NA
ATOM      7  H   UNL     1       2.169   6.673  21.679  0.00  0.00    +0.000 HD
ENDROOT
BRANCH   5   8
ATOM      8  C   UNL     1       2.438   6.241  19.699  0.00  0.00    +0.000 A 
ATOM      9  C   UNL     1       3.424   6.828  18.887  0.00  0.00    +0.000 A 
ATOM     10  C   UNL     1       3.935   6.165  17.775  0.00  0.00    +0.000 A 
ATOM     11  C   UNL     1       3.479   4.895  17.460  0.00  0.00    +0.000 A 
ATOM     12  C   UNL     1       2.542   4.244  18.279  0.00  0.00    +0.000 A 
ATOM     13  C   UNL     1       2.145   2.929  17.984  0.00  0.00    +0.000 A 
ATOM     14  C   UNL     1       1.252   2.247  18.808  0.00  0.00    +0.000 A 
ATOM     15  C   UNL     1       0.711   2.883  19.917  0.00  0.00    +0.000 A 
ATOM     16  C   UNL     1       1.064   4.205  20.200  0.00  0.00    +0.000 A 
ATOM     17  C   UNL     1       2.006   4.913  19.414  0.00  0.00    +0.000 A 
ENDBRANCH   5   8
BRANCH   1  18
ATOM     18  C   UNL     1       0.236  11.049  18.640  0.00  0.00    +0.000 C 
BRANCH  18  19
ATOM     19  N   UNL     1      -0.800  12.095  18.840  0.00  0.00    +0.000 NA
BRANCH  19  20
ATOM     20  C   UNL     1      -2.132  11.763  18.307  0.00  0.00    +0.000 C 
BRANCH  20  22
ATOM     21  C   UNL     1      -3.267   9.518  17.777  0.00  0.00    +0.000 C 
ATOM     22  C   UNL     1      -2.243  10.562  17.329  0.00  0.00    +0.000 C 
ATOM     23  C   UNL     1      -2.638  11.061  15.929  0.00  0.00    +0.000 C 
ENDBRANCH  20  22
ENDBRANCH  19  20
BRANCH  19  24
ATOM     24  C   UNL     1      -0.310  13.405  18.356  0.00  0.00    +0.000 C 
BRANCH  24  25
ATOM     25  C   UNL     1       0.064  14.482  19.415  0.00  0.00    +0.000 C 
ATOM     26  C   UNL     1      -0.411  15.899  19.074  0.00  0.00    +0.000 C 
ATOM     27  C   UNL     1      -0.525  14.072  20.771  0.00  0.00    +0.000 C 
ENDBRANCH  24  25
ENDBRANCH  19  24
ENDBRANCH  18  19
ENDBRANCH   1  18
TORSDOF 7
ENDMDL
MODEL 6
REMARK VINA RESULT:      -7.7      3.076      8.581
REMARK  Name = 
REMARK  11 active torsions:
REMARK  status: ('A' for Active; 'I' for Inactive)
REMARK    1  A    between atoms: C_1  and  C_2
REMARK    2  A    between atoms: C_2  and  C_3
REMARK    3  A    between atoms: C_2  and  C_4
REMARK    4  A    between atoms: C_4  and  N_5
REMARK    5  A    between atoms: N_5  and  C_6
REMARK    6  A    between atoms: N_5  and  C_23
REMARK    7  A    between atoms: C_6  and  C_7
REMARK    8  A    between atoms: N_11  and  C_12
REMARK    9  A    between atoms: C_23  and  C_24
REMARK   10  A    between atoms: C_24  and  C_25
REMARK   11  A    between atoms: C_24  and  C_26
REMARK                            x       y       z     vdW  Elec       q    Type
REMARK                         _______ _______ _______ _____ _____    ______ ____
ROOT
ATOM      1  C   UNL     1       0.349  10.324  20.084  0.00  0.00    +0.000 A 
ATOM      2  C   UNL     1       0.606  10.682  21.394  0.00  0.00    +0.000 A 
ATOM      3  S   UNL     1       1.169   9.334  22.288  0.00  0.00    +0.000 S 
ATOM      4  C   UNL     1       1.173   8.382  20.850  0.00  0.00    +0.000 A 
ATOM      5  N   UNL     1       1.715   7.141  20.879  0.00  0.00    +0.000 N 
ATOM      6  N   UNL     1       0.644   8.992  19.805  0.00  0.00    +0.000 NA
ATOM      7  H   UNL     1       2.063   6.811  21.778  0.00  0.00    +0.000 HD
ENDROOT
BRANCH   5   8
ATOM      8  C   UNL     1       2.291   6.455  19.778  0.00  0.00    +0.000 A 
ATOM      9  C   UNL     1       3.155   7.125  18.894  0.00  0.00    +0.000 A 
ATOM     10  C   UNL     1       3.643   6.504  17.749  0.00  0.00    +0.000 A 
ATOM     11  C   UNL     1       3.286   5.194  17.470  0.00  0.00    +0.000 A 
ATOM     12  C   UNL     1       2.477   4.465  18.357  0.00  0.00    +0.000 A 
ATOM     13  C   UNL     1       2.185   3.116  18.094  0.00  0.00    +0.000 A 
ATOM     14  C   UNL     1       1.423   2.361  18.983  0.00  0.00    +0.000 A 
ATOM     15  C   UNL     1       0.908   2.953  20.128  0.00  0.00    +0.000 A 
ATOM     16  C   UNL     1       1.155   4.304  20.382  0.00  0.00    +0.000 A 
ATOM     17  C   UNL     1       1.966   5.091  19.528  0.00  0.00    +0.000 A 
ENDBRANCH   5   8
BRANCH   1  18
ATOM     18  C   UNL     1      -0.020  11.257  18.948  0.00  0.00    +0.000 C 
BRANCH  18  19
ATOM     19  N   UNL     1      -1.461  11.554  18.746  0.00  0.00    +0.000 NA
BRANCH  19  20
ATOM     20  C   UNL     1      -1.884  11.666  17.339  0.00  0.00    +0.000 C 
BRANCH  20  22
ATOM     21  C   UNL     1      -3.291   9.573  17.837  0.00  0.00    +0.000 C 
ATOM     22  C   UNL     1      -2.804  10.553  16.768  0.00  0.00    +0.000 C 
ATOM     23  C   UNL     1      -4.031  11.184  16.091  0.00  0.00    +0.000 C 
ENDBRANCH  20  22
ENDBRANCH  19  20
BRANCH  19  24
ATOM     24  C   UNL     1      -1.864  12.730  19.549  0.00  0.00    +0.000 C 
BRANCH  24  25
ATOM     25  C   UNL     1      -2.913  12.520  20.679  0.00  0.00    +0.000 C 
ATOM     26  C   UNL     1      -2.653  13.339  21.947  0.00  0.00    +0.000 C 
ATOM     27  C   UNL     1      -4.305  12.871  20.136  0.00  0.00    +0.000 C 
ENDBRANCH  24  25
ENDBRANCH  19  24
ENDBRANCH  18  19
ENDBRANCH   1  18
TORSDOF 7
ENDMDL
MODEL 7
REMARK VINA RESULT:      -7.6      1.105      1.422
REMARK  Name = 
REMARK  11 active torsions:
REMARK  status: ('A' for Active; 'I' for Inactive)
REMARK    1  A    between atoms: C_1  and  C_2
REMARK    2  A    between atoms: C_2  and  C_3
REMARK    3  A    between atoms: C_2  and  C_4
REMARK    4  A    between atoms: C_4  and  N_5
REMARK    5  A    between atoms: N_5  and  C_6
REMARK    6  A    between atoms: N_5  and  C_23
REMARK    7  A    between atoms: C_6  and  C_7
REMARK    8  A    between atoms: N_11  and  C_12
REMARK    9  A    between atoms: C_23  and  C_24
REMARK   10  A    between atoms: C_24  and  C_25
REMARK   11  A    between atoms: C_24  and  C_26
REMARK                            x       y       z     vdW  Elec       q    Type
REMARK                         _______ _______ _______ _____ _____    ______ ____
ROOT
ATOM      1  C   UNL     1       4.919   4.157  18.670  0.00  0.00    +0.000 A 
ATOM      2  C   UNL     1       4.328   3.051  19.252  0.00  0.00    +0.000 A 
ATOM      3  S   UNL     1       3.071   3.526  20.313  0.00  0.00    +0.000 S 
ATOM      4  C   UNL     1       3.287   5.168  19.833  0.00  0.00    +0.000 A 
ATOM      5  N   UNL     1       2.400   6.103  20.252  0.00  0.00    +0.000 N 
ATOM      6  N   UNL     1       4.331   5.362  19.048  0.00  0.00    +0.000 NA
ATOM      7  H   UNL     1       1.659   5.788  20.876  0.00  0.00    +0.000 HD
ENDROOT
BRANCH   5   8
ATOM      8  C   UNL     1       2.081   7.312  19.581  0.00  0.00    +0.000 A 
ATOM      9  C   UNL     1       2.471   7.510  18.245  0.00  0.00    +0.000 A 
ATOM     10  C   UNL     1       2.266   8.727  17.603  0.00  0.00    +0.000 A 
ATOM     11  C   UNL     1       1.654   9.769  18.282  0.00  0.00    +0.000 A 
ATOM     12  C   UNL     1       1.190   9.597  19.597  0.00  0.00    +0.000 A 
ATOM     13  C   UNL     1       0.509  10.642  20.243  0.00  0.00    +0.000 A 
ATOM     14  C   UNL     1      -0.000  10.478  21.529  0.00  0.00    +0.000 A 
ATOM     15  C   UNL     1       0.200   9.281  22.205  0.00  0.00    +0.000 A 
ATOM     16  C   UNL     1       0.912   8.248  21.591  0.00  0.00    +0.000 A 
ATOM     17  C   UNL     1       1.401   8.360  20.266  0.00  0.00    +0.000 A 
ENDBRANCH   5   8
BRANCH   1  18
ATOM     18  C   UNL     1       5.962   4.152  17.571  0.00  0.00    +0.000 C 
BRANCH  18  19
ATOM     19  N   UNL     1       5.997   5.321  16.655  0.00  0.00    +0.000 NA
BRANCH  19  20
ATOM     20  C   UNL     1       6.938   5.201  15.528  0.00  0.00    +0.000 C 
BRANCH  20  22
ATOM     21  C   UNL     1       5.055   4.164  14.118  0.00  0.00    +0.000 C 
ATOM     22  C   UNL     1       6.562   4.238  14.369  0.00  0.00    +0.000 C 
ATOM     23  C   UNL     1       7.250   4.687  13.070  0.00  0.00    +0.000 C 
ENDBRANCH  20  22
ENDBRANCH  19  20
BRANCH  19  24
ATOM     24  C   UNL     1       6.193   6.572  17.421  0.00  0.00    +0.000 C 
BRANCH  24  25
ATOM     25  C   UNL     1       7.651   7.049  17.682  0.00  0.00    +0.000 C 
ATOM     26  C   UNL     1       7.826   8.571  17.701  0.00  0.00    +0.000 C 
ATOM     27  C   UNL     1       8.128   6.476  19.023  0.00  0.00    +0.000 C 
ENDBRANCH  24  25
ENDBRANCH  19  24
ENDBRANCH  18  19
ENDBRANCH   1  18
TORSDOF 7
ENDMDL
MODEL 8
REMARK VINA RESULT:      -7.6      2.930      8.520
REMARK  Name = 
REMARK  11 active torsions:
REMARK  status: ('A' for Active; 'I' for Inactive)
REMARK    1  A    between atoms: C_1  and  C_2
REMARK    2  A    between atoms: C_2  and  C_3
REMARK    3  A    between atoms: C_2  and  C_4
REMARK    4  A    between atoms: C_4  and  N_5
REMARK    5  A    between atoms: N_5  and  C_6
REMARK    6  A    between atoms: N_5  and  C_23
REMARK    7  A    between atoms: C_6  and  C_7
REMARK    8  A    between atoms: N_11  and  C_12
REMARK    9  A    between atoms: C_23  and  C_24
REMARK   10  A    between atoms: C_24  and  C_25
REMARK   11  A    between atoms: C_24  and  C_26
REMARK                            x       y       z     vdW  Elec       q    Type
REMARK                         _______ _______ _______ _____ _____    ______ ____
ROOT
ATOM      1  C   UNL     1       0.759  10.215  19.881  0.00  0.00    +0.000 A 
ATOM      2  C   UNL     1       0.905  10.535  21.217  0.00  0.00    +0.000 A 
ATOM      3  S   UNL     1       1.262   9.136  22.138  0.00  0.00    +0.000 S 
ATOM      4  C   UNL     1       1.342   8.204  20.689  0.00  0.00    +0.000 A 
ATOM      5  N   UNL     1       1.779   6.923  20.749  0.00  0.00    +0.000 N 
ATOM      6  N   UNL     1       0.976   8.867  19.608  0.00  0.00    +0.000 NA
ATOM      7  H   UNL     1       2.003   6.556  21.673  0.00  0.00    +0.000 HD
ENDROOT
BRANCH   5   8
ATOM      8  C   UNL     1       2.412   6.206  19.701  0.00  0.00    +0.000 A 
ATOM      9  C   UNL     1       3.410   6.817  18.921  0.00  0.00    +0.000 A 
ATOM     10  C   UNL     1       3.964   6.172  17.821  0.00  0.00    +0.000 A 
ATOM     11  C   UNL     1       3.540   4.896  17.484  0.00  0.00    +0.000 A 
ATOM     12  C   UNL     1       2.592   4.222  18.271  0.00  0.00    +0.000 A 
ATOM     13  C   UNL     1       2.228   2.902  17.956  0.00  0.00    +0.000 A 
ATOM     14  C   UNL     1       1.325   2.198  18.749  0.00  0.00    +0.000 A 
ATOM     15  C   UNL     1       0.740   2.817  19.847  0.00  0.00    +0.000 A 
ATOM     16  C   UNL     1       1.061   4.143  20.148  0.00  0.00    +0.000 A 
ATOM     17  C   UNL     1       2.012   4.873  19.395  0.00  0.00    +0.000 A 
ENDBRANCH   5   8
BRANCH   1  18
ATOM     18  C   UNL     1       0.586  11.187  18.731  0.00  0.00    +0.000 C 
BRANCH  18  19
ATOM     19  N   UNL     1      -0.800  11.489  18.290  0.00  0.00    +0.000 NA
BRANCH  19  20
ATOM     20  C   UNL     1      -1.277  12.843  18.615  0.00  0.00    +0.000 C 
BRANCH  20  22
ATOM     21  C   UNL     1      -0.205  15.149  18.995  0.00  0.00    +0.000 C 
ATOM     22  C   UNL     1      -0.386  13.727  19.529  0.00  0.00    +0.000 C 
ATOM     23  C   UNL     1      -0.999  13.810  20.937  0.00  0.00    +0.000 C 
ENDBRANCH  20  22
ENDBRANCH  19  20
BRANCH  19  24
ATOM     24  C   UNL     1      -1.731  10.437  18.757  0.00  0.00    +0.000 C 
BRANCH  24  25
ATOM     25  C   UNL     1      -2.819   9.931  17.767  0.00  0.00    +0.000 C 
ATOM     26  C   UNL     1      -4.151  10.685  17.849  0.00  0.00    +0.000 C 
ATOM     27  C   UNL     1      -2.275  10.035  16.336  0.00  0.00    +0.000 C 
ENDBRANCH  24  25
ENDBRANCH  19  24
ENDBRANCH  18  19
ENDBRANCH   1  18
TORSDOF 7
ENDMDL
MODEL 9
REMARK VINA RESULT:      -7.6      2.889      8.349
REMARK  Name = 
REMARK  11 active torsions:
REMARK  status: ('A' for Active; 'I' for Inactive)
REMARK    1  A    between atoms: C_1  and  C_2
REMARK    2  A    between atoms: C_2  and  C_3
REMARK    3  A    between atoms: C_2  and  C_4
REMARK    4  A    between atoms: C_4  and  N_5
REMARK    5  A    between atoms: N_5  and  C_6
REMARK    6  A    between atoms: N_5  and  C_23
REMARK    7  A    between atoms: C_6  and  C_7
REMARK    8  A    between atoms: N_11  and  C_12
REMARK    9  A    between atoms: C_23  and  C_24
REMARK   10  A    between atoms: C_24  and  C_25
REMARK   11  A    between atoms: C_24  and  C_26
REMARK                            x       y       z     vdW  Elec       q    Type
REMARK                         _______ _______ _______ _____ _____    ______ ____
ROOT
ATOM      1  C   UNL     1       0.465   9.790  19.815  0.00  0.00    +0.000 A 
ATOM      2  C   UNL     1       0.813  10.295  21.053  0.00  0.00    +0.000 A 
ATOM      3  S   UNL     1       1.565   9.089  22.008  0.00  0.00    +0.000 S 
ATOM      4  C   UNL     1       1.513   7.999  20.672  0.00  0.00    +0.000 A 
ATOM      5  N   UNL     1       2.155   6.810  20.762  0.00  0.00    +0.000 N 
ATOM      6  N   UNL     1       0.841   8.461  19.634  0.00  0.00    +0.000 NA
ATOM      7  H   UNL     1       2.611   6.598  21.648  0.00  0.00    +0.000 HD
ENDROOT
BRANCH   5   8
ATOM      8  C   UNL     1       2.680   6.060  19.678  0.00  0.00    +0.000 A 
ATOM      9  C   UNL     1       3.691   6.598  18.862  0.00  0.00    +0.000 A 
ATOM     10  C   UNL     1       4.142   5.927  17.730  0.00  0.00    +0.000 A 
ATOM     11  C   UNL     1       3.598   4.696  17.397  0.00  0.00    +0.000 A 
ATOM     12  C   UNL     1       2.632   4.091  18.216  0.00  0.00    +0.000 A 
ATOM     13  C   UNL     1       2.146   2.811  17.901  0.00  0.00    +0.000 A 
ATOM     14  C   UNL     1       1.222   2.172  18.725  0.00  0.00    +0.000 A 
ATOM     15  C   UNL     1       0.739   2.819  19.855  0.00  0.00    +0.000 A 
ATOM     16  C   UNL     1       1.182   4.109  20.159  0.00  0.00    +0.000 A 
ATOM     17  C   UNL     1       2.158   4.770  19.373  0.00  0.00    +0.000 A 
ENDBRANCH   5   8
BRANCH   1  18
ATOM     18  C   UNL     1      -0.083  10.573  18.640  0.00  0.00    +0.000 C 
BRANCH  18  19
ATOM     19  N   UNL     1      -1.510  10.983  18.695  0.00  0.00    +0.000 NA
BRANCH  19  20
ATOM     20  C   UNL     1      -2.395  10.293  17.742  0.00  0.00    +0.000 C 
BRANCH  20  22
ATOM     21  C   UNL     1      -2.914  10.572  15.240  0.00  0.00    +0.000 C 
ATOM     22  C   UNL     1      -3.089  11.146  16.647  0.00  0.00    +0.000 C 
ATOM     23  C   UNL     1      -4.593  11.258  16.943  0.00  0.00    +0.000 C 
ENDBRANCH  20  22
ENDBRANCH  19  20
BRANCH  19  24
ATOM     24  C   UNL     1      -1.628  12.456  18.607  0.00  0.00    +0.000 C 
BRANCH  24  25
ATOM     25  C   UNL     1      -1.777  13.259  19.932  0.00  0.00    +0.000 C 
ATOM     26  C   UNL     1      -2.293  12.436  21.117  0.00  0.00    +0.000 C 
ATOM     27  C   UNL     1      -0.416  13.865  20.301  0.00  0.00    +0.000 C 
ENDBRANCH  24  25
ENDBRANCH  19  24
ENDBRANCH  18  19
ENDBRANCH   1  18
TORSDOF 7
ENDMDL
