MODEL 1
REMARK VINA RESULT:      -7.3      0.000      0.000
REMARK  Name = 
REMARK  7 active torsions:
REMARK  status: ('A' for Active; 'I' for Inactive)
REMARK    1  A    between atoms: C_1  and  N_2
REMARK    2  A    between atoms: N_5  and  C_6
REMARK    3  A    between atoms: C_6  and  C_7
REMARK    4  A    between atoms: C_10  and  C_11
REMARK    5  A    between atoms: C_11  and  C_12
REMARK    6  A    between atoms: C_11  and  C_13
REMARK    7  A    between atoms: C_11  and  C_14
REMARK                            x       y       z     vdW  Elec       q    Type
REMARK                         _______ _______ _______ _____ _____    ______ ____
ROOT
ATOM      1  C   UNL     1       2.480   3.455  20.644  0.00  0.00    +0.000 C 
ATOM      2  N   UNL     1       3.404   4.152  19.750  0.00  0.00    +0.000 N 
ATOM      3  C   UNL     1       4.628   3.755  19.337  0.00  0.00    +0.000 A 
ATOM      4  N   UNL     1       5.153   2.662  19.754  0.00  0.00    +0.000 NA
ATOM      5  N   UNL     1       5.225   4.652  18.487  0.00  0.00    +0.000 N 
ATOM      6  C   UNL     1       4.322   5.667  18.415  0.00  0.00    +0.000 A 
ATOM      7  C   UNL     1       4.388   6.882  17.718  0.00  0.00    +0.000 A 
ATOM      8  C   UNL     1       3.297   7.767  17.831  0.00  0.00    +0.000 A 
ATOM      9  C   UNL     1       2.173   7.429  18.617  0.00  0.00    +0.000 A 
ATOM     10  C   UNL     1       2.124   6.202  19.298  0.00  0.00    +0.000 A 
ATOM     11  C   UNL     1       3.216   5.350  19.178  0.00  0.00    +0.000 A 
ATOM     12  H   UNL     1       6.092   2.355  19.513  0.00  0.00    +0.000 HD
ENDROOT
BRANCH   5  13
ATOM     13  C   UNL     1       6.548   4.555  17.820  0.00  0.00    +0.000 C 
BRANCH  13  14
ATOM     14  C   UNL     1       6.373   4.412  16.320  0.00  0.00    +0.000 A 
ATOM     15  C   UNL     1       5.354   3.600  15.805  0.00  0.00    +0.000 A 
ATOM     16  C   UNL     1       5.254   3.369  14.428  0.00  0.00    +0.000 A 
ATOM     17  C   UNL     1       6.200   3.914  13.527  0.00  0.00    +0.000 A 
ATOM     18  C   UNL     1       7.180   4.779  14.054  0.00  0.00    +0.000 A 
ATOM     19  C   UNL     1       7.244   5.047  15.422  0.00  0.00    +0.000 A 
BRANCH  17  20
ATOM     20  C   UNL     1       6.226   3.557  12.023  0.00  0.00    +0.000 C 
ATOM     21  C   UNL     1       7.027   4.581  11.187  0.00  0.00    +0.000 C 
ATOM     22  C   UNL     1       6.845   2.161  11.798  0.00  0.00    +0.000 C 
ATOM     23  C   UNL     1       4.773   3.557  11.492  0.00  0.00    +0.000 C 
ENDBRANCH  17  20
ENDBRANCH  13  14
ENDBRANCH   5  13
TORSDOF 3
ENDMDL
MODEL 2
REMARK VINA RESULT:      -7.2      4.041      7.203
REMARK  Name = 
REMARK  7 active torsions:
REMARK  status: ('A' for Active; 'I' for Inactive)
REMARK    1  A    between atoms: C_1  and  N_2
REMARK    2  A    between atoms: N_5  and  C_6
REMARK    3  A    between atoms: C_6  and  C_7
REMARK    4  A    between atoms: C_10  and  C_11
REMARK    5  A    between atoms: C_11  and  C_12
REMARK    6  A    between atoms: C_11  and  C_13
REMARK    7  A    between atoms: C_11  and  C_14
REMARK                            x       y       z     vdW  Elec       q    Type
REMARK                         _______ _______ _______ _____ _____    ______ ____
ROOT
ATOM      1  C   UNL     1       5.064   2.114  20.445  0.00  0.00    +0.000 C 
ATOM      2  N   UNL     1       4.355   3.121  19.658  0.00  0.00    +0.000 N 
ATOM      3  C   UNL     1       4.795   4.336  19.262  0.00  0.00    +0.000 A 
ATOM      4  N   UNL     1       5.953   4.771  19.600  0.00  0.00    +0.000 NA
ATOM      5  N   UNL     1       3.869   5.028  18.523  0.00  0.00    +0.000 N 
ATOM      6  C   UNL     1       2.793   4.195  18.506  0.00  0.00    +0.000 A 
ATOM      7  C   UNL     1       1.529   4.370  17.926  0.00  0.00    +0.000 A 
ATOM      8  C   UNL     1       0.586   3.332  18.072  0.00  0.00    +0.000 A 
ATOM      9  C   UNL     1       0.916   2.154  18.777  0.00  0.00    +0.000 A 
ATOM     10  C   UNL     1       2.192   1.995  19.341  0.00  0.00    +0.000 A 
ATOM     11  C   UNL     1       3.102   3.036  19.189  0.00  0.00    +0.000 A 
ATOM     12  H   UNL     1       6.299   5.699  19.372  0.00  0.00    +0.000 HD
ENDROOT
BRANCH   5  13
ATOM     13  C   UNL     1       3.995   6.372  17.906  0.00  0.00    +0.000 C 
BRANCH  13  14
ATOM     14  C   UNL     1       2.919   7.300  18.437  0.00  0.00    +0.000 A 
ATOM     15  C   UNL     1       2.415   8.327  17.629  0.00  0.00    +0.000 A 
ATOM     16  C   UNL     1       1.507   9.259  18.144  0.00  0.00    +0.000 A 
ATOM     17  C   UNL     1       1.109   9.215  19.502  0.00  0.00    +0.000 A 
ATOM     18  C   UNL     1       1.576   8.140  20.284  0.00  0.00    +0.000 A 
ATOM     19  C   UNL     1       2.441   7.183  19.750  0.00  0.00    +0.000 A 
BRANCH  17  20
ATOM     20  C   UNL     1       0.239  10.313  20.155  0.00  0.00    +0.000 C 
ATOM     21  C   UNL     1      -1.011  10.656  19.312  0.00  0.00    +0.000 C 
ATOM     22  C   UNL     1      -0.231   9.883  21.561  0.00  0.00    +0.000 C 
ATOM     23  C   UNL     1       1.085  11.603  20.278  0.00  0.00    +0.000 C 
ENDBRANCH  17  20
ENDBRANCH  13  14
ENDBRANCH   5  13
TORSDOF 3
ENDMDL
MODEL 3
REMARK VINA RESULT:      -7.1      1.047      2.703
REMARK  Name = 
REMARK  7 active torsions:
REMARK  status: ('A' for Active; 'I' for Inactive)
REMARK    1  A    between atoms: C_1  and  N_2
REMARK    2  A    between atoms: N_5  and  C_6
REMARK    3  A    between atoms: C_6  and  C_7
REMARK    4  A    between atoms: C_10  and  C_11
REMARK    5  A    between atoms: C_11  and  C_12
REMARK    6  A    between atoms: C_11  and  C_13
REMARK    7  A    between atoms: C_11  and  C_14
REMARK                            x       y       z     vdW  Elec       q    Type
REMARK                         _______ _______ _______ _____ _____    ______ ____
ROOT
ATOM      1  C   UNL     1       2.191   7.701  18.946  0.00  0.00    +0.000 C 
ATOM      2  N   UNL     1       3.044   6.514  18.975  0.00  0.00    +0.000 N 
ATOM      3  C   UNL     1       4.205   6.301  18.317  0.00  0.00    +0.000 A 
ATOM      4  N   UNL     1       4.686   7.174  17.509  0.00  0.00    +0.000 NA
ATOM      5  N   UNL     1       4.753   5.071  18.579  0.00  0.00    +0.000 N 
ATOM      6  C   UNL     1       3.849   4.495  19.416  0.00  0.00    +0.000 A 
ATOM      7  C   UNL     1       3.849   3.221  20.002  0.00  0.00    +0.000 A 
ATOM      8  C   UNL     1       2.765   2.876  20.832  0.00  0.00    +0.000 A 
ATOM      9  C   UNL     1       1.717   3.794  21.068  0.00  0.00    +0.000 A 
ATOM     10  C   UNL     1       1.742   5.068  20.479  0.00  0.00    +0.000 A 
ATOM     11  C   UNL     1       2.820   5.382  19.658  0.00  0.00    +0.000 A 
ATOM     12  H   UNL     1       5.524   7.030  16.952  0.00  0.00    +0.000 HD
ENDROOT
BRANCH   5  13
ATOM     13  C   UNL     1       6.019   4.493  18.061  0.00  0.00    +0.000 C 
BRANCH  13  14
ATOM     14  C   UNL     1       5.968   4.383  16.548  0.00  0.00    +0.000 A 
ATOM     15  C   UNL     1       4.835   3.851  15.920  0.00  0.00    +0.000 A 
ATOM     16  C   UNL     1       4.821   3.638  14.537  0.00  0.00    +0.000 A 
ATOM     17  C   UNL     1       5.962   3.914  13.746  0.00  0.00    +0.000 A 
ATOM     18  C   UNL     1       7.070   4.507  14.383  0.00  0.00    +0.000 A 
ATOM     19  C   UNL     1       7.059   4.765  15.754  0.00  0.00    +0.000 A 
BRANCH  17  20
ATOM     20  C   UNL     1       6.050   3.545  12.247  0.00  0.00    +0.000 C 
ATOM     21  C   UNL     1       6.509   2.085  12.025  0.00  0.00    +0.000 C 
ATOM     22  C   UNL     1       4.686   3.732  11.551  0.00  0.00    +0.000 C 
ATOM     23  C   UNL     1       7.092   4.468  11.572  0.00  0.00    +0.000 C 
ENDBRANCH  17  20
ENDBRANCH  13  14
ENDBRANCH   5  13
TORSDOF 3
ENDMDL
MODEL 4
REMARK VINA RESULT:      -7.1      5.657      8.623
REMARK  Name = 
REMARK  7 active torsions:
REMARK  status: ('A' for Active; 'I' for Inactive)
REMARK    1  A    between atoms: C_1  and  N_2
REMARK    2  A    between atoms: N_5  and  C_6
REMARK    3  A    between atoms: C_6  and  C_7
REMARK    4  A    between atoms: C_10  and  C_11
REMARK    5  A    between atoms: C_11  and  C_12
REMARK    6  A    between atoms: C_11  and  C_13
REMARK    7  A    between atoms: C_11  and  C_14
REMARK                            x       y       z     vdW  Elec       q    Type
REMARK                         _______ _______ _______ _____ _____    ______ ____
ROOT
ATOM      1  C   UNL     1      -3.401  12.913  20.666  0.00  0.00    +0.000 C 
ATOM      2  N   UNL     1      -2.414  12.223  19.838  0.00  0.00    +0.000 N 
ATOM      3  C   UNL     1      -1.069  12.215  19.970  0.00  0.00    +0.000 A 
ATOM      4  N   UNL     1      -0.482  12.899  20.883  0.00  0.00    +0.000 NA
ATOM      5  N   UNL     1      -0.440  11.451  19.020  0.00  0.00    +0.000 N 
ATOM      6  C   UNL     1      -1.466  11.003  18.246  0.00  0.00    +0.000 A 
ATOM      7  C   UNL     1      -1.442  10.198  17.098  0.00  0.00    +0.000 A 
ATOM      8  C   UNL     1      -2.672   9.892  16.482  0.00  0.00    +0.000 A 
ATOM      9  C   UNL     1      -3.886  10.378  17.014  0.00  0.00    +0.000 A 
ATOM     10  C   UNL     1      -3.887  11.175  18.171  0.00  0.00    +0.000 A 
ATOM     11  C   UNL     1      -2.661  11.469  18.757  0.00  0.00    +0.000 A 
ATOM     12  H   UNL     1       0.527  12.966  20.981  0.00  0.00    +0.000 HD
ENDROOT
BRANCH   5  13
ATOM     13  C   UNL     1       1.012  11.189  18.856  0.00  0.00    +0.000 C 
BRANCH  13  14
ATOM     14  C   UNL     1       1.298   9.705  18.983  0.00  0.00    +0.000 A 
ATOM     15  C   UNL     1       1.112   9.055  20.210  0.00  0.00    +0.000 A 
ATOM     16  C   UNL     1       1.481   7.715  20.370  0.00  0.00    +0.000 A 
ATOM     17  C   UNL     1       2.087   6.994  19.313  0.00  0.00    +0.000 A 
ATOM     18  C   UNL     1       2.209   7.642  18.068  0.00  0.00    +0.000 A 
ATOM     19  C   UNL     1       1.792   8.963  17.899  0.00  0.00    +0.000 A 
BRANCH  17  20
ATOM     20  C   UNL     1       2.657   5.568  19.491  0.00  0.00    +0.000 C 
ATOM     21  C   UNL     1       2.251   4.935  20.842  0.00  0.00    +0.000 C 
ATOM     22  C   UNL     1       2.177   4.636  18.359  0.00  0.00    +0.000 C 
ATOM     23  C   UNL     1       4.201   5.647  19.460  0.00  0.00    +0.000 C 
ENDBRANCH  17  20
ENDBRANCH  13  14
ENDBRANCH   5  13
TORSDOF 3
ENDMDL
MODEL 5
REMARK VINA RESULT:      -7.0      3.752      6.899
REMARK  Name = 
REMARK  7 active torsions:
REMARK  status: ('A' for Active; 'I' for Inactive)
REMARK    1  A    between atoms: C_1  and  N_2
REMARK    2  A    between atoms: N_5  and  C_6
REMARK    3  A    between atoms: C_6  and  C_7
REMARK    4  A    between atoms: C_10  and  C_11
REMARK    5  A    between atoms: C_11  and  C_12
REMARK    6  A    between atoms: C_11  and  C_13
REMARK    7  A    between atoms: C_11  and  C_14
REMARK                            x       y       z     vdW  Elec       q    Type
REMARK                         _______ _______ _______ _____ _____    ______ ____
ROOT
ATOM      1  C   UNL     1       4.986   1.652  20.069  0.00  0.00    +0.000 C 
ATOM      2  N   UNL     1       4.301   2.718  19.340  0.00  0.00    +0.000 N 
ATOM      3  C   UNL     1       4.820   3.868  18.857  0.00  0.00    +0.000 A 
ATOM      4  N   UNL     1       6.051   4.177  19.042  0.00  0.00    +0.000 NA
ATOM      5  N   UNL     1       3.892   4.646  18.211  0.00  0.00    +0.000 N 
ATOM      6  C   UNL     1       2.738   3.939  18.347  0.00  0.00    +0.000 A 
ATOM      7  C   UNL     1       1.439   4.244  17.915  0.00  0.00    +0.000 A 
ATOM      8  C   UNL     1       0.414   3.322  18.204  0.00  0.00    +0.000 A 
ATOM      9  C   UNL     1       0.695   2.126  18.902  0.00  0.00    +0.000 A 
ATOM     10  C   UNL     1       2.005   1.836  19.316  0.00  0.00    +0.000 A 
ATOM     11  C   UNL     1       2.998   2.765  19.025  0.00  0.00    +0.000 A 
ATOM     12  H   UNL     1       6.466   5.056  18.746  0.00  0.00    +0.000 HD
ENDROOT
BRANCH   5  13
ATOM     13  C   UNL     1       4.089   5.957  17.541  0.00  0.00    +0.000 C 
BRANCH  13  14
ATOM     14  C   UNL     1       3.238   7.022  18.205  0.00  0.00    +0.000 A 
ATOM     15  C   UNL     1       2.830   6.868  19.536  0.00  0.00    +0.000 A 
ATOM     16  C   UNL     1       1.952   7.785  20.124  0.00  0.00    +0.000 A 
ATOM     17  C   UNL     1       1.421   8.866  19.379  0.00  0.00    +0.000 A 
ATOM     18  C   UNL     1       1.889   9.042  18.062  0.00  0.00    +0.000 A 
ATOM     19  C   UNL     1       2.805   8.154  17.498  0.00  0.00    +0.000 A 
BRANCH  17  20
ATOM     20  C   UNL     1       0.327   9.806  19.933  0.00  0.00    +0.000 C 
ATOM     21  C   UNL     1       0.901  11.156  20.423  0.00  0.00    +0.000 C 
ATOM     22  C   UNL     1      -0.745  10.100  18.862  0.00  0.00    +0.000 C 
ATOM     23  C   UNL     1      -0.346   9.120  21.145  0.00  0.00    +0.000 C 
ENDBRANCH  17  20
ENDBRANCH  13  14
ENDBRANCH   5  13
TORSDOF 3
ENDMDL
MODEL 6
REMARK VINA RESULT:      -6.9      5.556      8.559
REMARK  Name = 
REMARK  7 active torsions:
REMARK  status: ('A' for Active; 'I' for Inactive)
REMARK    1  A    between atoms: C_1  and  N_2
REMARK    2  A    between atoms: N_5  and  C_6
REMARK    3  A    between atoms: C_6  and  C_7
REMARK    4  A    between atoms: C_10  and  C_11
REMARK    5  A    between atoms: C_11  and  C_12
REMARK    6  A    between atoms: C_11  and  C_13
REMARK    7  A    between atoms: C_11  and  C_14
REMARK                            x       y       z     vdW  Elec       q    Type
REMARK                         _______ _______ _______ _____ _____    ______ ____
ROOT
ATOM      1  C   UNL     1      -3.797  11.428  18.212  0.00  0.00    +0.000 C 
ATOM      2  N   UNL     1      -2.461  11.547  18.794  0.00  0.00    +0.000 N 
ATOM      3  C   UNL     1      -1.285  11.123  18.282  0.00  0.00    +0.000 A 
ATOM      4  N   UNL     1      -1.228  10.491  17.167  0.00  0.00    +0.000 NA
ATOM      5  N   UNL     1      -0.213  11.405  19.092  0.00  0.00    +0.000 N 
ATOM      6  C   UNL     1      -0.785  12.000  20.174  0.00  0.00    +0.000 A 
ATOM      7  C   UNL     1      -0.195  12.485  21.350  0.00  0.00    +0.000 A 
ATOM      8  C   UNL     1      -1.039  13.054  22.325  0.00  0.00    +0.000 A 
ATOM      9  C   UNL     1      -2.433  13.137  22.113  0.00  0.00    +0.000 A 
ATOM     10  C   UNL     1      -3.001  12.654  20.922  0.00  0.00    +0.000 A 
ATOM     11  C   UNL     1      -2.148  12.090  19.979  0.00  0.00    +0.000 A 
ATOM     12  H   UNL     1      -0.373  10.105  16.776  0.00  0.00    +0.000 HD
ENDROOT
BRANCH   5  13
ATOM     13  C   UNL     1       1.224  11.114  18.860  0.00  0.00    +0.000 C 
BRANCH  13  14
ATOM     14  C   UNL     1       1.486   9.624  18.974  0.00  0.00    +0.000 A 
ATOM     15  C   UNL     1       1.238   8.957  20.181  0.00  0.00    +0.000 A 
ATOM     16  C   UNL     1       1.582   7.610  20.335  0.00  0.00    +0.000 A 
ATOM     17  C   UNL     1       2.225   6.898  19.293  0.00  0.00    +0.000 A 
ATOM     18  C   UNL     1       2.410   7.565  18.065  0.00  0.00    +0.000 A 
ATOM     19  C   UNL     1       2.018   8.894  17.901  0.00  0.00    +0.000 A 
BRANCH  17  20
ATOM     20  C   UNL     1       2.769   5.462  19.472  0.00  0.00    +0.000 C 
ATOM     21  C   UNL     1       4.314   5.410  19.458  0.00  0.00    +0.000 C 
ATOM     22  C   UNL     1       2.278   4.847  20.799  0.00  0.00    +0.000 C 
ATOM     23  C   UNL     1       2.264   4.594  18.295  0.00  0.00    +0.000 C 
ENDBRANCH  17  20
ENDBRANCH  13  14
ENDBRANCH   5  13
TORSDOF 3
ENDMDL
MODEL 7
REMARK VINA RESULT:      -6.9      0.308      1.072
REMARK  Name = 
REMARK  7 active torsions:
REMARK  status: ('A' for Active; 'I' for Inactive)
REMARK    1  A    between atoms: C_1  and  N_2
REMARK    2  A    between atoms: N_5  and  C_6
REMARK    3  A    between atoms: C_6  and  C_7
REMARK    4  A    between atoms: C_10  and  C_11
REMARK    5  A    between atoms: C_11  and  C_12
REMARK    6  A    between atoms: C_11  and  C_13
REMARK    7  A    between atoms: C_11  and  C_14
REMARK                            x       y       z     vdW  Elec       q    Type
REMARK                         _______ _______ _______ _____ _____    ______ ____
ROOT
ATOM      1  C   UNL     1       2.413   3.366  20.217  0.00  0.00    +0.000 C 
ATOM      2  N   UNL     1       3.360   4.157  19.433  0.00  0.00    +0.000 N 
ATOM      3  C   UNL     1       4.646   3.867  19.134  0.00  0.00    +0.000 A 
ATOM      4  N   UNL     1       5.214   2.807  19.580  0.00  0.00    +0.000 NA
ATOM      5  N   UNL     1       5.249   4.830  18.365  0.00  0.00    +0.000 N 
ATOM      6  C   UNL     1       4.279   5.774  18.224  0.00  0.00    +0.000 A 
ATOM      7  C   UNL     1       4.314   7.009  17.561  0.00  0.00    +0.000 A 
ATOM      8  C   UNL     1       3.150   7.803  17.583  0.00  0.00    +0.000 A 
ATOM      9  C   UNL     1       1.986   7.358  18.248  0.00  0.00    +0.000 A 
ATOM     10  C   UNL     1       1.970   6.113  18.897  0.00  0.00    +0.000 A 
ATOM     11  C   UNL     1       3.133   5.351  18.868  0.00  0.00    +0.000 A 
ATOM     12  H   UNL     1       6.193   2.581  19.427  0.00  0.00    +0.000 HD
ENDROOT
BRANCH   5  13
ATOM     13  C   UNL     1       6.633   4.854  17.829  0.00  0.00    +0.000 C 
BRANCH  13  14
ATOM     14  C   UNL     1       6.642   4.438  16.371  0.00  0.00    +0.000 A 
ATOM     15  C   UNL     1       7.503   5.070  15.464  0.00  0.00    +0.000 A 
ATOM     16  C   UNL     1       7.440   4.776  14.098  0.00  0.00    +0.000 A 
ATOM     17  C   UNL     1       6.480   3.866  13.591  0.00  0.00    +0.000 A 
ATOM     18  C   UNL     1       5.665   3.193  14.523  0.00  0.00    +0.000 A 
ATOM     19  C   UNL     1       5.768   3.452  15.890  0.00  0.00    +0.000 A 
BRANCH  17  20
ATOM     20  C   UNL     1       6.265   3.633  12.078  0.00  0.00    +0.000 C 
ATOM     21  C   UNL     1       6.927   4.729  11.212  0.00  0.00    +0.000 C 
ATOM     22  C   UNL     1       6.835   2.266  11.644  0.00  0.00    +0.000 C 
ATOM     23  C   UNL     1       4.747   3.663  11.786  0.00  0.00    +0.000 C 
ENDBRANCH  17  20
ENDBRANCH  13  14
ENDBRANCH   5  13
TORSDOF 3
ENDMDL
MODEL 8
REMARK VINA RESULT:      -6.9      5.510      8.139
REMARK  Name = 
REMARK  7 active torsions:
REMARK  status: ('A' for Active; 'I' for Inactive)
REMARK    1  A    between atoms: C_1  and  N_2
REMARK    2  A    between atoms: N_5  and  C_6
REMARK    3  A    between atoms: C_6  and  C_7
REMARK    4  A    between atoms: C_10  and  C_11
REMARK    5  A    between atoms: C_11  and  C_12
REMARK    6  A    between atoms: C_11  and  C_13
REMARK    7  A    between atoms: C_11  and  C_14
REMARK                            x       y       z     vdW  Elec       q    Type
REMARK                         _______ _______ _______ _____ _____    ______ ____
ROOT
ATOM      1  C   UNL     1      -1.994  12.815  21.381  0.00  0.00    +0.000 C 
ATOM      2  N   UNL     1      -1.314  12.041  20.344  0.00  0.00    +0.000 N 
ATOM      3  C   UNL     1       0.009  11.797  20.215  0.00  0.00    +0.000 A 
ATOM      4  N   UNL     1       0.865  12.295  21.031  0.00  0.00    +0.000 NA
ATOM      5  N   UNL     1       0.308  11.021  19.123  0.00  0.00    +0.000 N 
ATOM      6  C   UNL     1      -0.904  10.817  18.540  0.00  0.00    +0.000 A 
ATOM      7  C   UNL     1      -1.234  10.118  17.370  0.00  0.00    +0.000 A 
ATOM      8  C   UNL     1      -2.589  10.074  16.988  0.00  0.00    +0.000 A 
ATOM      9  C   UNL     1      -3.580  10.710  17.768  0.00  0.00    +0.000 A 
ATOM     10  C   UNL     1      -3.228  11.396  18.942  0.00  0.00    +0.000 A 
ATOM     11  C   UNL     1      -1.883  11.432  19.295  0.00  0.00    +0.000 A 
ATOM     12  H   UNL     1       1.871  12.184  20.936  0.00  0.00    +0.000 HD
ENDROOT
BRANCH   5  13
ATOM     13  C   UNL     1       1.635  10.535  18.670  0.00  0.00    +0.000 C 
BRANCH  13  14
ATOM     14  C   UNL     1       1.754   9.039  18.892  0.00  0.00    +0.000 A 
ATOM     15  C   UNL     1       1.504   8.494  20.158  0.00  0.00    +0.000 A 
ATOM     16  C   UNL     1       1.721   7.134  20.404  0.00  0.00    +0.000 A 
ATOM     17  C   UNL     1       2.235   6.283  19.395  0.00  0.00    +0.000 A 
ATOM     18  C   UNL     1       2.420   6.833  18.111  0.00  0.00    +0.000 A 
ATOM     19  C   UNL     1       2.154   8.179  17.858  0.00  0.00    +0.000 A 
BRANCH  17  20
ATOM     20  C   UNL     1       2.642   4.816  19.664  0.00  0.00    +0.000 C 
ATOM     21  C   UNL     1       1.914   3.821  18.732  0.00  0.00    +0.000 C 
ATOM     22  C   UNL     1       4.162   4.622  19.483  0.00  0.00    +0.000 C 
ATOM     23  C   UNL     1       2.256   4.457  21.119  0.00  0.00    +0.000 C 
ENDBRANCH  17  20
ENDBRANCH  13  14
ENDBRANCH   5  13
TORSDOF 3
ENDMDL
MODEL 9
REMARK VINA RESULT:      -6.9      2.085      7.140
REMARK  Name = 
REMARK  7 active torsions:
REMARK  status: ('A' for Active; 'I' for Inactive)
REMARK    1  A    between atoms: C_1  and  N_2
REMARK    2  A    between atoms: N_5  and  C_6
REMARK    3  A    between atoms: C_6  and  C_7
REMARK    4  A    between atoms: C_10  and  C_11
REMARK    5  A    between atoms: C_11  and  C_12
REMARK    6  A    between atoms: C_11  and  C_13
REMARK    7  A    between atoms: C_11  and  C_14
REMARK                            x       y       z     vdW  Elec       q    Type
REMARK                         _______ _______ _______ _____ _____    ______ ____
ROOT
ATOM      1  C   UNL     1       8.068   5.406  18.804  0.00  0.00    +0.000 C 
ATOM      2  N   UNL     1       6.759   5.251  18.171  0.00  0.00    +0.000 N 
ATOM      3  C   UNL     1       5.538   5.312  18.747  0.00  0.00    +0.000 A 
ATOM      4  N   UNL     1       5.402   5.485  20.011  0.00  0.00    +0.000 NA
ATOM      5  N   UNL     1       4.513   5.129  17.853  0.00  0.00    +0.000 N 
ATOM      6  C   UNL     1       5.157   4.908  16.676  0.00  0.00    +0.000 A 
ATOM      7  C   UNL     1       4.637   4.629  15.404  0.00  0.00    +0.000 A 
ATOM      8  C   UNL     1       5.548   4.431  14.347  0.00  0.00    +0.000 A 
ATOM      9  C   UNL     1       6.940   4.518  14.569  0.00  0.00    +0.000 A 
ATOM     10  C   UNL     1       7.439   4.809  15.849  0.00  0.00    +0.000 A 
ATOM     11  C   UNL     1       6.520   4.993  16.877  0.00  0.00    +0.000 A 
ATOM     12  H   UNL     1       4.506   5.479  20.491  0.00  0.00    +0.000 HD
ENDROOT
BRANCH   5  13
ATOM     13  C   UNL     1       3.050   5.147  18.107  0.00  0.00    +0.000 C 
BRANCH  13  14
ATOM     14  C   UNL     1       2.594   6.549  18.465  0.00  0.00    +0.000 A 
ATOM     15  C   UNL     1       2.149   6.833  19.763  0.00  0.00    +0.000 A 
ATOM     16  C   UNL     1       1.618   8.089  20.075  0.00  0.00    +0.000 A 
ATOM     17  C   UNL     1       1.479   9.089  19.082  0.00  0.00    +0.000 A 
ATOM     18  C   UNL     1       1.988   8.809  17.799  0.00  0.00    +0.000 A 
ATOM     19  C   UNL     1       2.564   7.572  17.506  0.00  0.00    +0.000 A 
BRANCH  17  20
ATOM     20  C   UNL     1       0.753  10.429  19.340  0.00  0.00    +0.000 C 
ATOM     21  C   UNL     1       0.524  10.697  20.845  0.00  0.00    +0.000 C 
ATOM     22  C   UNL     1       1.553  11.613  18.757  0.00  0.00    +0.000 C 
ATOM     23  C   UNL     1      -0.636  10.376  18.661  0.00  0.00    +0.000 C 
ENDBRANCH  17  20
ENDBRANCH  13  14
ENDBRANCH   5  13
TORSDOF 3
ENDMDL
