MODEL 1
REMARK VINA RESULT:      -8.3      0.000      0.000
REMARK  Name = 
REMARK  3 active torsions:
REMARK  status: ('A' for Active; 'I' for Inactive)
REMARK    1  A    between atoms: C_1  and  N_2
REMARK    2  A    between atoms: C_6  and  C_7
REMARK    3  A    between atoms: C_13  and  C_14
REMARK                            x       y       z     vdW  Elec       q    Type
REMARK                         _______ _______ _______ _____ _____    ______ ____
ROOT
ATOM      1  C   UNL     1       4.395   4.035  16.612  0.00  0.00    +0.000 C 
ATOM      2  C   UNL     1       5.646   4.315  16.998  0.00  0.00    +0.000 C 
ATOM      3  C   UNL     1       6.166   4.481  18.367  0.00  0.00    +0.000 C 
ATOM      4  O   UNL     1       5.558   4.483  19.422  0.00  0.00    +0.000 OA
ATOM      5  O   UNL     1       7.534   4.571  18.233  0.00  0.00    +0.000 OA
ATOM      6  N   UNL     1       7.917   4.529  16.850  0.00  0.00    +0.000 NA
ATOM      7  C   UNL     1       6.829   4.418  16.145  0.00  0.00    +0.000 C 
ENDROOT
BRANCH   1  13
ATOM      8  C   UNL     1       3.619   1.549  18.028  0.00  0.00    +0.000 C 
ATOM      9  N   UNL     1       2.934   2.822  18.124  0.00  0.00    +0.000 N 
ATOM     10  C   UNL     1       1.802   3.033  18.871  0.00  0.00    +0.000 A 
ATOM     11  C   UNL     1       1.433   4.352  18.726  0.00  0.00    +0.000 A 
ATOM     12  C   UNL     1       2.373   4.959  17.860  0.00  0.00    +0.000 A 
ATOM     13  C   UNL     1       3.294   3.994  17.497  0.00  0.00    +0.000 A 
ENDBRANCH   1  13
BRANCH   7  14
ATOM     14  C   UNL     1       6.832   4.408  14.673  0.00  0.00    +0.000 A 
ATOM     15  C   UNL     1       6.009   3.490  14.008  0.00  0.00    +0.000 A 
ATOM     16  C   UNL     1       6.011   3.430  12.613  0.00  0.00    +0.000 A 
ATOM     17  C   UNL     1       6.833   4.284  11.878  0.00  0.00    +0.000 A 
ATOM     18  C   UNL     1       7.668   5.186  12.535  0.00  0.00    +0.000 A 
ATOM     19  C   UNL     1       7.682   5.237  13.930  0.00  0.00    +0.000 A 
ENDBRANCH   7  14
TORSDOF 2
ENDMDL
MODEL 2
REMARK VINA RESULT:      -8.2      0.120      1.115
REMARK  Name = 
REMARK  3 active torsions:
REMARK  status: ('A' for Active; 'I' for Inactive)
REMARK    1  A    between atoms: C_1  and  N_2
REMARK    2  A    between atoms: C_6  and  C_7
REMARK    3  A    between atoms: C_13  and  C_14
REMARK                            x       y       z     vdW  Elec       q    Type
REMARK                         _______ _______ _______ _____ _____    ______ ____
ROOT
ATOM      1  C   UNL     1       4.370   3.919  16.664  0.00  0.00    +0.000 C 
ATOM      2  C   UNL     1       5.606   4.259  17.053  0.00  0.00    +0.000 C 
ATOM      3  C   UNL     1       6.104   4.489  18.420  0.00  0.00    +0.000 C 
ATOM      4  O   UNL     1       5.485   4.501  19.469  0.00  0.00    +0.000 OA
ATOM      5  O   UNL     1       7.469   4.628  18.296  0.00  0.00    +0.000 OA
ATOM      6  N   UNL     1       7.867   4.556  16.919  0.00  0.00    +0.000 NA
ATOM      7  C   UNL     1       6.793   4.380  16.208  0.00  0.00    +0.000 C 
ENDROOT
BRANCH   1  13
ATOM      8  C   UNL     1       3.670   1.449  18.147  0.00  0.00    +0.000 C 
ATOM      9  N   UNL     1       2.939   2.698  18.198  0.00  0.00    +0.000 N 
ATOM     10  C   UNL     1       1.792   2.889  18.928  0.00  0.00    +0.000 A 
ATOM     11  C   UNL     1       1.377   4.189  18.740  0.00  0.00    +0.000 A 
ATOM     12  C   UNL     1       2.303   4.804  17.865  0.00  0.00    +0.000 A 
ATOM     13  C   UNL     1       3.262   3.863  17.540  0.00  0.00    +0.000 A 
ENDBRANCH   1  13
BRANCH   7  14
ATOM     14  C   UNL     1       6.811   4.324  14.737  0.00  0.00    +0.000 A 
ATOM     15  C   UNL     1       7.679   5.178  14.046  0.00  0.00    +0.000 A 
ATOM     16  C   UNL     1       7.699   5.175  12.649  0.00  0.00    +0.000 A 
ATOM     17  C   UNL     1       6.854   4.323  11.940  0.00  0.00    +0.000 A 
ATOM     18  C   UNL     1       5.974   3.485  12.623  0.00  0.00    +0.000 A 
ATOM     19  C   UNL     1       5.938   3.497  14.018  0.00  0.00    +0.000 A 
ENDBRANCH   7  14
TORSDOF 2
ENDMDL
MODEL 3
REMARK VINA RESULT:      -8.0      1.250      1.517
REMARK  Name = 
REMARK  3 active torsions:
REMARK  status: ('A' for Active; 'I' for Inactive)
REMARK    1  A    between atoms: C_1  and  N_2
REMARK    2  A    between atoms: C_6  and  C_7
REMARK    3  A    between atoms: C_13  and  C_14
REMARK                            x       y       z     vdW  Elec       q    Type
REMARK                         _______ _______ _______ _____ _____    ______ ____
ROOT
ATOM      1  C   UNL     1       4.698   5.456  16.757  0.00  0.00    +0.000 C 
ATOM      2  C   UNL     1       5.949   5.130  17.107  0.00  0.00    +0.000 C 
ATOM      3  C   UNL     1       6.542   5.096  18.455  0.00  0.00    +0.000 C 
ATOM      4  O   UNL     1       6.051   5.436  19.517  0.00  0.00    +0.000 OA
ATOM      5  O   UNL     1       7.785   4.523  18.296  0.00  0.00    +0.000 OA
ATOM      6  N   UNL     1       8.044   4.239  16.913  0.00  0.00    +0.000 NA
ATOM      7  C   UNL     1       7.004   4.620  16.232  0.00  0.00    +0.000 C 
ENDROOT
BRANCH   1  13
ATOM      8  C   UNL     1       2.981   3.701  18.417  0.00  0.00    +0.000 C 
ATOM      9  N   UNL     1       2.939   5.149  18.401  0.00  0.00    +0.000 N 
ATOM     10  C   UNL     1       2.062   5.903  19.141  0.00  0.00    +0.000 A 
ATOM     11  C   UNL     1       2.310   7.231  18.875  0.00  0.00    +0.000 A 
ATOM     12  C   UNL     1       3.370   7.282  17.940  0.00  0.00    +0.000 A 
ATOM     13  C   UNL     1       3.745   5.982  17.658  0.00  0.00    +0.000 A 
ENDBRANCH   1  13
BRANCH   7  14
ATOM     14  C   UNL     1       6.940   4.540  14.764  0.00  0.00    +0.000 A 
ATOM     15  C   UNL     1       6.058   3.622  14.182  0.00  0.00    +0.000 A 
ATOM     16  C   UNL     1       5.995   3.495  12.793  0.00  0.00    +0.000 A 
ATOM     17  C   UNL     1       6.812   4.282  11.982  0.00  0.00    +0.000 A 
ATOM     18  C   UNL     1       7.706   5.183  12.556  0.00  0.00    +0.000 A 
ATOM     19  C   UNL     1       7.785   5.300  13.945  0.00  0.00    +0.000 A 
ENDBRANCH   7  14
TORSDOF 2
ENDMDL
MODEL 4
REMARK VINA RESULT:      -8.0      2.278      6.402
REMARK  Name = 
REMARK  3 active torsions:
REMARK  status: ('A' for Active; 'I' for Inactive)
REMARK    1  A    between atoms: C_1  and  N_2
REMARK    2  A    between atoms: C_6  and  C_7
REMARK    3  A    between atoms: C_13  and  C_14
REMARK                            x       y       z     vdW  Elec       q    Type
REMARK                         _______ _______ _______ _____ _____    ______ ____
ROOT
ATOM      1  C   UNL     1       4.241   4.520  17.086  0.00  0.00    +0.000 C 
ATOM      2  C   UNL     1       3.778   5.671  17.588  0.00  0.00    +0.000 C 
ATOM      3  C   UNL     1       4.078   7.046  17.151  0.00  0.00    +0.000 C 
ATOM      4  O   UNL     1       4.869   7.426  16.306  0.00  0.00    +0.000 OA
ATOM      5  O   UNL     1       3.215   7.854  17.858  0.00  0.00    +0.000 OA
ATOM      6  N   UNL     1       2.417   7.079  18.766  0.00  0.00    +0.000 NA
ATOM      7  C   UNL     1       2.767   5.834  18.632  0.00  0.00    +0.000 C 
ENDROOT
BRANCH   1  13
ATOM      8  C   UNL     1       7.117   4.703  17.781  0.00  0.00    +0.000 C 
ATOM      9  N   UNL     1       6.582   4.559  16.443  0.00  0.00    +0.000 N 
ATOM     10  C   UNL     1       7.350   4.520  15.306  0.00  0.00    +0.000 A 
ATOM     11  C   UNL     1       6.508   4.376  14.226  0.00  0.00    +0.000 A 
ATOM     12  C   UNL     1       5.186   4.329  14.726  0.00  0.00    +0.000 A 
ATOM     13  C   UNL     1       5.253   4.445  16.102  0.00  0.00    +0.000 A 
ENDBRANCH   1  13
BRANCH   7  14
ATOM     14  C   UNL     1       2.199   4.754  19.455  0.00  0.00    +0.000 A 
ATOM     15  C   UNL     1       2.606   4.647  20.791  0.00  0.00    +0.000 A 
ATOM     16  C   UNL     1       2.114   3.614  21.592  0.00  0.00    +0.000 A 
ATOM     17  C   UNL     1       1.217   2.687  21.063  0.00  0.00    +0.000 A 
ATOM     18  C   UNL     1       0.823   2.778  19.729  0.00  0.00    +0.000 A 
ATOM     19  C   UNL     1       1.327   3.798  18.920  0.00  0.00    +0.000 A 
ENDBRANCH   7  14
TORSDOF 2
ENDMDL
MODEL 5
REMARK VINA RESULT:      -8.0      2.283      6.352
REMARK  Name = 
REMARK  3 active torsions:
REMARK  status: ('A' for Active; 'I' for Inactive)
REMARK    1  A    between atoms: C_1  and  N_2
REMARK    2  A    between atoms: C_6  and  C_7
REMARK    3  A    between atoms: C_13  and  C_14
REMARK                            x       y       z     vdW  Elec       q    Type
REMARK                         _______ _______ _______ _____ _____    ______ ____
ROOT
ATOM      1  C   UNL     1       4.290   4.504  17.082  0.00  0.00    +0.000 C 
ATOM      2  C   UNL     1       3.813   5.651  17.582  0.00  0.00    +0.000 C 
ATOM      3  C   UNL     1       4.076   7.027  17.124  0.00  0.00    +0.000 C 
ATOM      4  O   UNL     1       4.841   7.414  16.258  0.00  0.00    +0.000 OA
ATOM      5  O   UNL     1       3.211   7.825  17.841  0.00  0.00    +0.000 OA
ATOM      6  N   UNL     1       2.448   7.044  18.773  0.00  0.00    +0.000 NA
ATOM      7  C   UNL     1       2.822   5.805  18.645  0.00  0.00    +0.000 C 
ENDROOT
BRANCH   1  13
ATOM      8  C   UNL     1       7.178   4.706  17.720  0.00  0.00    +0.000 C 
ATOM      9  N   UNL     1       6.617   4.562  16.392  0.00  0.00    +0.000 N 
ATOM     10  C   UNL     1       7.362   4.532  15.240  0.00  0.00    +0.000 A 
ATOM     11  C   UNL     1       6.499   4.384  14.176  0.00  0.00    +0.000 A 
ATOM     12  C   UNL     1       5.188   4.326  14.703  0.00  0.00    +0.000 A 
ATOM     13  C   UNL     1       5.282   4.439  16.077  0.00  0.00    +0.000 A 
ENDBRANCH   1  13
BRANCH   7  14
ATOM     14  C   UNL     1       2.294   4.723  19.492  0.00  0.00    +0.000 A 
ATOM     15  C   UNL     1       1.359   3.837  18.940  0.00  0.00    +0.000 A 
ATOM     16  C   UNL     1       0.812   2.819  19.724  0.00  0.00    +0.000 A 
ATOM     17  C   UNL     1       1.194   2.682  21.058  0.00  0.00    +0.000 A 
ATOM     18  C   UNL     1       2.109   3.572  21.617  0.00  0.00    +0.000 A 
ATOM     19  C   UNL     1       2.645   4.602  20.842  0.00  0.00    +0.000 A 
ENDBRANCH   7  14
TORSDOF 2
ENDMDL
MODEL 6
REMARK VINA RESULT:      -7.9      1.052      1.667
REMARK  Name = 
REMARK  3 active torsions:
REMARK  status: ('A' for Active; 'I' for Inactive)
REMARK    1  A    between atoms: C_1  and  N_2
REMARK    2  A    between atoms: C_6  and  C_7
REMARK    3  A    between atoms: C_13  and  C_14
REMARK                            x       y       z     vdW  Elec       q    Type
REMARK                         _______ _______ _______ _____ _____    ______ ____
ROOT
ATOM      1  C   UNL     1       4.500   4.528  16.675  0.00  0.00    +0.000 C 
ATOM      2  C   UNL     1       5.791   4.562  17.030  0.00  0.00    +0.000 C 
ATOM      3  C   UNL     1       6.366   4.617  18.385  0.00  0.00    +0.000 C 
ATOM      4  O   UNL     1       5.796   4.728  19.456  0.00  0.00    +0.000 OA
ATOM      5  O   UNL     1       7.723   4.446  18.216  0.00  0.00    +0.000 OA
ATOM      6  N   UNL     1       8.056   4.341  16.824  0.00  0.00    +0.000 NA
ATOM      7  C   UNL     1       6.950   4.443  16.147  0.00  0.00    +0.000 C 
ENDROOT
BRANCH   1  13
ATOM      8  C   UNL     1       3.656   7.203  17.633  0.00  0.00    +0.000 C 
ATOM      9  N   UNL     1       3.074   5.941  18.040  0.00  0.00    +0.000 N 
ATOM     10  C   UNL     1       2.062   5.820  18.960  0.00  0.00    +0.000 A 
ATOM     11  C   UNL     1       1.765   4.482  19.096  0.00  0.00    +0.000 A 
ATOM     12  C   UNL     1       2.628   3.769  18.232  0.00  0.00    +0.000 A 
ATOM     13  C   UNL     1       3.433   4.691  17.588  0.00  0.00    +0.000 A 
ENDBRANCH   1  13
BRANCH   7  14
ATOM     14  C   UNL     1       6.915   4.443  14.676  0.00  0.00    +0.000 A 
ATOM     15  C   UNL     1       6.085   3.520  14.027  0.00  0.00    +0.000 A 
ATOM     16  C   UNL     1       6.051   3.469  12.632  0.00  0.00    +0.000 A 
ATOM     17  C   UNL     1       6.845   4.336  11.881  0.00  0.00    +0.000 A 
ATOM     18  C   UNL     1       7.687   5.243  12.522  0.00  0.00    +0.000 A 
ATOM     19  C   UNL     1       7.737   5.285  13.916  0.00  0.00    +0.000 A 
ENDBRANCH   7  14
TORSDOF 2
ENDMDL
MODEL 7
REMARK VINA RESULT:      -7.8      1.114      1.706
REMARK  Name = 
REMARK  3 active torsions:
REMARK  status: ('A' for Active; 'I' for Inactive)
REMARK    1  A    between atoms: C_1  and  N_2
REMARK    2  A    between atoms: C_6  and  C_7
REMARK    3  A    between atoms: C_13  and  C_14
REMARK                            x       y       z     vdW  Elec       q    Type
REMARK                         _______ _______ _______ _____ _____    ______ ____
ROOT
ATOM      1  C   UNL     1       4.696   5.171  16.911  0.00  0.00    +0.000 C 
ATOM      2  C   UNL     1       5.984   4.963  17.216  0.00  0.00    +0.000 C 
ATOM      3  C   UNL     1       6.628   5.001  18.541  0.00  0.00    +0.000 C 
ATOM      4  O   UNL     1       6.149   5.312  19.617  0.00  0.00    +0.000 OA
ATOM      5  O   UNL     1       7.910   4.539  18.341  0.00  0.00    +0.000 OA
ATOM      6  N   UNL     1       8.142   4.259  16.952  0.00  0.00    +0.000 NA
ATOM      7  C   UNL     1       7.047   4.536  16.307  0.00  0.00    +0.000 C 
ENDROOT
BRANCH   1  13
ATOM      8  C   UNL     1       3.129   3.288  18.580  0.00  0.00    +0.000 C 
ATOM      9  N   UNL     1       2.999   4.731  18.589  0.00  0.00    +0.000 N 
ATOM     10  C   UNL     1       2.095   5.418  19.361  0.00  0.00    +0.000 A 
ATOM     11  C   UNL     1       2.255   6.763  19.112  0.00  0.00    +0.000 A 
ATOM     12  C   UNL     1       3.288   6.894  18.155  0.00  0.00    +0.000 A 
ATOM     13  C   UNL     1       3.734   5.623  17.842  0.00  0.00    +0.000 A 
ENDBRANCH   1  13
BRANCH   7  14
ATOM     14  C   UNL     1       6.936   4.429  14.844  0.00  0.00    +0.000 A 
ATOM     15  C   UNL     1       7.732   5.263  14.049  0.00  0.00    +0.000 A 
ATOM     16  C   UNL     1       7.628   5.213  12.658  0.00  0.00    +0.000 A 
ATOM     17  C   UNL     1       6.731   4.332  12.055  0.00  0.00    +0.000 A 
ATOM     18  C   UNL     1       5.922   3.513  12.842  0.00  0.00    +0.000 A 
ATOM     19  C   UNL     1       6.010   3.574  14.233  0.00  0.00    +0.000 A 
ENDBRANCH   7  14
TORSDOF 2
ENDMDL
MODEL 8
REMARK VINA RESULT:      -7.7      1.175      2.088
REMARK  Name = 
REMARK  3 active torsions:
REMARK  status: ('A' for Active; 'I' for Inactive)
REMARK    1  A    between atoms: C_1  and  N_2
REMARK    2  A    between atoms: C_6  and  C_7
REMARK    3  A    between atoms: C_13  and  C_14
REMARK                            x       y       z     vdW  Elec       q    Type
REMARK                         _______ _______ _______ _____ _____    ______ ____
ROOT
ATOM      1  C   UNL     1       4.531   4.615  16.888  0.00  0.00    +0.000 C 
ATOM      2  C   UNL     1       5.833   4.631  17.203  0.00  0.00    +0.000 C 
ATOM      3  C   UNL     1       6.451   4.737  18.536  0.00  0.00    +0.000 C 
ATOM      4  O   UNL     1       5.917   4.918  19.616  0.00  0.00    +0.000 OA
ATOM      5  O   UNL     1       7.796   4.520  18.337  0.00  0.00    +0.000 OA
ATOM      6  N   UNL     1       8.084   4.335  16.943  0.00  0.00    +0.000 NA
ATOM      7  C   UNL     1       6.961   4.435  16.294  0.00  0.00    +0.000 C 
ENDROOT
BRANCH   1  13
ATOM      8  C   UNL     1       3.650   7.361  17.577  0.00  0.00    +0.000 C 
ATOM      9  N   UNL     1       3.121   6.138  18.147  0.00  0.00    +0.000 N 
ATOM     10  C   UNL     1       2.151   6.098  19.117  0.00  0.00    +0.000 A 
ATOM     11  C   UNL     1       1.898   4.777  19.415  0.00  0.00    +0.000 A 
ATOM     12  C   UNL     1       2.746   3.992  18.599  0.00  0.00    +0.000 A 
ATOM     13  C   UNL     1       3.497   4.854  17.822  0.00  0.00    +0.000 A 
ENDBRANCH   1  13
BRANCH   7  14
ATOM     14  C   UNL     1       6.881   4.361  14.826  0.00  0.00    +0.000 A 
ATOM     15  C   UNL     1       7.718   5.189  14.068  0.00  0.00    +0.000 A 
ATOM     16  C   UNL     1       7.645   5.171  12.674  0.00  0.00    +0.000 A 
ATOM     17  C   UNL     1       6.738   4.329  12.033  0.00  0.00    +0.000 A 
ATOM     18  C   UNL     1       5.888   3.517  12.782  0.00  0.00    +0.000 A 
ATOM     19  C   UNL     1       5.946   3.546  14.177  0.00  0.00    +0.000 A 
ENDBRANCH   7  14
TORSDOF 2
ENDMDL
MODEL 9
REMARK VINA RESULT:      -7.4      2.957      6.458
REMARK  Name = 
REMARK  3 active torsions:
REMARK  status: ('A' for Active; 'I' for Inactive)
REMARK    1  A    between atoms: C_1  and  N_2
REMARK    2  A    between atoms: C_6  and  C_7
REMARK    3  A    between atoms: C_13  and  C_14
REMARK                            x       y       z     vdW  Elec       q    Type
REMARK                         _______ _______ _______ _____ _____    ______ ____
ROOT
ATOM      1  C   UNL     1       4.391   6.100  17.745  0.00  0.00    +0.000 C 
ATOM      2  C   UNL     1       3.659   5.553  18.724  0.00  0.00    +0.000 C 
ATOM      3  C   UNL     1       3.756   4.196  19.290  0.00  0.00    +0.000 C 
ATOM      4  O   UNL     1       4.457   3.266  18.934  0.00  0.00    +0.000 OA
ATOM      5  O   UNL     1       2.920   4.193  20.385  0.00  0.00    +0.000 OA
ATOM      6  N   UNL     1       2.249   5.454  20.520  0.00  0.00    +0.000 NA
ATOM      7  C   UNL     1       2.649   6.218  19.546  0.00  0.00    +0.000 C 
ENDROOT
BRANCH   1  13
ATOM      8  C   UNL     1       7.251   5.913  18.501  0.00  0.00    +0.000 C 
ATOM      9  N   UNL     1       6.651   5.324  17.321  0.00  0.00    +0.000 N 
ATOM     10  C   UNL     1       7.350   4.620  16.372  0.00  0.00    +0.000 A 
ATOM     11  C   UNL     1       6.461   4.213  15.401  0.00  0.00    +0.000 A 
ATOM     12  C   UNL     1       5.183   4.689  15.775  0.00  0.00    +0.000 A 
ATOM     13  C   UNL     1       5.322   5.377  16.966  0.00  0.00    +0.000 A 
ENDBRANCH   1  13
BRANCH   7  14
ATOM     14  C   UNL     1       2.120   7.574  19.329  0.00  0.00    +0.000 A 
ATOM     15  C   UNL     1       1.510   8.235  20.403  0.00  0.00    +0.000 A 
ATOM     16  C   UNL     1       0.967   9.508  20.224  0.00  0.00    +0.000 A 
ATOM     17  C   UNL     1       1.029  10.126  18.975  0.00  0.00    +0.000 A 
ATOM     18  C   UNL     1       1.617   9.465  17.898  0.00  0.00    +0.000 A 
ATOM     19  C   UNL     1       2.146   8.184  18.068  0.00  0.00    +0.000 A 
ENDBRANCH   7  14
TORSDOF 2
ENDMDL
