MODEL 1
REMARK VINA RESULT:      -8.2      0.000      0.000
REMARK  Name = 
REMARK  6 active torsions:
REMARK  status: ('A' for Active; 'I' for Inactive)
REMARK    1  A    between atoms: C_1  and  C_2
REMARK    2  A    between atoms: C_5  and  C_6
REMARK    3  A    between atoms: C_15  and  C_16
REMARK    4  A    between atoms: C_16  and  N_17
REMARK    5  A    between atoms: N_20  and  C_21
REMARK    6  A    between atoms: C_21  and  C_22
REMARK                            x       y       z     vdW  Elec       q    Type
REMARK                         _______ _______ _______ _____ _____    ______ ____
ROOT
ATOM      1  C   UNL     1       2.784   7.359  18.501  0.00  0.00    +0.000 A 
ATOM      2  C   UNL     1       2.466   8.504  17.746  0.00  0.00    +0.000 A 
ATOM      3  C   UNL     1       1.620   9.503  18.241  0.00  0.00    +0.000 A 
ATOM      4  C   UNL     1       1.081   9.356  19.525  0.00  0.00    +0.000 A 
ATOM      5  N   UNL     1       0.293  10.216  20.239  0.00  0.00    +0.000 NA
ATOM      6  C   UNL     1       0.030   9.611  21.375  0.00  0.00    +0.000 A 
ATOM      7  N   UNL     1      -0.705  10.031  22.421  0.00  0.00    +0.000 N 
ATOM      8  C   UNL     1      -1.159  11.338  22.662  0.00  0.00    +0.000 A 
ATOM      9  C   UNL     1      -0.461  12.473  22.249  0.00  0.00    +0.000 A 
ATOM     10  C   UNL     1      -0.863  13.749  22.685  0.00  0.00    +0.000 A 
ATOM     11  C   UNL     1      -2.058  13.850  23.391  0.00  0.00    +0.000 A 
ATOM     12  C   UNL     1      -2.717  12.680  23.729  0.00  0.00    +0.000 A 
ATOM     13  N   UNL     1      -2.274  11.438  23.418  0.00  0.00    +0.000 NA
ATOM     14  N   UNL     1       0.629   8.370  21.408  0.00  0.00    +0.000 N 
ATOM     15  C   UNL     1       1.358   8.204  20.251  0.00  0.00    +0.000 A 
ATOM     16  C   UNL     1       2.205   7.191  19.780  0.00  0.00    +0.000 A 
ATOM     17  H   UNL     1      -1.319   9.393  22.915  0.00  0.00    +0.000 HD
ATOM     18  H   UNL     1       0.586   7.726  22.181  0.00  0.00    +0.000 HD
ENDROOT
BRANCH   1  23
ATOM     19  C   UNL     1       6.136   4.713  16.031  0.00  0.00    +0.000 C 
ATOM     20  C   UNL     1       5.092   5.136  16.982  0.00  0.00    +0.000 A 
ATOM     21  N   UNL     1       4.698   4.362  18.001  0.00  0.00    +0.000 NA
ATOM     22  O   UNL     1       3.763   5.159  18.659  0.00  0.00    +0.000 OA
ATOM     23  C   UNL     1       3.691   6.342  17.969  0.00  0.00    +0.000 A 
ATOM     24  N   UNL     1       4.484   6.367  16.918  0.00  0.00    +0.000 NA
ENDBRANCH   1  23
BRANCH  10  25
ATOM     25  C   UNL     1       0.001  14.959  22.376  0.00  0.00    +0.000 C 
BRANCH  25  26
ATOM     26  N   UNL     1      -0.588  15.958  21.449  0.00  0.00    +0.000 NA
ATOM     27  C   UNL     1       0.208  17.193  21.317  0.00  0.00    +0.000 C 
ATOM     28  C   UNL     1       1.597  17.021  20.662  0.00  0.00    +0.000 C 
ATOM     29  N   UNL     1       1.675  16.173  19.459  0.00  0.00    +0.000 NA
ATOM     30  C   UNL     1       0.654  15.114  19.389  0.00  0.00    +0.000 C 
ATOM     31  C   UNL     1      -0.702  15.396  20.084  0.00  0.00    +0.000 C 
BRANCH  29  32
ATOM     32  C   UNL     1       1.825  16.930  18.197  0.00  0.00    +0.000 C 
BRANCH  32  33
ATOM     33  C   UNL     1       3.066  16.651  17.307  0.00  0.00    +0.000 C 
ATOM     34  F   UNL     1       4.225  17.084  17.852  0.00  0.00    +0.000 F 
ATOM     35  F   UNL     1       3.205  15.324  17.071  0.00  0.00    +0.000 F 
ATOM     36  F   UNL     1       2.934  17.261  16.105  0.00  0.00    +0.000 F 
ENDBRANCH  32  33
ENDBRANCH  29  32
ENDBRANCH  25  26
ENDBRANCH  10  25
TORSDOF 5
ENDMDL
MODEL 2
REMARK VINA RESULT:      -8.0      0.908      1.424
REMARK  Name = 
REMARK  6 active torsions:
REMARK  status: ('A' for Active; 'I' for Inactive)
REMARK    1  A    between atoms: C_1  and  C_2
REMARK    2  A    between atoms: C_5  and  C_6
REMARK    3  A    between atoms: C_15  and  C_16
REMARK    4  A    between atoms: C_16  and  N_17
REMARK    5  A    between atoms: N_20  and  C_21
REMARK    6  A    between atoms: C_21  and  C_22
REMARK                            x       y       z     vdW  Elec       q    Type
REMARK                         _______ _______ _______ _____ _____    ______ ____
ROOT
ATOM      1  C   UNL     1       3.225   6.827  18.325  0.00  0.00    +0.000 A 
ATOM      2  C   UNL     1       2.781   7.881  17.503  0.00  0.00    +0.000 A 
ATOM      3  C   UNL     1       1.907   8.867  17.976  0.00  0.00    +0.000 A 
ATOM      4  C   UNL     1       1.469   8.801  19.304  0.00  0.00    +0.000 A 
ATOM      5  N   UNL     1       0.678   9.671  20.001  0.00  0.00    +0.000 NA
ATOM      6  C   UNL     1       0.535   9.153  21.200  0.00  0.00    +0.000 A 
ATOM      7  N   UNL     1      -0.151   9.619  22.260  0.00  0.00    +0.000 N 
ATOM      8  C   UNL     1      -0.673  10.912  22.425  0.00  0.00    +0.000 A 
ATOM      9  C   UNL     1      -0.082  12.047  21.868  0.00  0.00    +0.000 A 
ATOM     10  C   UNL     1      -0.535  13.329  22.225  0.00  0.00    +0.000 A 
ATOM     11  C   UNL     1      -1.682  13.420  23.009  0.00  0.00    +0.000 A 
ATOM     12  C   UNL     1      -2.237  12.247  23.491  0.00  0.00    +0.000 A 
ATOM     13  N   UNL     1      -1.737  11.011  23.251  0.00  0.00    +0.000 NA
ATOM     14  N   UNL     1       1.216   7.957  21.291  0.00  0.00    +0.000 N 
ATOM     15  C   UNL     1       1.872   7.735  20.100  0.00  0.00    +0.000 A 
ATOM     16  C   UNL     1       2.749   6.737  19.653  0.00  0.00    +0.000 A 
ATOM     17  H   UNL     1      -0.686   8.990  22.849  0.00  0.00    +0.000 HD
ATOM     18  H   UNL     1       1.269   7.383  22.116  0.00  0.00    +0.000 HD
ENDROOT
BRANCH   1  23
ATOM     19  C   UNL     1       6.281   3.997  15.680  0.00  0.00    +0.000 C 
ATOM     20  C   UNL     1       5.470   4.561  16.775  0.00  0.00    +0.000 A 
ATOM     21  N   UNL     1       5.559   4.113  18.033  0.00  0.00    +0.000 NA
ATOM     22  O   UNL     1       4.685   4.949  18.727  0.00  0.00    +0.000 OA
ATOM     23  C   UNL     1       4.158   5.824  17.812  0.00  0.00    +0.000 A 
ATOM     24  N   UNL     1       4.605   5.612  16.592  0.00  0.00    +0.000 NA
ENDBRANCH   1  23
BRANCH  10  25
ATOM     25  C   UNL     1       0.223  14.556  21.754  0.00  0.00    +0.000 C 
BRANCH  25  26
ATOM     26  N   UNL     1       1.182  14.340  20.641  0.00  0.00    +0.000 NA
ATOM     27  C   UNL     1       0.568  14.407  19.301  0.00  0.00    +0.000 C 
ATOM     28  C   UNL     1       0.009  15.790  18.895  0.00  0.00    +0.000 C 
ATOM     29  N   UNL     1       0.846  16.967  19.187  0.00  0.00    +0.000 NA
ATOM     30  C   UNL     1       1.745  16.808  20.343  0.00  0.00    +0.000 C 
ATOM     31  C   UNL     1       2.240  15.375  20.658  0.00  0.00    +0.000 C 
BRANCH  29  32
ATOM     32  C   UNL     1       1.513  17.541  17.998  0.00  0.00    +0.000 C 
BRANCH  32  33
ATOM     33  C   UNL     1       2.774  16.828  17.439  0.00  0.00    +0.000 C 
ATOM     34  F   UNL     1       2.676  15.480  17.448  0.00  0.00    +0.000 F 
ATOM     35  F   UNL     1       3.018  17.205  16.161  0.00  0.00    +0.000 F 
ATOM     36  F   UNL     1       3.866  17.157  18.170  0.00  0.00    +0.000 F 
ENDBRANCH  32  33
ENDBRANCH  29  32
ENDBRANCH  25  26
ENDBRANCH  10  25
TORSDOF 5
ENDMDL
MODEL 3
REMARK VINA RESULT:      -7.8      1.114      1.621
REMARK  Name = 
REMARK  6 active torsions:
REMARK  status: ('A' for Active; 'I' for Inactive)
REMARK    1  A    between atoms: C_1  and  C_2
REMARK    2  A    between atoms: C_5  and  C_6
REMARK    3  A    between atoms: C_15  and  C_16
REMARK    4  A    between atoms: C_16  and  N_17
REMARK    5  A    between atoms: N_20  and  C_21
REMARK    6  A    between atoms: C_21  and  C_22
REMARK                            x       y       z     vdW  Elec       q    Type
REMARK                         _______ _______ _______ _____ _____    ______ ____
ROOT
ATOM      1  C   UNL     1       2.780   7.157  18.770  0.00  0.00    +0.000 A 
ATOM      2  C   UNL     1       2.456   8.249  17.943  0.00  0.00    +0.000 A 
ATOM      3  C   UNL     1       1.607   9.276  18.374  0.00  0.00    +0.000 A 
ATOM      4  C   UNL     1       1.073   9.211  19.666  0.00  0.00    +0.000 A 
ATOM      5  N   UNL     1       0.284  10.113  20.325  0.00  0.00    +0.000 NA
ATOM      6  C   UNL     1       0.027   9.583  21.500  0.00  0.00    +0.000 A 
ATOM      7  N   UNL     1      -0.705  10.068  22.519  0.00  0.00    +0.000 N 
ATOM      8  C   UNL     1      -1.164  11.386  22.675  0.00  0.00    +0.000 A 
ATOM      9  C   UNL     1      -0.472  12.495  22.186  0.00  0.00    +0.000 A 
ATOM     10  C   UNL     1      -0.877  13.795  22.539  0.00  0.00    +0.000 A 
ATOM     11  C   UNL     1      -2.070  13.937  23.242  0.00  0.00    +0.000 A 
ATOM     12  C   UNL     1      -2.723  12.790  23.658  0.00  0.00    +0.000 A 
ATOM     13  N   UNL     1      -2.277  11.532  23.427  0.00  0.00    +0.000 NA
ATOM     14  N   UNL     1       0.631   8.348  21.612  0.00  0.00    +0.000 N 
ATOM     15  C   UNL     1       1.358   8.110  20.466  0.00  0.00    +0.000 A 
ATOM     16  C   UNL     1       2.207   7.071  20.060  0.00  0.00    +0.000 A 
ATOM     17  H   UNL     1      -1.315   9.461  23.055  0.00  0.00    +0.000 HD
ATOM     18  H   UNL     1       0.594   7.757  22.426  0.00  0.00    +0.000 HD
ENDROOT
BRANCH   1  23
ATOM     19  C   UNL     1       5.650   4.054  16.226  0.00  0.00    +0.000 C 
ATOM     20  C   UNL     1       4.933   4.745  17.313  0.00  0.00    +0.000 A 
ATOM     21  N   UNL     1       5.158   4.471  18.604  0.00  0.00    +0.000 NA
ATOM     22  O   UNL     1       4.331   5.376  19.267  0.00  0.00    +0.000 OA
ATOM     23  C   UNL     1       3.690   6.111  18.302  0.00  0.00    +0.000 A 
ATOM     24  N   UNL     1       4.022   5.746  17.082  0.00  0.00    +0.000 NA
ENDBRANCH   1  23
BRANCH  10  25
ATOM     25  C   UNL     1      -0.019  14.984  22.149  0.00  0.00    +0.000 C 
BRANCH  25  26
ATOM     26  N   UNL     1       0.600  14.924  20.800  0.00  0.00    +0.000 NA
ATOM     27  C   UNL     1      -0.302  15.339  19.709  0.00  0.00    +0.000 C 
ATOM     28  C   UNL     1      -0.731  16.824  19.730  0.00  0.00    +0.000 C 
ATOM     29  N   UNL     1       0.316  17.825  20.002  0.00  0.00    +0.000 NA
ATOM     30  C   UNL     1       1.433  17.334  20.827  0.00  0.00    +0.000 C 
ATOM     31  C   UNL     1       1.772  15.825  20.727  0.00  0.00    +0.000 C 
BRANCH  29  32
ATOM     32  C   UNL     1       0.755  18.577  18.806  0.00  0.00    +0.000 C 
BRANCH  32  33
ATOM     33  C   UNL     1       0.849  17.825  17.451  0.00  0.00    +0.000 C 
ATOM     34  F   UNL     1      -0.342  17.360  17.011  0.00  0.00    +0.000 F 
ATOM     35  F   UNL     1       1.347  18.631  16.482  0.00  0.00    +0.000 F 
ATOM     36  F   UNL     1       1.682  16.762  17.556  0.00  0.00    +0.000 F 
ENDBRANCH  32  33
ENDBRANCH  29  32
ENDBRANCH  25  26
ENDBRANCH  10  25
TORSDOF 5
ENDMDL
MODEL 4
REMARK VINA RESULT:      -7.8      1.311      1.520
REMARK  Name = 
REMARK  6 active torsions:
REMARK  status: ('A' for Active; 'I' for Inactive)
REMARK    1  A    between atoms: C_1  and  C_2
REMARK    2  A    between atoms: C_5  and  C_6
REMARK    3  A    between atoms: C_15  and  C_16
REMARK    4  A    between atoms: C_16  and  N_17
REMARK    5  A    between atoms: N_20  and  C_21
REMARK    6  A    between atoms: C_21  and  C_22
REMARK                            x       y       z     vdW  Elec       q    Type
REMARK                         _______ _______ _______ _____ _____    ______ ____
ROOT
ATOM      1  C   UNL     1       3.047   6.923  18.335  0.00  0.00    +0.000 A 
ATOM      2  C   UNL     1       2.737   8.033  17.525  0.00  0.00    +0.000 A 
ATOM      3  C   UNL     1       1.919   9.074  17.981  0.00  0.00    +0.000 A 
ATOM      4  C   UNL     1       1.402   9.006  19.280  0.00  0.00    +0.000 A 
ATOM      5  N   UNL     1       0.644   9.919  19.961  0.00  0.00    +0.000 NA
ATOM      6  C   UNL     1       0.392   9.380  21.133  0.00  0.00    +0.000 A 
ATOM      7  N   UNL     1      -0.314   9.870  22.168  0.00  0.00    +0.000 N 
ATOM      8  C   UNL     1      -0.739  11.197  22.346  0.00  0.00    +0.000 A 
ATOM      9  C   UNL     1      -0.028  12.294  21.860  0.00  0.00    +0.000 A 
ATOM     10  C   UNL     1      -0.396  13.599  22.234  0.00  0.00    +0.000 A 
ATOM     11  C   UNL     1      -1.575  13.762  22.956  0.00  0.00    +0.000 A 
ATOM     12  C   UNL     1      -2.250  12.625  23.368  0.00  0.00    +0.000 A 
ATOM     13  N   UNL     1      -1.837  11.360  23.116  0.00  0.00    +0.000 NA
ATOM     14  N   UNL     1       0.968   8.131  21.221  0.00  0.00    +0.000 N 
ATOM     15  C   UNL     1       1.672   7.888  20.062  0.00  0.00    +0.000 A 
ATOM     16  C   UNL     1       2.490   6.835  19.631  0.00  0.00    +0.000 A 
ATOM     17  H   UNL     1      -0.930   9.272  22.706  0.00  0.00    +0.000 HD
ATOM     18  H   UNL     1       0.928   7.530  22.029  0.00  0.00    +0.000 HD
ENDROOT
BRANCH   1  23
ATOM     19  C   UNL     1       6.099   3.981  15.812  0.00  0.00    +0.000 C 
ATOM     20  C   UNL     1       5.217   4.543  16.851  0.00  0.00    +0.000 A 
ATOM     21  N   UNL     1       5.087   3.981  18.058  0.00  0.00    +0.000 NA
ATOM     22  O   UNL     1       4.225   4.853  18.721  0.00  0.00    +0.000 OA
ATOM     23  C   UNL     1       3.925   5.862  17.842  0.00  0.00    +0.000 A 
ATOM     24  N   UNL     1       4.504   5.703  16.670  0.00  0.00    +0.000 NA
ENDBRANCH   1  23
BRANCH  10  25
ATOM     25  C   UNL     1       0.484  14.773  21.845  0.00  0.00    +0.000 C 
BRANCH  25  26
ATOM     26  N   UNL     1       0.402  15.205  20.426  0.00  0.00    +0.000 NA
ATOM     27  C   UNL     1       0.984  16.537  20.172  0.00  0.00    +0.000 C 
ATOM     28  C   UNL     1       2.511  16.646  20.388  0.00  0.00    +0.000 C 
ATOM     29  N   UNL     1       3.348  15.557  19.852  0.00  0.00    +0.000 NA
ATOM     30  C   UNL     1       2.673  14.251  19.769  0.00  0.00    +0.000 C 
ATOM     31  C   UNL     1       1.139  14.263  19.554  0.00  0.00    +0.000 C 
BRANCH  29  32
ATOM     32  C   UNL     1       4.087  15.917  18.622  0.00  0.00    +0.000 C 
BRANCH  32  33
ATOM     33  C   UNL     1       5.576  15.493  18.502  0.00  0.00    +0.000 C 
ATOM     34  F   UNL     1       6.016  14.773  19.559  0.00  0.00    +0.000 F 
ATOM     35  F   UNL     1       5.779  14.742  17.393  0.00  0.00    +0.000 F 
ATOM     36  F   UNL     1       6.372  16.585  18.399  0.00  0.00    +0.000 F 
ENDBRANCH  32  33
ENDBRANCH  29  32
ENDBRANCH  25  26
ENDBRANCH  10  25
TORSDOF 5
ENDMDL
MODEL 5
REMARK VINA RESULT:      -7.6      2.049      2.575
REMARK  Name = 
REMARK  6 active torsions:
REMARK  status: ('A' for Active; 'I' for Inactive)
REMARK    1  A    between atoms: C_1  and  C_2
REMARK    2  A    between atoms: C_5  and  C_6
REMARK    3  A    between atoms: C_15  and  C_16
REMARK    4  A    between atoms: C_16  and  N_17
REMARK    5  A    between atoms: N_20  and  C_21
REMARK    6  A    between atoms: C_21  and  C_22
REMARK                            x       y       z     vdW  Elec       q    Type
REMARK                         _______ _______ _______ _____ _____    ______ ____
ROOT
ATOM      1  C   UNL     1       2.443   6.691  19.264  0.00  0.00    +0.000 A 
ATOM      2  C   UNL     1       2.424   7.668  18.248  0.00  0.00    +0.000 A 
ATOM      3  C   UNL     1       1.832   8.921  18.441  0.00  0.00    +0.000 A 
ATOM      4  C   UNL     1       1.248   9.208  19.680  0.00  0.00    +0.000 A 
ATOM      5  N   UNL     1       0.674  10.369  20.121  0.00  0.00    +0.000 NA
ATOM      6  C   UNL     1       0.252  10.126  21.342  0.00  0.00    +0.000 A 
ATOM      7  N   UNL     1      -0.381  10.937  22.208  0.00  0.00    +0.000 N 
ATOM      8  C   UNL     1      -0.515  12.332  22.114  0.00  0.00    +0.000 A 
ATOM      9  C   UNL     1       0.443  13.148  21.510  0.00  0.00    +0.000 A 
ATOM     10  C   UNL     1       0.350  14.548  21.616  0.00  0.00    +0.000 A 
ATOM     11  C   UNL     1      -0.800  15.082  22.190  0.00  0.00    +0.000 A 
ATOM     12  C   UNL     1      -1.727  14.207  22.732  0.00  0.00    +0.000 A 
ATOM     13  N   UNL     1      -1.588  12.860  22.742  0.00  0.00    +0.000 NA
ATOM     14  N   UNL     1       0.536   8.824  21.697  0.00  0.00    +0.000 N 
ATOM     15  C   UNL     1       1.227   8.228  20.666  0.00  0.00    +0.000 A 
ATOM     16  C   UNL     1       1.816   6.967  20.500  0.00  0.00    +0.000 A 
ATOM     17  H   UNL     1      -1.140  10.591  22.785  0.00  0.00    +0.000 HD
ATOM     18  H   UNL     1       0.325   8.409  22.591  0.00  0.00    +0.000 HD
ENDROOT
BRANCH   1  23
ATOM     19  C   UNL     1       3.665   2.043  18.151  0.00  0.00    +0.000 C 
ATOM     20  C   UNL     1       3.708   3.444  18.606  0.00  0.00    +0.000 A 
ATOM     21  N   UNL     1       4.851   4.045  18.960  0.00  0.00    +0.000 NA
ATOM     22  O   UNL     1       4.445   5.345  19.256  0.00  0.00    +0.000 OA
ATOM     23  C   UNL     1       3.091   5.399  19.043  0.00  0.00    +0.000 A 
ATOM     24  N   UNL     1       2.592   4.244  18.654  0.00  0.00    +0.000 NA
ENDBRANCH   1  23
BRANCH  10  25
ATOM     25  C   UNL     1       1.483  15.420  21.110  0.00  0.00    +0.000 C 
BRANCH  25  26
ATOM     26  N   UNL     1       1.510  15.666  19.645  0.00  0.00    +0.000 NA
ATOM     27  C   UNL     1       2.372  16.793  19.244  0.00  0.00    +0.000 C 
ATOM     28  C   UNL     1       3.884  16.598  19.501  0.00  0.00    +0.000 C 
ATOM     29  N   UNL     1       4.466  15.292  19.140  0.00  0.00    +0.000 NA
ATOM     30  C   UNL     1       3.521  14.163  19.201  0.00  0.00    +0.000 C 
ATOM     31  C   UNL     1       2.029  14.478  18.930  0.00  0.00    +0.000 C 
BRANCH  29  32
ATOM     32  C   UNL     1       5.276  15.315  17.903  0.00  0.00    +0.000 C 
BRANCH  32  33
ATOM     33  C   UNL     1       6.658  14.606  17.909  0.00  0.00    +0.000 C 
ATOM     34  F   UNL     1       6.655  13.421  17.257  0.00  0.00    +0.000 F 
ATOM     35  F   UNL     1       7.604  15.382  17.327  0.00  0.00    +0.000 F 
ATOM     36  F   UNL     1       7.061  14.366  19.179  0.00  0.00    +0.000 F 
ENDBRANCH  32  33
ENDBRANCH  29  32
ENDBRANCH  25  26
ENDBRANCH  10  25
TORSDOF 5
ENDMDL
MODEL 6
REMARK VINA RESULT:      -7.6      2.298      3.064
REMARK  Name = 
REMARK  6 active torsions:
REMARK  status: ('A' for Active; 'I' for Inactive)
REMARK    1  A    between atoms: C_1  and  C_2
REMARK    2  A    between atoms: C_5  and  C_6
REMARK    3  A    between atoms: C_15  and  C_16
REMARK    4  A    between atoms: C_16  and  N_17
REMARK    5  A    between atoms: N_20  and  C_21
REMARK    6  A    between atoms: C_21  and  C_22
REMARK                            x       y       z     vdW  Elec       q    Type
REMARK                         _______ _______ _______ _____ _____    ______ ____
ROOT
ATOM      1  C   UNL     1       2.655   6.920  19.118  0.00  0.00    +0.000 A 
ATOM      2  C   UNL     1       2.587   7.646  17.913  0.00  0.00    +0.000 A 
ATOM      3  C   UNL     1       1.903   8.864  17.822  0.00  0.00    +0.000 A 
ATOM      4  C   UNL     1       1.274   9.371  18.965  0.00  0.00    +0.000 A 
ATOM      5  N   UNL     1       0.610  10.554  19.137  0.00  0.00    +0.000 NA
ATOM      6  C   UNL     1       0.180  10.553  20.379  0.00  0.00    +0.000 A 
ATOM      7  N   UNL     1      -0.527  11.486  21.043  0.00  0.00    +0.000 N 
ATOM      8  C   UNL     1      -0.758  12.812  20.644  0.00  0.00    +0.000 A 
ATOM      9  C   UNL     1       0.151  13.545  19.880  0.00  0.00    +0.000 A 
ATOM     10  C   UNL     1      -0.045  14.923  19.675  0.00  0.00    +0.000 A 
ATOM     11  C   UNL     1      -1.242  15.483  20.112  0.00  0.00    +0.000 A 
ATOM     12  C   UNL     1      -2.114  14.681  20.829  0.00  0.00    +0.000 A 
ATOM     13  N   UNL     1      -1.880  13.383  21.135  0.00  0.00    +0.000 NA
ATOM     14  N   UNL     1       0.549   9.386  21.014  0.00  0.00    +0.000 N 
ATOM     15  C   UNL     1       1.303   8.632  20.142  0.00  0.00    +0.000 A 
ATOM     16  C   UNL     1       1.984   7.412  20.261  0.00  0.00    +0.000 A 
ATOM     17  H   UNL     1      -1.271  11.219  21.678  0.00  0.00    +0.000 HD
ATOM     18  H   UNL     1       0.350   9.162  21.976  0.00  0.00    +0.000 HD
ENDROOT
BRANCH   1  23
ATOM     19  C   UNL     1       4.336   2.360  19.966  0.00  0.00    +0.000 C 
ATOM     20  C   UNL     1       4.199   3.750  19.493  0.00  0.00    +0.000 A 
ATOM     21  N   UNL     1       5.044   4.288  18.606  0.00  0.00    +0.000 NA
ATOM     22  O   UNL     1       4.517   5.563  18.403  0.00  0.00    +0.000 OA
ATOM     23  C   UNL     1       3.399   5.663  19.190  0.00  0.00    +0.000 A 
ATOM     24  N   UNL     1       3.172   4.571  19.891  0.00  0.00    +0.000 NA
ENDBRANCH   1  23
BRANCH  10  25
ATOM     25  C   UNL     1       1.034  15.745  18.995  0.00  0.00    +0.000 C 
BRANCH  25  26
ATOM     26  N   UNL     1       2.037  16.372  19.893  0.00  0.00    +0.000 NA
ATOM     27  C   UNL     1       2.802  15.405  20.702  0.00  0.00    +0.000 C 
ATOM     28  C   UNL     1       3.728  14.457  19.905  0.00  0.00    +0.000 C 
ATOM     29  N   UNL     1       4.539  15.055  18.829  0.00  0.00    +0.000 NA
ATOM     30  C   UNL     1       3.950  16.256  18.213  0.00  0.00    +0.000 C 
ATOM     31  C   UNL     1       3.036  17.130  19.107  0.00  0.00    +0.000 C 
BRANCH  29  32
ATOM     32  C   UNL     1       5.970  15.210  19.171  0.00  0.00    +0.000 C 
BRANCH  32  33
ATOM     33  C   UNL     1       7.032  14.625  18.201  0.00  0.00    +0.000 C 
ATOM     34  F   UNL     1       7.608  15.558  17.410  0.00  0.00    +0.000 F 
ATOM     35  F   UNL     1       8.026  14.009  18.885  0.00  0.00    +0.000 F 
ATOM     36  F   UNL     1       6.470  13.698  17.388  0.00  0.00    +0.000 F 
ENDBRANCH  32  33
ENDBRANCH  29  32
ENDBRANCH  25  26
ENDBRANCH  10  25
TORSDOF 5
ENDMDL
MODEL 7
REMARK VINA RESULT:      -7.5      1.075      1.550
REMARK  Name = 
REMARK  6 active torsions:
REMARK  status: ('A' for Active; 'I' for Inactive)
REMARK    1  A    between atoms: C_1  and  C_2
REMARK    2  A    between atoms: C_5  and  C_6
REMARK    3  A    between atoms: C_15  and  C_16
REMARK    4  A    between atoms: C_16  and  N_17
REMARK    5  A    between atoms: N_20  and  C_21
REMARK    6  A    between atoms: C_21  and  C_22
REMARK                            x       y       z     vdW  Elec       q    Type
REMARK                         _______ _______ _______ _____ _____    ______ ____
ROOT
ATOM      1  C   UNL     1       2.389   7.421  19.165  0.00  0.00    +0.000 A 
ATOM      2  C   UNL     1       2.101   8.498  18.305  0.00  0.00    +0.000 A 
ATOM      3  C   UNL     1       1.276   9.558  18.700  0.00  0.00    +0.000 A 
ATOM      4  C   UNL     1       0.728   9.543  19.988  0.00  0.00    +0.000 A 
ATOM      5  N   UNL     1      -0.043  10.483  20.613  0.00  0.00    +0.000 NA
ATOM      6  C   UNL     1      -0.325   9.992  21.799  0.00  0.00    +0.000 A 
ATOM      7  N   UNL     1      -1.054  10.524  22.797  0.00  0.00    +0.000 N 
ATOM      8  C   UNL     1      -1.479  11.857  22.913  0.00  0.00    +0.000 A 
ATOM      9  C   UNL     1      -0.753  12.933  22.401  0.00  0.00    +0.000 A 
ATOM     10  C   UNL     1      -1.127  14.253  22.714  0.00  0.00    +0.000 A 
ATOM     11  C   UNL     1      -2.322  14.446  23.400  0.00  0.00    +0.000 A 
ATOM     12  C   UNL     1      -3.010  13.328  23.841  0.00  0.00    +0.000 A 
ATOM     13  N   UNL     1      -2.595  12.052  23.649  0.00  0.00    +0.000 NA
ATOM     14  N   UNL     1       0.245   8.746  21.951  0.00  0.00    +0.000 N 
ATOM     15  C   UNL     1       0.976   8.456  20.819  0.00  0.00    +0.000 A 
ATOM     16  C   UNL     1       1.801   7.385  20.450  0.00  0.00    +0.000 A 
ATOM     17  H   UNL     1      -1.685   9.948  23.344  0.00  0.00    +0.000 HD
ATOM     18  H   UNL     1       0.184   8.178  22.781  0.00  0.00    +0.000 HD
ENDROOT
BRANCH   1  23
ATOM     19  C   UNL     1       5.324   4.265  16.764  0.00  0.00    +0.000 C 
ATOM     20  C   UNL     1       4.532   4.944  17.805  0.00  0.00    +0.000 A 
ATOM     21  N   UNL     1       4.584   4.580  19.092  0.00  0.00    +0.000 NA
ATOM     22  O   UNL     1       3.747   5.504  19.715  0.00  0.00    +0.000 OA
ATOM     23  C   UNL     1       3.275   6.339  18.735  0.00  0.00    +0.000 A 
ATOM     24  N   UNL     1       3.723   6.022  17.539  0.00  0.00    +0.000 NA
ENDBRANCH   1  23
BRANCH  10  25
ATOM     25  C   UNL     1      -0.234  15.408  22.301  0.00  0.00    +0.000 C 
BRANCH  25  26
ATOM     26  N   UNL     1       1.228  15.175  22.419  0.00  0.00    +0.000 NA
ATOM     27  C   UNL     1       1.759  14.203  21.445  0.00  0.00    +0.000 C 
ATOM     28  C   UNL     1       1.687  14.641  19.964  0.00  0.00    +0.000 C 
ATOM     29  N   UNL     1       2.086  16.025  19.650  0.00  0.00    +0.000 NA
ATOM     30  C   UNL     1       1.882  16.985  20.748  0.00  0.00    +0.000 C 
ATOM     31  C   UNL     1       1.974  16.433  22.192  0.00  0.00    +0.000 C 
BRANCH  29  32
ATOM     32  C   UNL     1       3.414  16.137  19.008  0.00  0.00    +0.000 C 
BRANCH  32  33
ATOM     33  C   UNL     1       3.596  15.566  17.576  0.00  0.00    +0.000 C 
ATOM     34  F   UNL     1       2.897  14.430  17.359  0.00  0.00    +0.000 F 
ATOM     35  F   UNL     1       3.202  16.465  16.642  0.00  0.00    +0.000 F 
ATOM     36  F   UNL     1       4.901  15.288  17.340  0.00  0.00    +0.000 F 
ENDBRANCH  32  33
ENDBRANCH  29  32
ENDBRANCH  25  26
ENDBRANCH  10  25
TORSDOF 5
ENDMDL
MODEL 8
REMARK VINA RESULT:      -7.5      0.813      1.347
REMARK  Name = 
REMARK  6 active torsions:
REMARK  status: ('A' for Active; 'I' for Inactive)
REMARK    1  A    between atoms: C_1  and  C_2
REMARK    2  A    between atoms: C_5  and  C_6
REMARK    3  A    between atoms: C_15  and  C_16
REMARK    4  A    between atoms: C_16  and  N_17
REMARK    5  A    between atoms: N_20  and  C_21
REMARK    6  A    between atoms: C_21  and  C_22
REMARK                            x       y       z     vdW  Elec       q    Type
REMARK                         _______ _______ _______ _____ _____    ______ ____
ROOT
ATOM      1  C   UNL     1       2.587   7.105  18.984  0.00  0.00    +0.000 A 
ATOM      2  C   UNL     1       2.285   8.172  18.115  0.00  0.00    +0.000 A 
ATOM      3  C   UNL     1       1.463   9.235  18.510  0.00  0.00    +0.000 A 
ATOM      4  C   UNL     1       0.934   9.233  19.806  0.00  0.00    +0.000 A 
ATOM      5  N   UNL     1       0.169  10.178  20.432  0.00  0.00    +0.000 NA
ATOM      6  C   UNL     1      -0.094   9.700  21.627  0.00  0.00    +0.000 A 
ATOM      7  N   UNL     1      -0.810  10.242  22.630  0.00  0.00    +0.000 N 
ATOM      8  C   UNL     1      -1.237  11.575  22.736  0.00  0.00    +0.000 A 
ATOM      9  C   UNL     1      -0.521  12.648  22.202  0.00  0.00    +0.000 A 
ATOM     10  C   UNL     1      -0.894  13.970  22.505  0.00  0.00    +0.000 A 
ATOM     11  C   UNL     1      -2.079  14.168  23.206  0.00  0.00    +0.000 A 
ATOM     12  C   UNL     1      -2.758  13.053  23.670  0.00  0.00    +0.000 A 
ATOM     13  N   UNL     1      -2.343  11.777  23.486  0.00  0.00    +0.000 NA
ATOM     14  N   UNL     1       0.481   8.457  21.785  0.00  0.00    +0.000 N 
ATOM     15  C   UNL     1       1.196   8.157  20.646  0.00  0.00    +0.000 A 
ATOM     16  C   UNL     1       2.018   7.083  20.278  0.00  0.00    +0.000 A 
ATOM     17  H   UNL     1      -1.432   9.671  23.192  0.00  0.00    +0.000 HD
ATOM     18  H   UNL     1       0.433   7.899  22.622  0.00  0.00    +0.000 HD
ENDROOT
BRANCH   1  23
ATOM     19  C   UNL     1       5.310   3.790  16.547  0.00  0.00    +0.000 C 
ATOM     20  C   UNL     1       4.656   4.572  17.612  0.00  0.00    +0.000 A 
ATOM     21  N   UNL     1       4.955   4.406  18.906  0.00  0.00    +0.000 NA
ATOM     22  O   UNL     1       4.166   5.367  19.537  0.00  0.00    +0.000 OA
ATOM     23  C   UNL     1       3.470   6.021  18.553  0.00  0.00    +0.000 A 
ATOM     24  N   UNL     1       3.731   5.554  17.350  0.00  0.00    +0.000 NA
ENDBRANCH   1  23
BRANCH  10  25
ATOM     25  C   UNL     1      -0.010  15.122  22.066  0.00  0.00    +0.000 C 
BRANCH  25  26
ATOM     26  N   UNL     1       1.012  14.802  21.037  0.00  0.00    +0.000 NA
ATOM     27  C   UNL     1       0.465  14.658  19.675  0.00  0.00    +0.000 C 
ATOM     28  C   UNL     1      -0.128  15.945  19.057  0.00  0.00    +0.000 C 
ATOM     29  N   UNL     1       0.645  17.189  19.221  0.00  0.00    +0.000 NA
ATOM     30  C   UNL     1       1.489  17.231  20.427  0.00  0.00    +0.000 C 
ATOM     31  C   UNL     1       2.025  15.878  20.959  0.00  0.00    +0.000 C 
BRANCH  29  32
ATOM     32  C   UNL     1       1.348  17.627  17.996  0.00  0.00    +0.000 C 
BRANCH  32  33
ATOM     33  C   UNL     1       2.651  16.890  17.585  0.00  0.00    +0.000 C 
ATOM     34  F   UNL     1       3.055  17.177  16.327  0.00  0.00    +0.000 F 
ATOM     35  F   UNL     1       3.671  17.208  18.417  0.00  0.00    +0.000 F 
ATOM     36  F   UNL     1       2.478  15.548  17.657  0.00  0.00    +0.000 F 
ENDBRANCH  32  33
ENDBRANCH  29  32
ENDBRANCH  25  26
ENDBRANCH  10  25
TORSDOF 5
ENDMDL
MODEL 9
REMARK VINA RESULT:      -7.5      1.296      1.817
REMARK  Name = 
REMARK  6 active torsions:
REMARK  status: ('A' for Active; 'I' for Inactive)
REMARK    1  A    between atoms: C_1  and  C_2
REMARK    2  A    between atoms: C_5  and  C_6
REMARK    3  A    between atoms: C_15  and  C_16
REMARK    4  A    between atoms: C_16  and  N_17
REMARK    5  A    between atoms: N_20  and  C_21
REMARK    6  A    between atoms: C_21  and  C_22
REMARK                            x       y       z     vdW  Elec       q    Type
REMARK                         _______ _______ _______ _____ _____    ______ ____
ROOT
ATOM      1  C   UNL     1       2.775   7.105  18.590  0.00  0.00    +0.000 A 
ATOM      2  C   UNL     1       2.527   8.241  17.794  0.00  0.00    +0.000 A 
ATOM      3  C   UNL     1       1.725   9.296  18.244  0.00  0.00    +0.000 A 
ATOM      4  C   UNL     1       1.161   9.218  19.523  0.00  0.00    +0.000 A 
ATOM      5  N   UNL     1       0.406  10.138  20.196  0.00  0.00    +0.000 NA
ATOM      6  C   UNL     1       0.097   9.584  21.347  0.00  0.00    +0.000 A 
ATOM      7  N   UNL     1      -0.631  10.074  22.367  0.00  0.00    +0.000 N 
ATOM      8  C   UNL     1      -1.022  11.408  22.559  0.00  0.00    +0.000 A 
ATOM      9  C   UNL     1      -0.261  12.494  22.123  0.00  0.00    +0.000 A 
ATOM     10  C   UNL     1      -0.604  13.801  22.512  0.00  0.00    +0.000 A 
ATOM     11  C   UNL     1      -1.803  13.984  23.196  0.00  0.00    +0.000 A 
ATOM     12  C   UNL     1      -2.525  12.861  23.559  0.00  0.00    +0.000 A 
ATOM     13  N   UNL     1      -2.142  11.589  23.294  0.00  0.00    +0.000 NA
ATOM     14  N   UNL     1       0.632   8.315  21.428  0.00  0.00    +0.000 N 
ATOM     15  C   UNL     1       1.369   8.076  20.289  0.00  0.00    +0.000 A 
ATOM     16  C   UNL     1       2.170   7.007  19.864  0.00  0.00    +0.000 A 
ATOM     17  H   UNL     1      -1.284   9.483  22.870  0.00  0.00    +0.000 HD
ATOM     18  H   UNL     1       0.545   7.700  22.221  0.00  0.00    +0.000 HD
ENDROOT
BRANCH   1  23
ATOM     19  C   UNL     1       6.096   4.243  16.329  0.00  0.00    +0.000 C 
ATOM     20  C   UNL     1       5.013   4.730  17.201  0.00  0.00    +0.000 A 
ATOM     21  N   UNL     1       4.469   3.969  18.159  0.00  0.00    +0.000 NA
ATOM     22  O   UNL     1       3.551   4.827  18.761  0.00  0.00    +0.000 OA
ATOM     23  C   UNL     1       3.637   6.028  18.104  0.00  0.00    +0.000 A 
ATOM     24  N   UNL     1       4.518   6.010  17.126  0.00  0.00    +0.000 NA
ENDBRANCH   1  23
BRANCH  10  25
ATOM     25  C   UNL     1       0.324  14.955  22.180  0.00  0.00    +0.000 C 
BRANCH  25  26
ATOM     26  N   UNL     1       1.766  14.618  22.071  0.00  0.00    +0.000 NA
ATOM     27  C   UNL     1       2.143  14.016  20.778  0.00  0.00    +0.000 C 
ATOM     28  C   UNL     1       2.001  14.941  19.548  0.00  0.00    +0.000 C 
ATOM     29  N   UNL     1       2.489  16.325  19.685  0.00  0.00    +0.000 NA
ATOM     30  C   UNL     1       2.446  16.857  21.058  0.00  0.00    +0.000 C 
ATOM     31  C   UNL     1       2.596  15.836  22.213  0.00  0.00    +0.000 C 
BRANCH  29  32
ATOM     32  C   UNL     1       3.771  16.582  18.994  0.00  0.00    +0.000 C 
BRANCH  32  33
ATOM     33  C   UNL     1       4.862  15.477  19.021  0.00  0.00    +0.000 C 
ATOM     34  F   UNL     1       4.518  14.368  18.329  0.00  0.00    +0.000 F 
ATOM     35  F   UNL     1       6.026  15.931  18.499  0.00  0.00    +0.000 F 
ATOM     36  F   UNL     1       5.116  15.094  20.295  0.00  0.00    +0.000 F 
ENDBRANCH  32  33
ENDBRANCH  29  32
ENDBRANCH  25  26
ENDBRANCH  10  25
TORSDOF 5
ENDMDL
