MODEL 1
REMARK VINA RESULT:      -6.6      0.000      0.000
REMARK  Name = 
REMARK  7 active torsions:
REMARK  status: ('A' for Active; 'I' for Inactive)
REMARK    1  A    between atoms: C_1  and  O_2
REMARK    2  A    between atoms: O_2  and  C_3
REMARK    3  A    between atoms: C_3  and  C_5
REMARK    4  A    between atoms: C_8  and  N_9
REMARK    5  A    between atoms: C_10  and  S_11
REMARK    6  A    between atoms: N_12  and  C_13
REMARK    7  A    between atoms: C_13  and  C_14
REMARK                            x       y       z     vdW  Elec       q    Type
REMARK                         _______ _______ _______ _____ _____    ______ ____
ROOT
ATOM      1  N   UNL     1       3.109   5.581  19.477  0.00  0.00    +0.000 N 
ATOM      2  C   UNL     1       4.306   5.115  18.984  0.00  0.00    +0.000 C 
ATOM      3  N   UNL     1       5.177   5.801  18.332  0.00  0.00    +0.000 NA
ATOM      4  H   UNL     1       2.468   4.864  19.790  0.00  0.00    +0.000 HD
ENDROOT
BRANCH   1   8
ATOM      5  C   UNL     1       1.199   9.344  19.044  0.00  0.00    +0.000 A 
ATOM      6  C   UNL     1       1.251   8.705  20.282  0.00  0.00    +0.000 A 
ATOM      7  C   UNL     1       1.913   7.473  20.416  0.00  0.00    +0.000 A 
ATOM      8  C   UNL     1       2.544   6.858  19.318  0.00  0.00    +0.000 A 
ATOM      9  C   UNL     1       2.518   7.537  18.099  0.00  0.00    +0.000 A 
ATOM     10  C   UNL     1       1.852   8.761  17.951  0.00  0.00    +0.000 A 
BRANCH   5  11
ATOM     11  C   UNL     1       0.488  10.633  18.840  0.00  0.00    +0.000 C 
ATOM     12  O   UNL     1       1.054  11.681  18.551  0.00  0.00    +0.000 OA
BRANCH  11  14
ATOM     13  C   UNL     1      -1.557  10.440  17.724  0.00  0.00    +0.000 C 
ATOM     14  O   UNL     1      -0.852  10.464  18.969  0.00  0.00    +0.000 OA
ENDBRANCH  11  14
ENDBRANCH   5  11
ENDBRANCH   1   8
BRANCH   2  15
ATOM     15  S   UNL     1       4.507   3.381  19.309  0.00  0.00    +0.000 S 
ATOM     16  H   UNL     1       3.531   2.941  18.508  0.00  0.00    +0.000 HD
ENDBRANCH   2  15
BRANCH   3  17
ATOM     17  C   UNL     1       6.410   5.170  17.859  0.00  0.00    +0.000 C 
BRANCH  17  18
ATOM     18  C   UNL     1       6.332   4.864  16.406  0.00  0.00    +0.000 A 
ATOM     19  C   UNL     1       5.531   4.044  15.636  0.00  0.00    +0.000 A 
ATOM     20  C   UNL     1       6.034   4.121  14.313  0.00  0.00    +0.000 A 
ATOM     21  C   UNL     1       7.095   4.992  14.357  0.00  0.00    +0.000 A 
ATOM     22  O   UNL     1       7.284   5.449  15.621  0.00  0.00    +0.000 OA
ENDBRANCH  17  18
ENDBRANCH   3  17
TORSDOF 6
ENDMDL
MODEL 2
REMARK VINA RESULT:      -6.6      0.633      1.183
REMARK  Name = 
REMARK  7 active torsions:
REMARK  status: ('A' for Active; 'I' for Inactive)
REMARK    1  A    between atoms: C_1  and  O_2
REMARK    2  A    between atoms: O_2  and  C_3
REMARK    3  A    between atoms: C_3  and  C_5
REMARK    4  A    between atoms: C_8  and  N_9
REMARK    5  A    between atoms: C_10  and  S_11
REMARK    6  A    between atoms: N_12  and  C_13
REMARK    7  A    between atoms: C_13  and  C_14
REMARK                            x       y       z     vdW  Elec       q    Type
REMARK                         _______ _______ _______ _____ _____    ______ ____
ROOT
ATOM      1  N   UNL     1       3.001   5.561  19.515  0.00  0.00    +0.000 N 
ATOM      2  C   UNL     1       4.180   5.044  19.028  0.00  0.00    +0.000 C 
ATOM      3  N   UNL     1       5.078   5.688  18.371  0.00  0.00    +0.000 NA
ATOM      4  H   UNL     1       2.333   4.872  19.834  0.00  0.00    +0.000 HD
ENDROOT
BRANCH   1   8
ATOM      5  C   UNL     1       1.238   9.390  19.041  0.00  0.00    +0.000 A 
ATOM      6  C   UNL     1       1.270   8.765  20.287  0.00  0.00    +0.000 A 
ATOM      7  C   UNL     1       1.884   7.509  20.434  0.00  0.00    +0.000 A 
ATOM      8  C   UNL     1       2.486   6.856  19.342  0.00  0.00    +0.000 A 
ATOM      9  C   UNL     1       2.482   7.521  18.114  0.00  0.00    +0.000 A 
ATOM     10  C   UNL     1       1.864   8.768  17.954  0.00  0.00    +0.000 A 
BRANCH   5  11
ATOM     11  C   UNL     1       0.578  10.703  18.823  0.00  0.00    +0.000 C 
ATOM     12  O   UNL     1      -0.497  10.835  18.250  0.00  0.00    +0.000 OA
BRANCH  11  14
ATOM     13  C   UNL     1       2.117  12.424  18.457  0.00  0.00    +0.000 C 
ATOM     14  O   UNL     1       1.305  11.701  19.386  0.00  0.00    +0.000 OA
ENDBRANCH  11  14
ENDBRANCH   5  11
ENDBRANCH   1   8
BRANCH   2  15
ATOM     15  S   UNL     1       4.314   3.307  19.372  0.00  0.00    +0.000 S 
ATOM     16  H   UNL     1       3.757   3.329  20.588  0.00  0.00    +0.000 HD
ENDBRANCH   2  15
BRANCH   3  17
ATOM     17  C   UNL     1       6.286   5.006  17.906  0.00  0.00    +0.000 C 
BRANCH  17  18
ATOM     18  C   UNL     1       6.243   4.781  16.437  0.00  0.00    +0.000 A 
ATOM     19  C   UNL     1       5.324   4.216  15.575  0.00  0.00    +0.000 A 
ATOM     20  C   UNL     1       5.928   4.212  14.293  0.00  0.00    +0.000 A 
ATOM     21  C   UNL     1       7.165   4.789  14.451  0.00  0.00    +0.000 A 
ATOM     22  O   UNL     1       7.365   5.139  15.746  0.00  0.00    +0.000 OA
ENDBRANCH  17  18
ENDBRANCH   3  17
TORSDOF 6
ENDMDL
MODEL 3
REMARK VINA RESULT:      -6.5      1.608      7.233
REMARK  Name = 
REMARK  7 active torsions:
REMARK  status: ('A' for Active; 'I' for Inactive)
REMARK    1  A    between atoms: C_1  and  O_2
REMARK    2  A    between atoms: O_2  and  C_3
REMARK    3  A    between atoms: C_3  and  C_5
REMARK    4  A    between atoms: C_8  and  N_9
REMARK    5  A    between atoms: C_10  and  S_11
REMARK    6  A    between atoms: N_12  and  C_13
REMARK    7  A    between atoms: C_13  and  C_14
REMARK                            x       y       z     vdW  Elec       q    Type
REMARK                         _______ _______ _______ _____ _____    ______ ____
ROOT
ATOM      1  N   UNL     1       3.764   3.888  19.156  0.00  0.00    +0.000 N 
ATOM      2  C   UNL     1       3.048   4.877  19.789  0.00  0.00    +0.000 C 
ATOM      3  N   UNL     1       2.930   6.097  19.400  0.00  0.00    +0.000 NA
ATOM      4  H   UNL     1       3.905   3.048  19.700  0.00  0.00    +0.000 HD
ENDROOT
BRANCH   1   8
ATOM      5  C   UNL     1       6.227   4.451  15.748  0.00  0.00    +0.000 A 
ATOM      6  C   UNL     1       6.734   4.623  17.036  0.00  0.00    +0.000 A 
ATOM      7  C   UNL     1       5.914   4.404  18.156  0.00  0.00    +0.000 A 
ATOM      8  C   UNL     1       4.573   4.000  18.013  0.00  0.00    +0.000 A 
ATOM      9  C   UNL     1       4.100   3.791  16.716  0.00  0.00    +0.000 A 
ATOM     10  C   UNL     1       4.906   4.016  15.592  0.00  0.00    +0.000 A 
BRANCH   5  11
ATOM     11  C   UNL     1       7.042   4.696  14.530  0.00  0.00    +0.000 C 
ATOM     12  O   UNL     1       7.972   5.494  14.485  0.00  0.00    +0.000 OA
BRANCH  11  14
ATOM     13  C   UNL     1       7.089   4.307  12.226  0.00  0.00    +0.000 C 
ATOM     14  O   UNL     1       6.642   3.886  13.518  0.00  0.00    +0.000 OA
ENDBRANCH  11  14
ENDBRANCH   5  11
ENDBRANCH   1   8
BRANCH   2  15
ATOM     15  S   UNL     1       2.315   4.282  21.293  0.00  0.00    +0.000 S 
ATOM     16  H   UNL     1       3.451   4.047  21.957  0.00  0.00    +0.000 HD
ENDBRANCH   2  15
BRANCH   3  17
ATOM     17  C   UNL     1       2.138   7.048  20.181  0.00  0.00    +0.000 C 
BRANCH  17  18
ATOM     18  C   UNL     1       1.781   8.242  19.369  0.00  0.00    +0.000 A 
ATOM     19  C   UNL     1       2.068   8.653  18.083  0.00  0.00    +0.000 A 
ATOM     20  C   UNL     1       1.508   9.948  17.942  0.00  0.00    +0.000 A 
ATOM     21  C   UNL     1       0.904  10.236  19.142  0.00  0.00    +0.000 A 
ATOM     22  O   UNL     1       1.062   9.208  20.014  0.00  0.00    +0.000 OA
ENDBRANCH  17  18
ENDBRANCH   3  17
TORSDOF 6
ENDMDL
MODEL 4
REMARK VINA RESULT:      -6.4      0.386      1.140
REMARK  Name = 
REMARK  7 active torsions:
REMARK  status: ('A' for Active; 'I' for Inactive)
REMARK    1  A    between atoms: C_1  and  O_2
REMARK    2  A    between atoms: O_2  and  C_3
REMARK    3  A    between atoms: C_3  and  C_5
REMARK    4  A    between atoms: C_8  and  N_9
REMARK    5  A    between atoms: C_10  and  S_11
REMARK    6  A    between atoms: N_12  and  C_13
REMARK    7  A    between atoms: C_13  and  C_14
REMARK                            x       y       z     vdW  Elec       q    Type
REMARK                         _______ _______ _______ _____ _____    ______ ____
ROOT
ATOM      1  N   UNL     1       2.997   5.310  19.645  0.00  0.00    +0.000 N 
ATOM      2  C   UNL     1       4.196   4.857  19.144  0.00  0.00    +0.000 C 
ATOM      3  N   UNL     1       5.052   5.550  18.482  0.00  0.00    +0.000 NA
ATOM      4  H   UNL     1       2.368   4.586  19.968  0.00  0.00    +0.000 HD
ENDROOT
BRANCH   1   8
ATOM      5  C   UNL     1       1.442   9.220  19.106  0.00  0.00    +0.000 A 
ATOM      6  C   UNL     1       1.980   8.508  18.034  0.00  0.00    +0.000 A 
ATOM      7  C   UNL     1       2.464   7.202  18.222  0.00  0.00    +0.000 A 
ATOM      8  C   UNL     1       2.413   6.577  19.483  0.00  0.00    +0.000 A 
ATOM      9  C   UNL     1       1.829   7.292  20.531  0.00  0.00    +0.000 A 
ATOM     10  C   UNL     1       1.352   8.598  20.357  0.00  0.00    +0.000 A 
BRANCH   5  11
ATOM     11  C   UNL     1       0.942  10.612  18.969  0.00  0.00    +0.000 C 
ATOM     12  O   UNL     1       1.613  11.532  18.516  0.00  0.00    +0.000 OA
BRANCH  11  14
ATOM     13  C   UNL     1      -1.276  10.895  18.289  0.00  0.00    +0.000 C 
ATOM     14  O   UNL     1      -0.354  10.695  19.363  0.00  0.00    +0.000 OA
ENDBRANCH  11  14
ENDBRANCH   5  11
ENDBRANCH   1   8
BRANCH   2  15
ATOM     15  S   UNL     1       4.423   3.128  19.479  0.00  0.00    +0.000 S 
ATOM     16  H   UNL     1       5.154   2.838  18.397  0.00  0.00    +0.000 HD
ENDBRANCH   2  15
BRANCH   3  17
ATOM     17  C   UNL     1       6.289   4.934  18.002  0.00  0.00    +0.000 C 
BRANCH  17  18
ATOM     18  C   UNL     1       6.249   4.725  16.530  0.00  0.00    +0.000 A 
ATOM     19  C   UNL     1       5.343   4.146  15.663  0.00  0.00    +0.000 A 
ATOM     20  C   UNL     1       5.944   4.174  14.380  0.00  0.00    +0.000 A 
ATOM     21  C   UNL     1       7.166   4.780  14.542  0.00  0.00    +0.000 A 
ATOM     22  O   UNL     1       7.360   5.119  15.841  0.00  0.00    +0.000 OA
ENDBRANCH  17  18
ENDBRANCH   3  17
TORSDOF 6
ENDMDL
MODEL 5
REMARK VINA RESULT:      -6.4      0.667      1.599
REMARK  Name = 
REMARK  7 active torsions:
REMARK  status: ('A' for Active; 'I' for Inactive)
REMARK    1  A    between atoms: C_1  and  O_2
REMARK    2  A    between atoms: O_2  and  C_3
REMARK    3  A    between atoms: C_3  and  C_5
REMARK    4  A    between atoms: C_8  and  N_9
REMARK    5  A    between atoms: C_10  and  S_11
REMARK    6  A    between atoms: N_12  and  C_13
REMARK    7  A    between atoms: C_13  and  C_14
REMARK                            x       y       z     vdW  Elec       q    Type
REMARK                         _______ _______ _______ _____ _____    ______ ____
ROOT
ATOM      1  N   UNL     1       3.049   5.475  19.496  0.00  0.00    +0.000 N 
ATOM      2  C   UNL     1       4.261   5.043  19.006  0.00  0.00    +0.000 C 
ATOM      3  N   UNL     1       5.106   5.747  18.342  0.00  0.00    +0.000 NA
ATOM      4  H   UNL     1       2.434   4.741  19.822  0.00  0.00    +0.000 HD
ENDROOT
BRANCH   1   8
ATOM      5  C   UNL     1       1.415   9.344  18.898  0.00  0.00    +0.000 A 
ATOM      6  C   UNL     1       1.927   8.609  17.829  0.00  0.00    +0.000 A 
ATOM      7  C   UNL     1       2.438   7.316  18.038  0.00  0.00    +0.000 A 
ATOM      8  C   UNL     1       2.440   6.728  19.317  0.00  0.00    +0.000 A 
ATOM      9  C   UNL     1       1.882   7.465  20.364  0.00  0.00    +0.000 A 
ATOM     10  C   UNL     1       1.378   8.758  20.169  0.00  0.00    +0.000 A 
BRANCH   5  11
ATOM     11  C   UNL     1       0.888  10.724  18.738  0.00  0.00    +0.000 C 
ATOM     12  O   UNL     1      -0.302  11.008  18.807  0.00  0.00    +0.000 OA
BRANCH  11  14
ATOM     13  C   UNL     1       1.486  12.971  18.496  0.00  0.00    +0.000 C 
ATOM     14  O   UNL     1       1.905  11.605  18.561  0.00  0.00    +0.000 OA
ENDBRANCH  11  14
ENDBRANCH   5  11
ENDBRANCH   1   8
BRANCH   2  15
ATOM     15  S   UNL     1       4.522   3.322  19.360  0.00  0.00    +0.000 S 
ATOM     16  H   UNL     1       5.210   3.483  20.496  0.00  0.00    +0.000 HD
ENDBRANCH   2  15
BRANCH   3  17
ATOM     17  C   UNL     1       6.359   5.152  17.875  0.00  0.00    +0.000 C 
BRANCH  17  18
ATOM     18  C   UNL     1       6.306   4.864  16.417  0.00  0.00    +0.000 A 
ATOM     19  C   UNL     1       5.485   4.093  15.617  0.00  0.00    +0.000 A 
ATOM     20  C   UNL     1       6.028   4.157  14.309  0.00  0.00    +0.000 A 
ATOM     21  C   UNL     1       7.131   4.972  14.392  0.00  0.00    +0.000 A 
ATOM     22  O   UNL     1       7.307   5.407  15.665  0.00  0.00    +0.000 OA
ENDBRANCH  17  18
ENDBRANCH   3  17
TORSDOF 6
ENDMDL
MODEL 6
REMARK VINA RESULT:      -6.3      4.152      5.115
REMARK  Name = 
REMARK  7 active torsions:
REMARK  status: ('A' for Active; 'I' for Inactive)
REMARK    1  A    between atoms: C_1  and  O_2
REMARK    2  A    between atoms: O_2  and  C_3
REMARK    3  A    between atoms: C_3  and  C_5
REMARK    4  A    between atoms: C_8  and  N_9
REMARK    5  A    between atoms: C_10  and  S_11
REMARK    6  A    between atoms: N_12  and  C_13
REMARK    7  A    between atoms: C_13  and  C_14
REMARK                            x       y       z     vdW  Elec       q    Type
REMARK                         _______ _______ _______ _____ _____    ______ ____
ROOT
ATOM      1  N   UNL     1       5.416   6.307  18.245  0.00  0.00    +0.000 N 
ATOM      2  C   UNL     1       6.304   6.220  17.197  0.00  0.00    +0.000 C 
ATOM      3  N   UNL     1       6.289   5.339  16.261  0.00  0.00    +0.000 NA
ATOM      4  H   UNL     1       5.691   6.938  18.986  0.00  0.00    +0.000 HD
ENDROOT
BRANCH   1   8
ATOM      5  C   UNL     1       2.332   3.512  19.064  0.00  0.00    +0.000 A 
ATOM      6  C   UNL     1       3.661   3.227  19.379  0.00  0.00    +0.000 A 
ATOM      7  C   UNL     1       4.667   4.175  19.129  0.00  0.00    +0.000 A 
ATOM      8  C   UNL     1       4.367   5.430  18.567  0.00  0.00    +0.000 A 
ATOM      9  C   UNL     1       3.025   5.711  18.301  0.00  0.00    +0.000 A 
ATOM     10  C   UNL     1       2.014   4.769  18.538  0.00  0.00    +0.000 A 
BRANCH   5  11
ATOM     11  C   UNL     1       1.233   2.535  19.281  0.00  0.00    +0.000 C 
ATOM     12  O   UNL     1       0.354   2.310  18.458  0.00  0.00    +0.000 OA
BRANCH  11  14
ATOM     13  C   UNL     1       1.283   2.787  21.604  0.00  0.00    +0.000 C 
ATOM     14  O   UNL     1       1.379   1.912  20.477  0.00  0.00    +0.000 OA
ENDBRANCH  11  14
ENDBRANCH   5  11
ENDBRANCH   1   8
BRANCH   2  15
ATOM     15  S   UNL     1       7.556   7.474  17.306  0.00  0.00    +0.000 S 
ATOM     16  H   UNL     1       6.958   8.382  16.527  0.00  0.00    +0.000 HD
ENDBRANCH   2  15
BRANCH   3  17
ATOM     17  C   UNL     1       7.305   5.363  15.208  0.00  0.00    +0.000 C 
BRANCH  17  18
ATOM     18  C   UNL     1       6.833   4.652  13.990  0.00  0.00    +0.000 A 
ATOM     19  C   UNL     1       5.815   3.754  13.733  0.00  0.00    +0.000 A 
ATOM     20  C   UNL     1       5.957   3.367  12.377  0.00  0.00    +0.000 A 
ATOM     21  C   UNL     1       7.038   4.063  11.891  0.00  0.00    +0.000 A 
ATOM     22  O   UNL     1       7.574   4.846  12.860  0.00  0.00    +0.000 OA
ENDBRANCH  17  18
ENDBRANCH   3  17
TORSDOF 6
ENDMDL
MODEL 7
REMARK VINA RESULT:      -6.3      1.673      7.354
REMARK  Name = 
REMARK  7 active torsions:
REMARK  status: ('A' for Active; 'I' for Inactive)
REMARK    1  A    between atoms: C_1  and  O_2
REMARK    2  A    between atoms: O_2  and  C_3
REMARK    3  A    between atoms: C_3  and  C_5
REMARK    4  A    between atoms: C_8  and  N_9
REMARK    5  A    between atoms: C_10  and  S_11
REMARK    6  A    between atoms: N_12  and  C_13
REMARK    7  A    between atoms: C_13  and  C_14
REMARK                            x       y       z     vdW  Elec       q    Type
REMARK                         _______ _______ _______ _____ _____    ______ ____
ROOT
ATOM      1  N   UNL     1       3.862   3.984  19.200  0.00  0.00    +0.000 N 
ATOM      2  C   UNL     1       3.055   4.861  19.888  0.00  0.00    +0.000 C 
ATOM      3  N   UNL     1       2.804   6.079  19.560  0.00  0.00    +0.000 NA
ATOM      4  H   UNL     1       4.099   3.138  19.701  0.00  0.00    +0.000 HD
ENDROOT
BRANCH   1   8
ATOM      5  C   UNL     1       6.175   4.528  15.686  0.00  0.00    +0.000 A 
ATOM      6  C   UNL     1       4.806   4.271  15.611  0.00  0.00    +0.000 A 
ATOM      7  C   UNL     1       4.048   4.123  16.784  0.00  0.00    +0.000 A 
ATOM      8  C   UNL     1       4.639   4.236  18.057  0.00  0.00    +0.000 A 
ATOM      9  C   UNL     1       6.002   4.538  18.108  0.00  0.00    +0.000 A 
ATOM     10  C   UNL     1       6.769   4.678  16.944  0.00  0.00    +0.000 A 
BRANCH   5  11
ATOM     11  C   UNL     1       7.029   4.665  14.477  0.00  0.00    +0.000 C 
ATOM     12  O   UNL     1       7.992   5.420  14.410  0.00  0.00    +0.000 OA
BRANCH  11  14
ATOM     13  C   UNL     1       7.102   4.145  12.200  0.00  0.00    +0.000 C 
ATOM     14  O   UNL     1       6.619   3.812  13.505  0.00  0.00    +0.000 OA
ENDBRANCH  11  14
ENDBRANCH   5  11
ENDBRANCH   1   8
BRANCH   2  15
ATOM     15  S   UNL     1       2.409   4.119  21.366  0.00  0.00    +0.000 S 
ATOM     16  H   UNL     1       3.565   4.030  22.033  0.00  0.00    +0.000 HD
ENDBRANCH   2  15
BRANCH   3  17
ATOM     17  C   UNL     1       1.928   6.902  20.393  0.00  0.00    +0.000 C 
BRANCH  17  18
ATOM     18  C   UNL     1       1.605   8.190  19.724  0.00  0.00    +0.000 A 
ATOM     19  C   UNL     1       1.873   8.721  18.478  0.00  0.00    +0.000 A 
ATOM     20  C   UNL     1       1.373  10.047  18.492  0.00  0.00    +0.000 A 
ATOM     21  C   UNL     1       0.819  10.234  19.735  0.00  0.00    +0.000 A 
ATOM     22  O   UNL     1       0.953   9.114  20.489  0.00  0.00    +0.000 OA
ENDBRANCH  17  18
ENDBRANCH   3  17
TORSDOF 6
ENDMDL
MODEL 8
REMARK VINA RESULT:      -6.2      3.981      4.849
REMARK  Name = 
REMARK  7 active torsions:
REMARK  status: ('A' for Active; 'I' for Inactive)
REMARK    1  A    between atoms: C_1  and  O_2
REMARK    2  A    between atoms: O_2  and  C_3
REMARK    3  A    between atoms: C_3  and  C_5
REMARK    4  A    between atoms: C_8  and  N_9
REMARK    5  A    between atoms: C_10  and  S_11
REMARK    6  A    between atoms: N_12  and  C_13
REMARK    7  A    between atoms: C_13  and  C_14
REMARK                            x       y       z     vdW  Elec       q    Type
REMARK                         _______ _______ _______ _____ _____    ______ ____
ROOT
ATOM      1  N   UNL     1       5.027   6.565  18.035  0.00  0.00    +0.000 N 
ATOM      2  C   UNL     1       6.079   6.317  17.184  0.00  0.00    +0.000 C 
ATOM      3  N   UNL     1       6.233   5.272  16.452  0.00  0.00    +0.000 NA
ATOM      4  H   UNL     1       5.165   7.339  18.671  0.00  0.00    +0.000 HD
ENDROOT
BRANCH   1   8
ATOM      5  C   UNL     1       1.874   3.972  19.190  0.00  0.00    +0.000 A 
ATOM      6  C   UNL     1       2.087   5.181  19.852  0.00  0.00    +0.000 A 
ATOM      7  C   UNL     1       3.117   6.044  19.439  0.00  0.00    +0.000 A 
ATOM      8  C   UNL     1       3.950   5.720  18.351  0.00  0.00    +0.000 A 
ATOM      9  C   UNL     1       3.690   4.525  17.676  0.00  0.00    +0.000 A 
ATOM     10  C   UNL     1       2.672   3.654  18.085  0.00  0.00    +0.000 A 
BRANCH   5  11
ATOM     11  C   UNL     1       0.819   3.011  19.603  0.00  0.00    +0.000 C 
ATOM     12  O   UNL     1       0.170   2.335  18.813  0.00  0.00    +0.000 OA
BRANCH  11  14
ATOM     13  C   UNL     1       1.876   2.414  21.600  0.00  0.00    +0.000 C 
ATOM     14  O   UNL     1       0.722   2.961  20.956  0.00  0.00    +0.000 OA
ENDBRANCH  11  14
ENDBRANCH   5  11
ENDBRANCH   1   8
BRANCH   2  15
ATOM     15  S   UNL     1       7.278   7.625  17.243  0.00  0.00    +0.000 S 
ATOM     16  H   UNL     1       6.430   8.625  17.505  0.00  0.00    +0.000 HD
ENDBRANCH   2  15
BRANCH   3  17
ATOM     17  C   UNL     1       7.411   5.138  15.594  0.00  0.00    +0.000 C 
BRANCH  17  18
ATOM     18  C   UNL     1       7.034   4.674  14.232  0.00  0.00    +0.000 A 
ATOM     19  C   UNL     1       6.173   3.709  13.748  0.00  0.00    +0.000 A 
ATOM     20  C   UNL     1       6.344   3.691  12.341  0.00  0.00    +0.000 A 
ATOM     21  C   UNL     1       7.282   4.654  12.057  0.00  0.00    +0.000 A 
ATOM     22  O   UNL     1       7.705   5.257  13.196  0.00  0.00    +0.000 OA
ENDBRANCH  17  18
ENDBRANCH   3  17
TORSDOF 6
ENDMDL
MODEL 9
REMARK VINA RESULT:      -6.2      1.123      1.356
REMARK  Name = 
REMARK  7 active torsions:
REMARK  status: ('A' for Active; 'I' for Inactive)
REMARK    1  A    between atoms: C_1  and  O_2
REMARK    2  A    between atoms: O_2  and  C_3
REMARK    3  A    between atoms: C_3  and  C_5
REMARK    4  A    between atoms: C_8  and  N_9
REMARK    5  A    between atoms: C_10  and  S_11
REMARK    6  A    between atoms: N_12  and  C_13
REMARK    7  A    between atoms: C_13  and  C_14
REMARK                            x       y       z     vdW  Elec       q    Type
REMARK                         _______ _______ _______ _____ _____    ______ ____
ROOT
ATOM      1  N   UNL     1       2.722   5.906  20.027  0.00  0.00    +0.000 N 
ATOM      2  C   UNL     1       3.155   4.935  19.154  0.00  0.00    +0.000 C 
ATOM      3  N   UNL     1       3.262   5.054  17.878  0.00  0.00    +0.000 NA
ATOM      4  H   UNL     1       2.517   5.580  20.962  0.00  0.00    +0.000 HD
ENDROOT
BRANCH   1   8
ATOM      5  C   UNL     1       1.039   9.700  19.144  0.00  0.00    +0.000 A 
ATOM      6  C   UNL     1       0.936   9.149  20.422  0.00  0.00    +0.000 A 
ATOM      7  C   UNL     1       1.524   7.905  20.707  0.00  0.00    +0.000 A 
ATOM      8  C   UNL     1       2.235   7.189  19.725  0.00  0.00    +0.000 A 
ATOM      9  C   UNL     1       2.363   7.780  18.466  0.00  0.00    +0.000 A 
ATOM     10  C   UNL     1       1.772   9.015  18.168  0.00  0.00    +0.000 A 
BRANCH   5  11
ATOM     11  C   UNL     1       0.413  10.997  18.781  0.00  0.00    +0.000 C 
ATOM     12  O   UNL     1       0.945  12.084  18.973  0.00  0.00    +0.000 OA
BRANCH  11  14
ATOM     13  C   UNL     1      -1.801  11.717  18.576  0.00  0.00    +0.000 C 
ATOM     14  O   UNL     1      -0.784  10.796  18.175  0.00  0.00    +0.000 OA
ENDBRANCH  11  14
ENDBRANCH   5  11
ENDBRANCH   1   8
BRANCH   2  15
ATOM     15  S   UNL     1       3.518   3.419  20.004  0.00  0.00    +0.000 S 
ATOM     16  H   UNL     1       2.545   2.680  19.459  0.00  0.00    +0.000 HD
ENDBRANCH   2  15
BRANCH   3  17
ATOM     17  C   UNL     1       3.733   3.930  17.069  0.00  0.00    +0.000 C 
BRANCH  17  18
ATOM     18  C   UNL     1       5.044   4.236  16.437  0.00  0.00    +0.000 A 
ATOM     19  C   UNL     1       5.483   4.344  15.133  0.00  0.00    +0.000 A 
ATOM     20  C   UNL     1       6.883   4.558  15.198  0.00  0.00    +0.000 A 
ATOM     21  C   UNL     1       7.204   4.583  16.534  0.00  0.00    +0.000 A 
ATOM     22  O   UNL     1       6.097   4.390  17.293  0.00  0.00    +0.000 OA
ENDBRANCH  17  18
ENDBRANCH   3  17
TORSDOF 6
ENDMDL
