MODEL 1
REMARK VINA RESULT:      -9.6      0.000      0.000
REMARK  Name = 
REMARK  8 active torsions:
REMARK  status: ('A' for Active; 'I' for Inactive)
REMARK    1  A    between atoms: C_1  and  C_2
REMARK    2  A    between atoms: C_2  and  C_3
REMARK    3  A    between atoms: C_6  and  C_7
REMARK    4  A    between atoms: C_9  and  C_10
REMARK    5  A    between atoms: C_13  and  C_14
REMARK    6  A    between atoms: C_17  and  N_18
REMARK    7  A    between atoms: C_22  and  C_23
REMARK    8  A    between atoms: C_22  and  C_24
REMARK                            x       y       z     vdW  Elec       q    Type
REMARK                         _______ _______ _______ _____ _____    ______ ____
ROOT
ATOM      1  C   UNL     1      -1.199  11.867  19.111  0.00  0.00    +0.000 A 
ATOM      2  N   UNL     1      -0.268  12.783  18.915  0.00  0.00    +0.000 NA
ATOM      3  C   UNL     1       0.928  12.074  18.886  0.00  0.00    +0.000 A 
ATOM      4  C   UNL     1       0.659  10.723  19.042  0.00  0.00    +0.000 A 
ATOM      5  O   UNL     1      -0.700  10.591  19.206  0.00  0.00    +0.000 OA
ENDROOT
BRANCH   1   9
ATOM      6  C   UNL     1      -5.499  12.274  19.406  0.00  0.00    +0.000 A 
ATOM      7  C   UNL     1      -4.661  12.623  20.478  0.00  0.00    +0.000 A 
ATOM      8  C   UNL     1      -3.272  12.494  20.400  0.00  0.00    +0.000 A 
ATOM      9  C   UNL     1      -2.646  12.019  19.233  0.00  0.00    +0.000 A 
ATOM     10  C   UNL     1      -3.469  11.659  18.133  0.00  0.00    +0.000 A 
ATOM     11  C   UNL     1      -3.223  11.168  16.812  0.00  0.00    +0.000 A 
ATOM     12  C   UNL     1      -4.432  10.954  16.196  0.00  0.00    +0.000 A 
ATOM     13  N   UNL     1      -5.410  11.304  17.081  0.00  0.00    +0.000 N 
ATOM     14  C   UNL     1      -4.859  11.774  18.256  0.00  0.00    +0.000 A 
ATOM     15  H   UNL     1      -6.403  11.224  16.909  0.00  0.00    +0.000 HD
BRANCH   6  17
ATOM     16  C   UNL     1      -7.620  11.290  20.325  0.00  0.00    +0.000 C 
ATOM     17  C   UNL     1      -6.996  12.424  19.529  0.00  0.00    +0.000 C 
ENDBRANCH   6  17
ENDBRANCH   1   9
BRANCH   4  18
ATOM     18  C   UNL     1       1.421   9.480  19.011  0.00  0.00    +0.000 A 
ATOM     19  C   UNL     1       1.423   8.580  20.082  0.00  0.00    +0.000 A 
ATOM     20  C   UNL     1       2.091   7.344  19.982  0.00  0.00    +0.000 A 
ATOM     21  C   UNL     1       2.787   6.969  18.826  0.00  0.00    +0.000 A 
ATOM     22  C   UNL     1       2.815   7.905  17.789  0.00  0.00    +0.000 A 
ATOM     23  C   UNL     1       2.136   9.123  17.869  0.00  0.00    +0.000 A 
BRANCH  21  24
ATOM     24  N   UNL     1       3.389   5.739  18.682  0.00  0.00    +0.000 N 
ATOM     25  C   UNL     1       2.635   4.491  18.533  0.00  0.00    +0.000 C 
ATOM     26  C   UNL     1       3.155   3.693  17.310  0.00  0.00    +0.000 C 
ATOM     27  N   UNL     1       4.621   3.506  17.264  0.00  0.00    +0.000 NA
ATOM     28  C   UNL     1       5.338   4.800  17.425  0.00  0.00    +0.000 C 
ATOM     29  C   UNL     1       5.195   5.666  16.157  0.00  0.00    +0.000 C 
ATOM     30  C   UNL     1       6.831   4.472  17.606  0.00  0.00    +0.000 C 
ATOM     31  C   UNL     1       4.851   5.576  18.688  0.00  0.00    +0.000 C 
ATOM     32  H   UNL     1       4.877   3.082  16.375  0.00  0.00    +0.000 HD
ENDBRANCH  21  24
ENDBRANCH   4  18
BRANCH   3  33
ATOM     33  C   UNL     1       2.216  12.733  18.725  0.00  0.00    +0.000 C 
ATOM     34  N   UNL     1       2.750  12.662  17.471  0.00  0.00    +0.000 N 
ATOM     35  O   UNL     1       2.825  13.337  19.604  0.00  0.00    +0.000 OA
ATOM     36  H   UNL     1       2.216  12.260  16.711  0.00  0.00    +0.000 HD
ATOM     37  H   UNL     1       3.612  13.151  17.298  0.00  0.00    +0.000 HD
ENDBRANCH   3  33
TORSDOF 5
ENDMDL
MODEL 2
REMARK VINA RESULT:      -9.5      1.131      1.885
REMARK  Name = 
REMARK  8 active torsions:
REMARK  status: ('A' for Active; 'I' for Inactive)
REMARK    1  A    between atoms: C_1  and  C_2
REMARK    2  A    between atoms: C_2  and  C_3
REMARK    3  A    between atoms: C_6  and  C_7
REMARK    4  A    between atoms: C_9  and  C_10
REMARK    5  A    between atoms: C_13  and  C_14
REMARK    6  A    between atoms: C_17  and  N_18
REMARK    7  A    between atoms: C_22  and  C_23
REMARK    8  A    between atoms: C_22  and  C_24
REMARK                            x       y       z     vdW  Elec       q    Type
REMARK                         _______ _______ _______ _____ _____    ______ ____
ROOT
ATOM      1  C   UNL     1      -1.402  11.744  19.120  0.00  0.00    +0.000 A 
ATOM      2  N   UNL     1      -0.532  12.653  19.521  0.00  0.00    +0.000 NA
ATOM      3  C   UNL     1       0.673  11.966  19.630  0.00  0.00    +0.000 A 
ATOM      4  C   UNL     1       0.480  10.646  19.253  0.00  0.00    +0.000 A 
ATOM      5  O   UNL     1      -0.852  10.498  18.946  0.00  0.00    +0.000 OA
ENDROOT
BRANCH   1   9
ATOM      6  C   UNL     1      -5.623  12.097  18.222  0.00  0.00    +0.000 A 
ATOM      7  C   UNL     1      -5.110  12.492  19.468  0.00  0.00    +0.000 A 
ATOM      8  C   UNL     1      -3.752  12.381  19.775  0.00  0.00    +0.000 A 
ATOM      9  C   UNL     1      -2.829  11.878  18.839  0.00  0.00    +0.000 A 
ATOM     10  C   UNL     1      -3.319  11.472  17.570  0.00  0.00    +0.000 A 
ATOM     11  C   UNL     1      -2.721  10.942  16.383  0.00  0.00    +0.000 A 
ATOM     12  C   UNL     1      -3.716  10.691  15.470  0.00  0.00    +0.000 A 
ATOM     13  N   UNL     1      -4.900  11.054  16.043  0.00  0.00    +0.000 N 
ATOM     14  C   UNL     1      -4.691  11.570  17.307  0.00  0.00    +0.000 A 
ATOM     15  H   UNL     1      -5.808  10.955  15.611  0.00  0.00    +0.000 HD
BRANCH   6  17
ATOM     16  C   UNL     1      -7.447  13.597  17.365  0.00  0.00    +0.000 C 
ATOM     17  C   UNL     1      -7.097  12.229  17.928  0.00  0.00    +0.000 C 
ENDBRANCH   6  17
ENDBRANCH   1   9
BRANCH   4  18
ATOM     18  C   UNL     1       1.315   9.467  19.057  0.00  0.00    +0.000 A 
ATOM     19  C   UNL     1       1.480   8.496  20.049  0.00  0.00    +0.000 A 
ATOM     20  C   UNL     1       2.214   7.322  19.793  0.00  0.00    +0.000 A 
ATOM     21  C   UNL     1       2.819   7.082  18.553  0.00  0.00    +0.000 A 
ATOM     22  C   UNL     1       2.685   8.089  17.593  0.00  0.00    +0.000 A 
ATOM     23  C   UNL     1       1.939   9.246  17.830  0.00  0.00    +0.000 A 
BRANCH  21  24
ATOM     24  N   UNL     1       3.483   5.913  18.259  0.00  0.00    +0.000 N 
ATOM     25  C   UNL     1       4.940   5.773  18.353  0.00  0.00    +0.000 C 
ATOM     26  C   UNL     1       5.305   4.514  19.180  0.00  0.00    +0.000 C 
ATOM     27  N   UNL     1       4.618   3.272  18.764  0.00  0.00    +0.000 NA
ATOM     28  C   UNL     1       3.146   3.469  18.678  0.00  0.00    +0.000 C 
ATOM     29  C   UNL     1       2.528   3.591  20.086  0.00  0.00    +0.000 C 
ATOM     30  C   UNL     1       2.559   2.212  18.013  0.00  0.00    +0.000 C 
ATOM     31  C   UNL     1       2.780   4.705  17.799  0.00  0.00    +0.000 C 
ATOM     32  H   UNL     1       4.826   2.534  19.433  0.00  0.00    +0.000 HD
ENDBRANCH  21  24
ENDBRANCH   4  18
BRANCH   3  33
ATOM     33  C   UNL     1       1.893  12.613  20.089  0.00  0.00    +0.000 C 
ATOM     34  N   UNL     1       2.665  13.159  19.104  0.00  0.00    +0.000 N 
ATOM     35  O   UNL     1       2.257  12.709  21.258  0.00  0.00    +0.000 OA
ATOM     36  H   UNL     1       2.333  13.180  18.149  0.00  0.00    +0.000 HD
ATOM     37  H   UNL     1       3.490  13.665  19.378  0.00  0.00    +0.000 HD
ENDBRANCH   3  33
TORSDOF 5
ENDMDL
MODEL 3
REMARK VINA RESULT:      -9.5      0.920      1.810
REMARK  Name = 
REMARK  8 active torsions:
REMARK  status: ('A' for Active; 'I' for Inactive)
REMARK    1  A    between atoms: C_1  and  C_2
REMARK    2  A    between atoms: C_2  and  C_3
REMARK    3  A    between atoms: C_6  and  C_7
REMARK    4  A    between atoms: C_9  and  C_10
REMARK    5  A    between atoms: C_13  and  C_14
REMARK    6  A    between atoms: C_17  and  N_18
REMARK    7  A    between atoms: C_22  and  C_23
REMARK    8  A    between atoms: C_22  and  C_24
REMARK                            x       y       z     vdW  Elec       q    Type
REMARK                         _______ _______ _______ _____ _____    ______ ____
ROOT
ATOM      1  C   UNL     1      -1.260  12.015  19.453  0.00  0.00    +0.000 A 
ATOM      2  N   UNL     1      -0.324  12.911  19.194  0.00  0.00    +0.000 NA
ATOM      3  C   UNL     1       0.844  12.170  19.049  0.00  0.00    +0.000 A 
ATOM      4  C   UNL     1       0.552  10.824  19.204  0.00  0.00    +0.000 A 
ATOM      5  O   UNL     1      -0.792  10.725  19.483  0.00  0.00    +0.000 OA
ENDROOT
BRANCH   1   9
ATOM      6  C   UNL     1      -5.506  12.532  20.127  0.00  0.00    +0.000 A 
ATOM      7  C   UNL     1      -4.570  12.831  21.130  0.00  0.00    +0.000 A 
ATOM      8  C   UNL     1      -3.197  12.667  20.930  0.00  0.00    +0.000 A 
ATOM      9  C   UNL     1      -2.687  12.203  19.703  0.00  0.00    +0.000 A 
ATOM     10  C   UNL     1      -3.610  11.894  18.670  0.00  0.00    +0.000 A 
ATOM     11  C   UNL     1      -3.493  11.429  17.322  0.00  0.00    +0.000 A 
ATOM     12  C   UNL     1      -4.756  11.263  16.808  0.00  0.00    +0.000 A 
ATOM     13  N   UNL     1      -5.644  11.617  17.781  0.00  0.00    +0.000 N 
ATOM     14  C   UNL     1      -4.981  12.043  18.915  0.00  0.00    +0.000 A 
ATOM     15  H   UNL     1      -6.650  11.569  17.694  0.00  0.00    +0.000 HD
BRANCH   6  17
ATOM     16  C   UNL     1      -7.605  11.504  21.048  0.00  0.00    +0.000 C 
ATOM     17  C   UNL     1      -6.982  12.719  20.381  0.00  0.00    +0.000 C 
ENDBRANCH   6  17
ENDBRANCH   1   9
BRANCH   4  18
ATOM     18  C   UNL     1       1.272   9.562  19.085  0.00  0.00    +0.000 A 
ATOM     19  C   UNL     1       1.385   8.665  20.152  0.00  0.00    +0.000 A 
ATOM     20  C   UNL     1       2.004   7.412  19.977  0.00  0.00    +0.000 A 
ATOM     21  C   UNL     1       2.542   7.017  18.746  0.00  0.00    +0.000 A 
ATOM     22  C   UNL     1       2.464   7.949  17.708  0.00  0.00    +0.000 A 
ATOM     23  C   UNL     1       1.832   9.185  17.866  0.00  0.00    +0.000 A 
BRANCH  21  24
ATOM     24  N   UNL     1       3.090   5.772  18.534  0.00  0.00    +0.000 N 
ATOM     25  C   UNL     1       4.533   5.543  18.402  0.00  0.00    +0.000 C 
ATOM     26  C   UNL     1       4.983   4.399  19.346  0.00  0.00    +0.000 C 
ATOM     27  N   UNL     1       4.177   3.162  19.255  0.00  0.00    +0.000 NA
ATOM     28  C   UNL     1       2.724   3.449  19.388  0.00  0.00    +0.000 C 
ATOM     29  C   UNL     1       2.372   3.824  20.843  0.00  0.00    +0.000 C 
ATOM     30  C   UNL     1       1.972   2.152  19.041  0.00  0.00    +0.000 C 
ATOM     31  C   UNL     1       2.263   4.563  18.398  0.00  0.00    +0.000 C 
ATOM     32  H   UNL     1       4.468   2.519  19.989  0.00  0.00    +0.000 HD
ENDBRANCH  21  24
ENDBRANCH   4  18
BRANCH   3  33
ATOM     33  C   UNL     1       2.131  12.798  18.790  0.00  0.00    +0.000 C 
ATOM     34  N   UNL     1       2.592  12.666  17.511  0.00  0.00    +0.000 N 
ATOM     35  O   UNL     1       2.800  13.425  19.607  0.00  0.00    +0.000 OA
ATOM     36  H   UNL     1       2.011  12.242  16.800  0.00  0.00    +0.000 HD
ATOM     37  H   UNL     1       3.451  13.130  17.271  0.00  0.00    +0.000 HD
ENDBRANCH   3  33
TORSDOF 5
ENDMDL
MODEL 4
REMARK VINA RESULT:      -9.4      1.113      2.094
REMARK  Name = 
REMARK  8 active torsions:
REMARK  status: ('A' for Active; 'I' for Inactive)
REMARK    1  A    between atoms: C_1  and  C_2
REMARK    2  A    between atoms: C_2  and  C_3
REMARK    3  A    between atoms: C_6  and  C_7
REMARK    4  A    between atoms: C_9  and  C_10
REMARK    5  A    between atoms: C_13  and  C_14
REMARK    6  A    between atoms: C_17  and  N_18
REMARK    7  A    between atoms: C_22  and  C_23
REMARK    8  A    between atoms: C_22  and  C_24
REMARK                            x       y       z     vdW  Elec       q    Type
REMARK                         _______ _______ _______ _____ _____    ______ ____
ROOT
ATOM      1  C   UNL     1      -1.404  11.529  18.581  0.00  0.00    +0.000 A 
ATOM      2  N   UNL     1      -0.470  12.462  18.537  0.00  0.00    +0.000 NA
ATOM      3  C   UNL     1       0.728  11.773  18.690  0.00  0.00    +0.000 A 
ATOM      4  C   UNL     1       0.462  10.416  18.795  0.00  0.00    +0.000 A 
ATOM      5  O   UNL     1      -0.904  10.261  18.746  0.00  0.00    +0.000 OA
ENDROOT
BRANCH   1   9
ATOM      6  C   UNL     1      -5.707  11.952  18.343  0.00  0.00    +0.000 A 
ATOM      7  C   UNL     1      -4.970  11.411  17.276  0.00  0.00    +0.000 A 
ATOM      8  C   UNL     1      -3.581  11.271  17.336  0.00  0.00    +0.000 A 
ATOM      9  C   UNL     1      -2.856  11.656  18.478  0.00  0.00    +0.000 A 
ATOM     10  C   UNL     1      -3.574  12.205  19.573  0.00  0.00    +0.000 A 
ATOM     11  C   UNL     1      -3.217  12.684  20.872  0.00  0.00    +0.000 A 
ATOM     12  C   UNL     1      -4.351  13.149  21.492  0.00  0.00    +0.000 A 
ATOM     13  N   UNL     1      -5.393  12.965  20.630  0.00  0.00    +0.000 N 
ATOM     14  C   UNL     1      -4.963  12.357  19.467  0.00  0.00    +0.000 A 
ATOM     15  H   UNL     1      -6.348  13.241  20.808  0.00  0.00    +0.000 HD
BRANCH   6  17
ATOM     16  C   UNL     1      -7.618  13.443  17.685  0.00  0.00    +0.000 C 
ATOM     17  C   UNL     1      -7.206  12.090  18.241  0.00  0.00    +0.000 C 
ENDBRANCH   6  17
ENDBRANCH   1   9
BRANCH   4  18
ATOM     18  C   UNL     1       1.240   9.186  18.876  0.00  0.00    +0.000 A 
ATOM     19  C   UNL     1       2.002   8.713  17.802  0.00  0.00    +0.000 A 
ATOM     20  C   UNL     1       2.818   7.574  17.945  0.00  0.00    +0.000 A 
ATOM     21  C   UNL     1       2.892   6.862  19.149  0.00  0.00    +0.000 A 
ATOM     22  C   UNL     1       2.084   7.321  20.191  0.00  0.00    +0.000 A 
ATOM     23  C   UNL     1       1.289   8.463  20.067  0.00  0.00    +0.000 A 
BRANCH  21  24
ATOM     24  N   UNL     1       3.734   5.788  19.331  0.00  0.00    +0.000 N 
ATOM     25  C   UNL     1       3.296   4.517  19.918  0.00  0.00    +0.000 C 
ATOM     26  C   UNL     1       3.728   3.333  19.016  0.00  0.00    +0.000 C 
ATOM     27  N   UNL     1       5.152   3.340  18.617  0.00  0.00    +0.000 NA
ATOM     28  C   UNL     1       5.546   4.650  18.034  0.00  0.00    +0.000 C 
ATOM     29  C   UNL     1       4.931   4.832  16.630  0.00  0.00    +0.000 C 
ATOM     30  C   UNL     1       7.077   4.636  17.879  0.00  0.00    +0.000 C 
ATOM     31  C   UNL     1       5.159   5.837  18.969  0.00  0.00    +0.000 C 
ATOM     32  H   UNL     1       5.312   2.600  17.935  0.00  0.00    +0.000 HD
ENDBRANCH  21  24
ENDBRANCH   4  18
BRANCH   3  33
ATOM     33  C   UNL     1       2.013  12.454  18.735  0.00  0.00    +0.000 C 
ATOM     34  N   UNL     1       2.743  12.390  17.583  0.00  0.00    +0.000 N 
ATOM     35  O   UNL     1       2.464  13.070  19.697  0.00  0.00    +0.000 OA
ATOM     36  H   UNL     1       2.345  11.977  16.750  0.00  0.00    +0.000 HD
ATOM     37  H   UNL     1       3.613  12.893  17.549  0.00  0.00    +0.000 HD
ENDBRANCH   3  33
TORSDOF 5
ENDMDL
MODEL 5
REMARK VINA RESULT:      -9.4      0.972      1.101
REMARK  Name = 
REMARK  8 active torsions:
REMARK  status: ('A' for Active; 'I' for Inactive)
REMARK    1  A    between atoms: C_1  and  C_2
REMARK    2  A    between atoms: C_2  and  C_3
REMARK    3  A    between atoms: C_6  and  C_7
REMARK    4  A    between atoms: C_9  and  C_10
REMARK    5  A    between atoms: C_13  and  C_14
REMARK    6  A    between atoms: C_17  and  N_18
REMARK    7  A    between atoms: C_22  and  C_23
REMARK    8  A    between atoms: C_22  and  C_24
REMARK                            x       y       z     vdW  Elec       q    Type
REMARK                         _______ _______ _______ _____ _____    ______ ____
ROOT
ATOM      1  C   UNL     1      -1.189  11.632  18.677  0.00  0.00    +0.000 A 
ATOM      2  N   UNL     1      -0.288  12.589  18.802  0.00  0.00    +0.000 NA
ATOM      3  C   UNL     1       0.921  11.920  18.961  0.00  0.00    +0.000 A 
ATOM      4  C   UNL     1       0.697  10.554  18.895  0.00  0.00    +0.000 A 
ATOM      5  O   UNL     1      -0.656  10.368  18.734  0.00  0.00    +0.000 OA
ENDROOT
BRANCH   1   9
ATOM      6  C   UNL     1      -5.466  11.878  18.050  0.00  0.00    +0.000 A 
ATOM      7  C   UNL     1      -4.888  12.263  19.271  0.00  0.00    +0.000 A 
ATOM      8  C   UNL     1      -3.510  12.186  19.491  0.00  0.00    +0.000 A 
ATOM      9  C   UNL     1      -2.634  11.729  18.489  0.00  0.00    +0.000 A 
ATOM     10  C   UNL     1      -3.190  11.335  17.243  0.00  0.00    +0.000 A 
ATOM     11  C   UNL     1      -2.653  10.848  16.011  0.00  0.00    +0.000 A 
ATOM     12  C   UNL     1      -3.695  10.586  15.155  0.00  0.00    +0.000 A 
ATOM     13  N   UNL     1      -4.851  10.902  15.808  0.00  0.00    +0.000 N 
ATOM     14  C   UNL     1      -4.578  11.398  17.068  0.00  0.00    +0.000 A 
ATOM     15  H   UNL     1      -5.781  10.785  15.431  0.00  0.00    +0.000 HD
BRANCH   6  17
ATOM     16  C   UNL     1      -7.429  13.413  17.737  0.00  0.00    +0.000 C 
ATOM     17  C   UNL     1      -6.959  11.972  17.851  0.00  0.00    +0.000 C 
ENDBRANCH   6  17
ENDBRANCH   1   9
BRANCH   4  18
ATOM     18  C   UNL     1       1.511   9.344  18.893  0.00  0.00    +0.000 A 
ATOM     19  C   UNL     1       1.504   8.438  19.958  0.00  0.00    +0.000 A 
ATOM     20  C   UNL     1       2.227   7.232  19.883  0.00  0.00    +0.000 A 
ATOM     21  C   UNL     1       2.991   6.895  18.758  0.00  0.00    +0.000 A 
ATOM     22  C   UNL     1       3.026   7.839  17.727  0.00  0.00    +0.000 A 
ATOM     23  C   UNL     1       2.293   9.026  17.784  0.00  0.00    +0.000 A 
BRANCH  21  24
ATOM     24  N   UNL     1       3.651   5.693  18.634  0.00  0.00    +0.000 N 
ATOM     25  C   UNL     1       2.959   4.401  18.583  0.00  0.00    +0.000 C 
ATOM     26  C   UNL     1       3.456   3.575  17.370  0.00  0.00    +0.000 C 
ATOM     27  N   UNL     1       4.926   3.463  17.250  0.00  0.00    +0.000 NA
ATOM     28  C   UNL     1       5.578   4.799  17.314  0.00  0.00    +0.000 C 
ATOM     29  C   UNL     1       5.320   5.596  16.018  0.00  0.00    +0.000 C 
ATOM     30  C   UNL     1       7.094   4.558  17.425  0.00  0.00    +0.000 C 
ATOM     31  C   UNL     1       5.118   5.607  18.566  0.00  0.00    +0.000 C 
ATOM     32  H   UNL     1       5.157   3.012  16.368  0.00  0.00    +0.000 HD
ENDBRANCH  21  24
ENDBRANCH   4  18
BRANCH   3  33
ATOM     33  C   UNL     1       2.176  12.627  19.171  0.00  0.00    +0.000 C 
ATOM     34  N   UNL     1       2.383  13.074  20.445  0.00  0.00    +0.000 N 
ATOM     35  O   UNL     1       3.035  12.830  18.317  0.00  0.00    +0.000 OA
ATOM     36  H   UNL     1       1.737  12.828  21.183  0.00  0.00    +0.000 HD
ATOM     37  H   UNL     1       3.261  13.519  20.650  0.00  0.00    +0.000 HD
ENDBRANCH   3  33
TORSDOF 5
ENDMDL
MODEL 6
REMARK VINA RESULT:      -9.3      0.490      1.036
REMARK  Name = 
REMARK  8 active torsions:
REMARK  status: ('A' for Active; 'I' for Inactive)
REMARK    1  A    between atoms: C_1  and  C_2
REMARK    2  A    between atoms: C_2  and  C_3
REMARK    3  A    between atoms: C_6  and  C_7
REMARK    4  A    between atoms: C_9  and  C_10
REMARK    5  A    between atoms: C_13  and  C_14
REMARK    6  A    between atoms: C_17  and  N_18
REMARK    7  A    between atoms: C_22  and  C_23
REMARK    8  A    between atoms: C_22  and  C_24
REMARK                            x       y       z     vdW  Elec       q    Type
REMARK                         _______ _______ _______ _____ _____    ______ ____
ROOT
ATOM      1  C   UNL     1      -1.274  11.826  19.146  0.00  0.00    +0.000 A 
ATOM      2  N   UNL     1      -0.306  12.701  18.949  0.00  0.00    +0.000 NA
ATOM      3  C   UNL     1       0.858  11.941  18.911  0.00  0.00    +0.000 A 
ATOM      4  C   UNL     1       0.532  10.602  19.064  0.00  0.00    +0.000 A 
ATOM      5  O   UNL     1      -0.831  10.529  19.235  0.00  0.00    +0.000 OA
ENDROOT
BRANCH   1   9
ATOM      6  C   UNL     1      -5.551  12.418  19.466  0.00  0.00    +0.000 A 
ATOM      7  C   UNL     1      -4.692  12.742  20.528  0.00  0.00    +0.000 A 
ATOM      8  C   UNL     1      -3.310  12.554  20.443  0.00  0.00    +0.000 A 
ATOM      9  C   UNL     1      -2.713  12.040  19.277  0.00  0.00    +0.000 A 
ATOM     10  C   UNL     1      -3.557  11.704  18.186  0.00  0.00    +0.000 A 
ATOM     11  C   UNL     1      -3.342  11.188  16.869  0.00  0.00    +0.000 A 
ATOM     12  C   UNL     1      -4.564  11.019  16.263  0.00  0.00    +0.000 A 
ATOM     13  N   UNL     1      -5.520  11.419  17.151  0.00  0.00    +0.000 N 
ATOM     14  C   UNL     1      -4.941  11.878  18.318  0.00  0.00    +0.000 A 
ATOM     15  H   UNL     1      -6.516  11.380  16.987  0.00  0.00    +0.000 HD
BRANCH   6  17
ATOM     16  C   UNL     1      -7.380  14.075  19.932  0.00  0.00    +0.000 C 
ATOM     17  C   UNL     1      -7.039  12.632  19.597  0.00  0.00    +0.000 C 
ENDBRANCH   6  17
ENDBRANCH   1   9
BRANCH   4  18
ATOM     18  C   UNL     1       1.238   9.327  19.025  0.00  0.00    +0.000 A 
ATOM     19  C   UNL     1       1.891   8.871  17.876  0.00  0.00    +0.000 A 
ATOM     20  C   UNL     1       2.645   7.682  17.900  0.00  0.00    +0.000 A 
ATOM     21  C   UNL     1       2.763   6.902  19.058  0.00  0.00    +0.000 A 
ATOM     22  C   UNL     1       2.060   7.350  20.180  0.00  0.00    +0.000 A 
ATOM     23  C   UNL     1       1.329   8.540  20.172  0.00  0.00    +0.000 A 
BRANCH  21  24
ATOM     24  N   UNL     1       3.549   5.774  19.123  0.00  0.00    +0.000 N 
ATOM     25  C   UNL     1       3.013   4.439  19.407  0.00  0.00    +0.000 C 
ATOM     26  C   UNL     1       3.515   3.423  18.348  0.00  0.00    +0.000 C 
ATOM     27  N   UNL     1       4.975   3.437  18.115  0.00  0.00    +0.000 NA
ATOM     28  C   UNL     1       5.469   4.813  17.839  0.00  0.00    +0.000 C 
ATOM     29  C   UNL     1       5.027   5.281  16.438  0.00  0.00    +0.000 C 
ATOM     30  C   UNL     1       7.007   4.754  17.853  0.00  0.00    +0.000 C 
ATOM     31  C   UNL     1       5.007   5.821  18.936  0.00  0.00    +0.000 C 
ATOM     32  H   UNL     1       5.194   2.830  17.327  0.00  0.00    +0.000 HD
ENDBRANCH  21  24
ENDBRANCH   4  18
BRANCH   3  33
ATOM     33  C   UNL     1       2.173  12.544  18.746  0.00  0.00    +0.000 C 
ATOM     34  N   UNL     1       2.762  12.324  17.534  0.00  0.00    +0.000 N 
ATOM     35  O   UNL     1       2.760  13.222  19.585  0.00  0.00    +0.000 OA
ATOM     36  H   UNL     1       2.253  11.857  16.796  0.00  0.00    +0.000 HD
ATOM     37  H   UNL     1       3.647  12.768  17.355  0.00  0.00    +0.000 HD
ENDBRANCH   3  33
TORSDOF 5
ENDMDL
MODEL 7
REMARK VINA RESULT:      -9.2      1.014      1.924
REMARK  Name = 
REMARK  8 active torsions:
REMARK  status: ('A' for Active; 'I' for Inactive)
REMARK    1  A    between atoms: C_1  and  C_2
REMARK    2  A    between atoms: C_2  and  C_3
REMARK    3  A    between atoms: C_6  and  C_7
REMARK    4  A    between atoms: C_9  and  C_10
REMARK    5  A    between atoms: C_13  and  C_14
REMARK    6  A    between atoms: C_17  and  N_18
REMARK    7  A    between atoms: C_22  and  C_23
REMARK    8  A    between atoms: C_22  and  C_24
REMARK                            x       y       z     vdW  Elec       q    Type
REMARK                         _______ _______ _______ _____ _____    ______ ____
ROOT
ATOM      1  C   UNL     1      -1.324  11.774  19.114  0.00  0.00    +0.000 A 
ATOM      2  N   UNL     1      -0.414  12.708  18.907  0.00  0.00    +0.000 NA
ATOM      3  C   UNL     1       0.796  12.022  18.872  0.00  0.00    +0.000 A 
ATOM      4  C   UNL     1       0.556  10.667  19.035  0.00  0.00    +0.000 A 
ATOM      5  O   UNL     1      -0.799  10.509  19.211  0.00  0.00    +0.000 OA
ENDROOT
BRANCH   1   9
ATOM      6  C   UNL     1      -5.610  12.184  19.575  0.00  0.00    +0.000 A 
ATOM      7  C   UNL     1      -5.053  11.654  18.399  0.00  0.00    +0.000 A 
ATOM      8  C   UNL     1      -3.672  11.519  18.233  0.00  0.00    +0.000 A 
ATOM      9  C   UNL     1      -2.773  11.897  19.247  0.00  0.00    +0.000 A 
ATOM     10  C   UNL     1      -3.308  12.434  20.448  0.00  0.00    +0.000 A 
ATOM     11  C   UNL     1      -2.747  12.904  21.677  0.00  0.00    +0.000 A 
ATOM     12  C   UNL     1      -3.767  13.360  22.475  0.00  0.00    +0.000 A 
ATOM     13  N   UNL     1      -4.934  13.180  21.790  0.00  0.00    +0.000 N 
ATOM     14  C   UNL     1      -4.695  12.583  20.568  0.00  0.00    +0.000 A 
ATOM     15  H   UNL     1      -5.849  13.451  22.122  0.00  0.00    +0.000 HD
BRANCH   6  17
ATOM     16  C   UNL     1      -7.705  11.190  20.541  0.00  0.00    +0.000 C 
ATOM     17  C   UNL     1      -7.106  12.318  19.716  0.00  0.00    +0.000 C 
ENDBRANCH   6  17
ENDBRANCH   1   9
BRANCH   4  18
ATOM     18  C   UNL     1       1.342   9.439  19.004  0.00  0.00    +0.000 A 
ATOM     19  C   UNL     1       1.408   8.568  20.096  0.00  0.00    +0.000 A 
ATOM     20  C   UNL     1       2.097   7.344  19.999  0.00  0.00    +0.000 A 
ATOM     21  C   UNL     1       2.753   6.953  18.825  0.00  0.00    +0.000 A 
ATOM     22  C   UNL     1       2.718   7.862  17.764  0.00  0.00    +0.000 A 
ATOM     23  C   UNL     1       2.017   9.067  17.843  0.00  0.00    +0.000 A 
BRANCH  21  24
ATOM     24  N   UNL     1       3.374   5.732  18.686  0.00  0.00    +0.000 N 
ATOM     25  C   UNL     1       2.641   4.475  18.510  0.00  0.00    +0.000 C 
ATOM     26  C   UNL     1       3.201   3.693  17.294  0.00  0.00    +0.000 C 
ATOM     27  N   UNL     1       4.670   3.526  17.282  0.00  0.00    +0.000 NA
ATOM     28  C   UNL     1       5.365   4.828  17.470  0.00  0.00    +0.000 C 
ATOM     29  C   UNL     1       5.241   5.702  16.205  0.00  0.00    +0.000 C 
ATOM     30  C   UNL     1       6.858   4.518  17.684  0.00  0.00    +0.000 C 
ATOM     31  C   UNL     1       4.838   5.588  18.726  0.00  0.00    +0.000 C 
ATOM     32  H   UNL     1       4.953   3.112  16.396  0.00  0.00    +0.000 HD
ENDBRANCH  21  24
ENDBRANCH   4  18
BRANCH   3  33
ATOM     33  C   UNL     1       2.069  12.706  18.699  0.00  0.00    +0.000 C 
ATOM     34  N   UNL     1       2.610  12.614  17.448  0.00  0.00    +0.000 N 
ATOM     35  O   UNL     1       2.661  13.348  19.563  0.00  0.00    +0.000 OA
ATOM     36  H   UNL     1       2.090  12.179  16.698  0.00  0.00    +0.000 HD
ATOM     37  H   UNL     1       3.462  13.118  17.266  0.00  0.00    +0.000 HD
ENDBRANCH   3  33
TORSDOF 5
ENDMDL
MODEL 8
REMARK VINA RESULT:      -9.1      1.322      2.516
REMARK  Name = 
REMARK  8 active torsions:
REMARK  status: ('A' for Active; 'I' for Inactive)
REMARK    1  A    between atoms: C_1  and  C_2
REMARK    2  A    between atoms: C_2  and  C_3
REMARK    3  A    between atoms: C_6  and  C_7
REMARK    4  A    between atoms: C_9  and  C_10
REMARK    5  A    between atoms: C_13  and  C_14
REMARK    6  A    between atoms: C_17  and  N_18
REMARK    7  A    between atoms: C_22  and  C_23
REMARK    8  A    between atoms: C_22  and  C_24
REMARK                            x       y       z     vdW  Elec       q    Type
REMARK                         _______ _______ _______ _____ _____    ______ ____
ROOT
ATOM      1  C   UNL     1      -1.511  11.713  19.081  0.00  0.00    +0.000 A 
ATOM      2  N   UNL     1      -0.656  12.629  19.498  0.00  0.00    +0.000 NA
ATOM      3  C   UNL     1       0.555  11.956  19.618  0.00  0.00    +0.000 A 
ATOM      4  C   UNL     1       0.381  10.636  19.231  0.00  0.00    +0.000 A 
ATOM      5  O   UNL     1      -0.946  10.474  18.907  0.00  0.00    +0.000 OA
ENDROOT
BRANCH   1   9
ATOM      6  C   UNL     1      -5.745  12.114  18.269  0.00  0.00    +0.000 A 
ATOM      7  C   UNL     1      -4.863  11.616  17.296  0.00  0.00    +0.000 A 
ATOM      8  C   UNL     1      -3.494  11.484  17.541  0.00  0.00    +0.000 A 
ATOM      9  C   UNL     1      -2.936  11.834  18.785  0.00  0.00    +0.000 A 
ATOM     10  C   UNL     1      -3.805  12.339  19.788  0.00  0.00    +0.000 A 
ATOM     11  C   UNL     1      -3.634  12.774  21.140  0.00  0.00    +0.000 A 
ATOM     12  C   UNL     1      -4.848  13.209  21.613  0.00  0.00    +0.000 A 
ATOM     13  N   UNL     1      -5.760  13.048  20.610  0.00  0.00    +0.000 N 
ATOM     14  C   UNL     1      -5.167  12.485  19.498  0.00  0.00    +0.000 A 
ATOM     15  H   UNL     1      -6.734  13.311  20.665  0.00  0.00    +0.000 HD
BRANCH   6  17
ATOM     16  C   UNL     1      -7.581  13.642  17.493  0.00  0.00    +0.000 C 
ATOM     17  C   UNL     1      -7.218  12.245  17.967  0.00  0.00    +0.000 C 
ENDBRANCH   6  17
ENDBRANCH   1   9
BRANCH   4  18
ATOM     18  C   UNL     1       1.231   9.467  19.038  0.00  0.00    +0.000 A 
ATOM     19  C   UNL     1       1.415   8.505  20.037  0.00  0.00    +0.000 A 
ATOM     20  C   UNL     1       2.164   7.339  19.785  0.00  0.00    +0.000 A 
ATOM     21  C   UNL     1       2.765   7.098  18.543  0.00  0.00    +0.000 A 
ATOM     22  C   UNL     1       2.611   8.096  17.577  0.00  0.00    +0.000 A 
ATOM     23  C   UNL     1       1.851   9.245  17.810  0.00  0.00    +0.000 A 
BRANCH  21  24
ATOM     24  N   UNL     1       3.443   5.936  18.253  0.00  0.00    +0.000 N 
ATOM     25  C   UNL     1       4.906   5.835  18.276  0.00  0.00    +0.000 C 
ATOM     26  C   UNL     1       5.346   4.615  19.124  0.00  0.00    +0.000 C 
ATOM     27  N   UNL     1       4.671   3.344  18.786  0.00  0.00    +0.000 NA
ATOM     28  C   UNL     1       3.192   3.502  18.771  0.00  0.00    +0.000 C 
ATOM     29  C   UNL     1       2.644   3.657  20.205  0.00  0.00    +0.000 C 
ATOM     30  C   UNL     1       2.604   2.208  18.179  0.00  0.00    +0.000 C 
ATOM     31  C   UNL     1       2.749   4.697  17.872  0.00  0.00    +0.000 C 
ATOM     32  H   UNL     1       4.933   2.634  19.468  0.00  0.00    +0.000 HD
ENDBRANCH  21  24
ENDBRANCH   4  18
BRANCH   3  33
ATOM     33  C   UNL     1       1.763  12.613  20.095  0.00  0.00    +0.000 C 
ATOM     34  N   UNL     1       2.571  13.120  19.118  0.00  0.00    +0.000 N 
ATOM     35  O   UNL     1       2.087  12.749  21.272  0.00  0.00    +0.000 OA
ATOM     36  H   UNL     1       2.271  13.108  18.151  0.00  0.00    +0.000 HD
ATOM     37  H   UNL     1       3.389  13.631  19.402  0.00  0.00    +0.000 HD
ENDBRANCH   3  33
TORSDOF 5
ENDMDL
MODEL 9
REMARK VINA RESULT:      -9.1      1.083      1.921
REMARK  Name = 
REMARK  8 active torsions:
REMARK  status: ('A' for Active; 'I' for Inactive)
REMARK    1  A    between atoms: C_1  and  C_2
REMARK    2  A    between atoms: C_2  and  C_3
REMARK    3  A    between atoms: C_6  and  C_7
REMARK    4  A    between atoms: C_9  and  C_10
REMARK    5  A    between atoms: C_13  and  C_14
REMARK    6  A    between atoms: C_17  and  N_18
REMARK    7  A    between atoms: C_22  and  C_23
REMARK    8  A    between atoms: C_22  and  C_24
REMARK                            x       y       z     vdW  Elec       q    Type
REMARK                         _______ _______ _______ _____ _____    ______ ____
ROOT
ATOM      1  C   UNL     1      -1.480  11.674  18.978  0.00  0.00    +0.000 A 
ATOM      2  N   UNL     1      -0.605  12.612  19.295  0.00  0.00    +0.000 NA
ATOM      3  C   UNL     1       0.594  11.931  19.479  0.00  0.00    +0.000 A 
ATOM      4  C   UNL     1       0.393  10.582  19.231  0.00  0.00    +0.000 A 
ATOM      5  O   UNL     1      -0.939  10.414  18.930  0.00  0.00    +0.000 OA
ENDROOT
BRANCH   1   9
ATOM      6  C   UNL     1      -5.712  12.064  18.150  0.00  0.00    +0.000 A 
ATOM      7  C   UNL     1      -4.825  11.565  17.181  0.00  0.00    +0.000 A 
ATOM      8  C   UNL     1      -3.457  11.436  17.431  0.00  0.00    +0.000 A 
ATOM      9  C   UNL     1      -2.904  11.791  18.676  0.00  0.00    +0.000 A 
ATOM     10  C   UNL     1      -3.777  12.298  19.675  0.00  0.00    +0.000 A 
ATOM     11  C   UNL     1      -3.612  12.739  21.025  0.00  0.00    +0.000 A 
ATOM     12  C   UNL     1      -4.828  13.173  21.493  0.00  0.00    +0.000 A 
ATOM     13  N   UNL     1      -5.736  13.007  20.488  0.00  0.00    +0.000 N 
ATOM     14  C   UNL     1      -5.138  12.441  19.379  0.00  0.00    +0.000 A 
ATOM     15  H   UNL     1      -6.711  13.268  20.538  0.00  0.00    +0.000 HD
BRANCH   6  17
ATOM     16  C   UNL     1      -7.553  13.596  17.393  0.00  0.00    +0.000 C 
ATOM     17  C   UNL     1      -7.183  12.192  17.842  0.00  0.00    +0.000 C 
ENDBRANCH   6  17
ENDBRANCH   1   9
BRANCH   4  18
ATOM     18  C   UNL     1       1.219   9.383  19.156  0.00  0.00    +0.000 A 
ATOM     19  C   UNL     1       1.342   8.493  20.228  0.00  0.00    +0.000 A 
ATOM     20  C   UNL     1       2.070   7.296  20.091  0.00  0.00    +0.000 A 
ATOM     21  C   UNL     1       2.710   6.951  18.893  0.00  0.00    +0.000 A 
ATOM     22  C   UNL     1       2.617   7.878  17.852  0.00  0.00    +0.000 A 
ATOM     23  C   UNL     1       1.878   9.057  17.972  0.00  0.00    +0.000 A 
BRANCH  21  24
ATOM     24  N   UNL     1       3.369   5.755  18.715  0.00  0.00    +0.000 N 
ATOM     25  C   UNL     1       2.676   4.489  18.454  0.00  0.00    +0.000 C 
ATOM     26  C   UNL     1       3.295   3.784  17.221  0.00  0.00    +0.000 C 
ATOM     27  N   UNL     1       4.768   3.657  17.248  0.00  0.00    +0.000 NA
ATOM     28  C   UNL     1       5.421   4.965  17.521  0.00  0.00    +0.000 C 
ATOM     29  C   UNL     1       5.311   5.897  16.296  0.00  0.00    +0.000 C 
ATOM     30  C   UNL     1       6.914   4.684  17.767  0.00  0.00    +0.000 C 
ATOM     31  C   UNL     1       4.834   5.647  18.795  0.00  0.00    +0.000 C 
ATOM     32  H   UNL     1       5.089   3.295  16.352  0.00  0.00    +0.000 HD
ENDBRANCH  21  24
ENDBRANCH   4  18
BRANCH   3  33
ATOM     33  C   UNL     1       1.817  12.610  19.881  0.00  0.00    +0.000 C 
ATOM     34  N   UNL     1       2.608  13.035  18.852  0.00  0.00    +0.000 N 
ATOM     35  O   UNL     1       2.166  12.831  21.037  0.00  0.00    +0.000 OA
ATOM     36  H   UNL     1       2.288  12.954  17.896  0.00  0.00    +0.000 HD
ATOM     37  H   UNL     1       3.436  13.558  19.081  0.00  0.00    +0.000 HD
ENDBRANCH   3  33
TORSDOF 5
ENDMDL
