MODEL 1
REMARK VINA RESULT:      -7.3      0.000      0.000
REMARK  Name = 
REMARK  8 active torsions:
REMARK  status: ('A' for Active; 'I' for Inactive)
REMARK    1  A    between atoms: C_1  and  C_2
REMARK    2  A    between atoms: C_2  and  C_3
REMARK    3  A    between atoms: N_5  and  C_6
REMARK    4  A    between atoms: C_9  and  N_10
REMARK    5  A    between atoms: C_16  and  C_17
REMARK    6  A    between atoms: N_19  and  C_20
REMARK    7  A    between atoms: C_23  and  O_24
REMARK    8  A    between atoms: O_24  and  C_25
REMARK                            x       y       z     vdW  Elec       q    Type
REMARK                         _______ _______ _______ _____ _____    ______ ____
ROOT
ATOM      1  C   UNL     1       1.970   7.247  20.234  0.00  0.00    +0.000 A 
ATOM      2  C   UNL     1       2.072   7.708  18.930  0.00  0.00    +0.000 A 
ATOM      3  C   UNL     1       1.586   8.962  18.581  0.00  0.00    +0.000 A 
ATOM      4  C   UNL     1       0.970   9.824  19.505  0.00  0.00    +0.000 A 
ATOM      5  C   UNL     1       0.804   9.328  20.833  0.00  0.00    +0.000 A 
ATOM      6  C   UNL     1       1.314   8.047  21.177  0.00  0.00    +0.000 A 
ENDROOT
BRANCH   4   7
ATOM      7  N   UNL     1       0.625  11.109  19.082  0.00  0.00    +0.000 N 
ATOM      8  C   UNL     1       1.680  12.117  18.901  0.00  0.00    +0.000 C 
ATOM      9  C   UNL     1       1.105  13.498  19.193  0.00  0.00    +0.000 C 
ATOM     10  C   UNL     1      -0.136  13.779  18.348  0.00  0.00    +0.000 C 
ATOM     11  C   UNL     1      -1.155  12.642  18.442  0.00  0.00    +0.000 C 
ATOM     12  C   UNL     1      -0.515  11.276  18.175  0.00  0.00    +0.000 C 
ENDBRANCH   4   7
BRANCH   1  15
ATOM     13  C   UNL     1       1.767   4.815  20.682  0.00  0.00    +0.000 C 
ATOM     14  O   UNL     1       0.626   4.656  20.262  0.00  0.00    +0.000 OA
ATOM     15  N   UNL     1       2.494   5.996  20.628  0.00  0.00    +0.000 N 
ATOM     16  H   UNL     1       3.494   5.930  20.774  0.00  0.00    +0.000 HD
BRANCH  13  18
ATOM     17  C   UNL     1       1.579   2.529  21.670  0.00  0.00    +0.000 C 
ATOM     18  C   UNL     1       2.523   3.676  21.337  0.00  0.00    +0.000 C 
ENDBRANCH  13  18
ENDBRANCH   1  15
BRANCH   5  19
ATOM     19  C   UNL     1       0.205  10.173  21.937  0.00  0.00    +0.000 C 
ATOM     20  O   UNL     1       0.578  10.025  23.095  0.00  0.00    +0.000 OA
ATOM     21  N   UNL     1      -0.800  11.071  21.564  0.00  0.00    +0.000 N 
ATOM     22  H   UNL     1      -1.196  11.006  20.641  0.00  0.00    +0.000 HD
BRANCH  21  23
ATOM     23  C   UNL     1      -1.362  12.069  22.393  0.00  0.00    +0.000 A 
ATOM     24  C   UNL     1      -2.544  11.883  23.113  0.00  0.00    +0.000 A 
ATOM     25  C   UNL     1      -3.027  12.878  23.974  0.00  0.00    +0.000 A 
ATOM     26  C   UNL     1      -2.336  14.078  24.126  0.00  0.00    +0.000 A 
ATOM     27  C   UNL     1      -1.172  14.290  23.390  0.00  0.00    +0.000 A 
ATOM     28  C   UNL     1      -0.677  13.283  22.543  0.00  0.00    +0.000 A 
BRANCH  26  29
ATOM     29  O   UNL     1      -2.907  14.979  24.982  0.00  0.00    +0.000 OA
ATOM     30  C   UNL     1      -2.012  15.609  25.891  0.00  0.00    +0.000 C 
ENDBRANCH  26  29
ENDBRANCH  21  23
ENDBRANCH   5  19
TORSDOF 6
ENDMDL
MODEL 2
REMARK VINA RESULT:      -7.3      4.231      7.642
REMARK  Name = 
REMARK  8 active torsions:
REMARK  status: ('A' for Active; 'I' for Inactive)
REMARK    1  A    between atoms: C_1  and  C_2
REMARK    2  A    between atoms: C_2  and  C_3
REMARK    3  A    between atoms: N_5  and  C_6
REMARK    4  A    between atoms: C_9  and  N_10
REMARK    5  A    between atoms: C_16  and  C_17
REMARK    6  A    between atoms: N_19  and  C_20
REMARK    7  A    between atoms: C_23  and  O_24
REMARK    8  A    between atoms: O_24  and  C_25
REMARK                            x       y       z     vdW  Elec       q    Type
REMARK                         _______ _______ _______ _____ _____    ______ ____
ROOT
ATOM      1  C   UNL     1       5.666   5.055  16.264  0.00  0.00    +0.000 A 
ATOM      2  C   UNL     1       5.864   3.862  16.941  0.00  0.00    +0.000 A 
ATOM      3  C   UNL     1       4.996   3.466  17.951  0.00  0.00    +0.000 A 
ATOM      4  C   UNL     1       3.886   4.234  18.345  0.00  0.00    +0.000 A 
ATOM      5  C   UNL     1       3.714   5.494  17.696  0.00  0.00    +0.000 A 
ATOM      6  C   UNL     1       4.606   5.881  16.659  0.00  0.00    +0.000 A 
ENDROOT
BRANCH   4   7
ATOM      7  N   UNL     1       3.008   3.692  19.285  0.00  0.00    +0.000 N 
ATOM      8  C   UNL     1       1.903   2.835  18.831  0.00  0.00    +0.000 C 
ATOM      9  C   UNL     1       0.726   2.989  19.787  0.00  0.00    +0.000 C 
ATOM     10  C   UNL     1       1.137   2.712  21.231  0.00  0.00    +0.000 C 
ATOM     11  C   UNL     1       2.380   3.511  21.631  0.00  0.00    +0.000 C 
ATOM     12  C   UNL     1       3.516   3.348  20.617  0.00  0.00    +0.000 C 
ENDBRANCH   4   7
BRANCH   1  15
ATOM     13  C   UNL     1       6.724   4.734  14.044  0.00  0.00    +0.000 C 
ATOM     14  O   UNL     1       6.119   3.720  13.709  0.00  0.00    +0.000 OA
ATOM     15  N   UNL     1       6.505   5.463  15.204  0.00  0.00    +0.000 N 
ATOM     16  H   UNL     1       6.885   6.401  15.238  0.00  0.00    +0.000 HD
BRANCH  13  18
ATOM     17  C   UNL     1       7.565   5.003  11.707  0.00  0.00    +0.000 C 
ATOM     18  C   UNL     1       7.827   5.306  13.176  0.00  0.00    +0.000 C 
ENDBRANCH  13  18
ENDBRANCH   1  15
BRANCH   5  19
ATOM     19  C   UNL     1       2.533   6.393  17.988  0.00  0.00    +0.000 C 
ATOM     20  O   UNL     1       1.404   6.055  17.649  0.00  0.00    +0.000 OA
ATOM     21  N   UNL     1       2.813   7.614  18.609  0.00  0.00    +0.000 N 
ATOM     22  H   UNL     1       3.770   7.918  18.683  0.00  0.00    +0.000 HD
BRANCH  21  23
ATOM     23  C   UNL     1       1.854   8.515  19.127  0.00  0.00    +0.000 A 
ATOM     24  C   UNL     1       1.273   9.530  18.364  0.00  0.00    +0.000 A 
ATOM     25  C   UNL     1       0.277  10.356  18.903  0.00  0.00    +0.000 A 
ATOM     26  C   UNL     1      -0.154  10.181  20.216  0.00  0.00    +0.000 A 
ATOM     27  C   UNL     1       0.439   9.192  20.999  0.00  0.00    +0.000 A 
ATOM     28  C   UNL     1       1.423   8.350  20.451  0.00  0.00    +0.000 A 
BRANCH  26  29
ATOM     29  O   UNL     1      -1.120  11.051  20.638  0.00  0.00    +0.000 OA
ATOM     30  C   UNL     1      -0.802  11.796  21.809  0.00  0.00    +0.000 C 
ENDBRANCH  26  29
ENDBRANCH  21  23
ENDBRANCH   5  19
TORSDOF 6
ENDMDL
MODEL 3
REMARK VINA RESULT:      -7.2      4.308      7.640
REMARK  Name = 
REMARK  8 active torsions:
REMARK  status: ('A' for Active; 'I' for Inactive)
REMARK    1  A    between atoms: C_1  and  C_2
REMARK    2  A    between atoms: C_2  and  C_3
REMARK    3  A    between atoms: N_5  and  C_6
REMARK    4  A    between atoms: C_9  and  N_10
REMARK    5  A    between atoms: C_16  and  C_17
REMARK    6  A    between atoms: N_19  and  C_20
REMARK    7  A    between atoms: C_23  and  O_24
REMARK    8  A    between atoms: O_24  and  C_25
REMARK                            x       y       z     vdW  Elec       q    Type
REMARK                         _______ _______ _______ _____ _____    ______ ____
ROOT
ATOM      1  C   UNL     1       5.568   5.285  16.127  0.00  0.00    +0.000 A 
ATOM      2  C   UNL     1       5.539   3.972  16.571  0.00  0.00    +0.000 A 
ATOM      3  C   UNL     1       4.691   3.590  17.603  0.00  0.00    +0.000 A 
ATOM      4  C   UNL     1       3.827   4.491  18.251  0.00  0.00    +0.000 A 
ATOM      5  C   UNL     1       3.899   5.857  17.841  0.00  0.00    +0.000 A 
ATOM      6  C   UNL     1       4.766   6.230  16.779  0.00  0.00    +0.000 A 
ENDROOT
BRANCH   4   7
ATOM      7  N   UNL     1       2.930   3.985  19.192  0.00  0.00    +0.000 N 
ATOM      8  C   UNL     1       1.525   3.777  18.811  0.00  0.00    +0.000 C 
ATOM      9  C   UNL     1       0.641   3.972  20.038  0.00  0.00    +0.000 C 
ATOM     10  C   UNL     1       1.081   3.077  21.194  0.00  0.00    +0.000 C 
ATOM     11  C   UNL     1       2.580   3.206  21.473  0.00  0.00    +0.000 C 
ATOM     12  C   UNL     1       3.415   3.037  20.200  0.00  0.00    +0.000 C 
ENDBRANCH   4   7
BRANCH   1  15
ATOM     13  C   UNL     1       6.812   4.865  14.022  0.00  0.00    +0.000 C 
ATOM     14  O   UNL     1       6.427   3.718  13.819  0.00  0.00    +0.000 OA
ATOM     15  N   UNL     1       6.386   5.693  15.051  0.00  0.00    +0.000 N 
ATOM     16  H   UNL     1       6.585   6.682  14.959  0.00  0.00    +0.000 HD
BRANCH  13  18
ATOM     17  C   UNL     1       7.558   5.194  11.661  0.00  0.00    +0.000 C 
ATOM     18  C   UNL     1       7.846   5.511  13.122  0.00  0.00    +0.000 C 
ENDBRANCH  13  18
ENDBRANCH   1  15
BRANCH   5  19
ATOM     19  C   UNL     1       2.988   6.917  18.420  0.00  0.00    +0.000 C 
ATOM     20  O   UNL     1       2.698   6.895  19.611  0.00  0.00    +0.000 OA
ATOM     21  N   UNL     1       2.481   7.865  17.525  0.00  0.00    +0.000 N 
ATOM     22  H   UNL     1       2.596   7.715  16.537  0.00  0.00    +0.000 HD
BRANCH  21  23
ATOM     23  C   UNL     1       1.765   9.032  17.878  0.00  0.00    +0.000 A 
ATOM     24  C   UNL     1       0.391   9.036  18.126  0.00  0.00    +0.000 A 
ATOM     25  C   UNL     1      -0.263  10.205  18.538  0.00  0.00    +0.000 A 
ATOM     26  C   UNL     1       0.448  11.391  18.708  0.00  0.00    +0.000 A 
ATOM     27  C   UNL     1       1.814  11.409  18.435  0.00  0.00    +0.000 A 
ATOM     28  C   UNL     1       2.473  10.231  18.041  0.00  0.00    +0.000 A 
BRANCH  26  29
ATOM     29  O   UNL     1      -0.296  12.469  19.101  0.00  0.00    +0.000 OA
ATOM     30  C   UNL     1      -1.707  12.282  19.068  0.00  0.00    +0.000 C 
ENDBRANCH  26  29
ENDBRANCH  21  23
ENDBRANCH   5  19
TORSDOF 6
ENDMDL
MODEL 4
REMARK VINA RESULT:      -7.2      4.176      7.515
REMARK  Name = 
REMARK  8 active torsions:
REMARK  status: ('A' for Active; 'I' for Inactive)
REMARK    1  A    between atoms: C_1  and  C_2
REMARK    2  A    between atoms: C_2  and  C_3
REMARK    3  A    between atoms: N_5  and  C_6
REMARK    4  A    between atoms: C_9  and  N_10
REMARK    5  A    between atoms: C_16  and  C_17
REMARK    6  A    between atoms: N_19  and  C_20
REMARK    7  A    between atoms: C_23  and  O_24
REMARK    8  A    between atoms: O_24  and  C_25
REMARK                            x       y       z     vdW  Elec       q    Type
REMARK                         _______ _______ _______ _____ _____    ______ ____
ROOT
ATOM      1  C   UNL     1       5.720   5.240  16.402  0.00  0.00    +0.000 A 
ATOM      2  C   UNL     1       5.921   4.085  17.142  0.00  0.00    +0.000 A 
ATOM      3  C   UNL     1       5.024   3.714  18.136  0.00  0.00    +0.000 A 
ATOM      4  C   UNL     1       3.880   4.470  18.450  0.00  0.00    +0.000 A 
ATOM      5  C   UNL     1       3.703   5.693  17.736  0.00  0.00    +0.000 A 
ATOM      6  C   UNL     1       4.625   6.054  16.716  0.00  0.00    +0.000 A 
ENDROOT
BRANCH   4   7
ATOM      7  N   UNL     1       2.979   3.949  19.381  0.00  0.00    +0.000 N 
ATOM      8  C   UNL     1       2.681   4.713  20.601  0.00  0.00    +0.000 C 
ATOM      9  C   UNL     1       2.355   3.742  21.730  0.00  0.00    +0.000 C 
ATOM     10  C   UNL     1       1.233   2.784  21.340  0.00  0.00    +0.000 C 
ATOM     11  C   UNL     1       1.503   2.112  19.992  0.00  0.00    +0.000 C 
ATOM     12  C   UNL     1       1.859   3.131  18.906  0.00  0.00    +0.000 C 
ENDBRANCH   4   7
BRANCH   1  15
ATOM     13  C   UNL     1       6.813   4.878  14.205  0.00  0.00    +0.000 C 
ATOM     14  O   UNL     1       6.190   3.879  13.864  0.00  0.00    +0.000 OA
ATOM     15  N   UNL     1       6.590   5.620  15.357  0.00  0.00    +0.000 N 
ATOM     16  H   UNL     1       6.993   6.548  15.393  0.00  0.00    +0.000 HD
BRANCH  13  18
ATOM     17  C   UNL     1       7.650   5.219  11.876  0.00  0.00    +0.000 C 
ATOM     18  C   UNL     1       7.947   5.418  13.356  0.00  0.00    +0.000 C 
ENDBRANCH  13  18
ENDBRANCH   1  15
BRANCH   5  19
ATOM     19  C   UNL     1       2.489   6.573  17.939  0.00  0.00    +0.000 C 
ATOM     20  O   UNL     1       1.399   6.228  17.495  0.00  0.00    +0.000 OA
ATOM     21  N   UNL     1       2.697   7.785  18.604  0.00  0.00    +0.000 N 
ATOM     22  H   UNL     1       3.640   8.098  18.767  0.00  0.00    +0.000 HD
BRANCH  21  23
ATOM     23  C   UNL     1       1.685   8.664  19.052  0.00  0.00    +0.000 A 
ATOM     24  C   UNL     1       1.206   8.667  20.364  0.00  0.00    +0.000 A 
ATOM     25  C   UNL     1       0.248   9.603  20.779  0.00  0.00    +0.000 A 
ATOM     26  C   UNL     1      -0.247  10.551  19.887  0.00  0.00    +0.000 A 
ATOM     27  C   UNL     1       0.199  10.540  18.567  0.00  0.00    +0.000 A 
ATOM     28  C   UNL     1       1.174   9.614  18.157  0.00  0.00    +0.000 A 
BRANCH  26  29
ATOM     29  O   UNL     1      -1.186  11.404  20.398  0.00  0.00    +0.000 OA
ATOM     30  C   UNL     1      -2.046  12.011  19.440  0.00  0.00    +0.000 C 
ENDBRANCH  26  29
ENDBRANCH  21  23
ENDBRANCH   5  19
TORSDOF 6
ENDMDL
MODEL 5
REMARK VINA RESULT:      -7.1      4.845      8.032
REMARK  Name = 
REMARK  8 active torsions:
REMARK  status: ('A' for Active; 'I' for Inactive)
REMARK    1  A    between atoms: C_1  and  C_2
REMARK    2  A    between atoms: C_2  and  C_3
REMARK    3  A    between atoms: N_5  and  C_6
REMARK    4  A    between atoms: C_9  and  N_10
REMARK    5  A    between atoms: C_16  and  C_17
REMARK    6  A    between atoms: N_19  and  C_20
REMARK    7  A    between atoms: C_23  and  O_24
REMARK    8  A    between atoms: O_24  and  C_25
REMARK                            x       y       z     vdW  Elec       q    Type
REMARK                         _______ _______ _______ _____ _____    ______ ____
ROOT
ATOM      1  C   UNL     1       5.689   4.092  15.311  0.00  0.00    +0.000 A 
ATOM      2  C   UNL     1       5.285   2.883  15.854  0.00  0.00    +0.000 A 
ATOM      3  C   UNL     1       4.481   2.847  16.988  0.00  0.00    +0.000 A 
ATOM      4  C   UNL     1       4.036   4.009  17.642  0.00  0.00    +0.000 A 
ATOM      5  C   UNL     1       4.503   5.256  17.125  0.00  0.00    +0.000 A 
ATOM      6  C   UNL     1       5.318   5.275  15.961  0.00  0.00    +0.000 A 
ENDROOT
BRANCH   4   7
ATOM      7  N   UNL     1       3.135   3.869  18.699  0.00  0.00    +0.000 N 
ATOM      8  C   UNL     1       1.914   3.073  18.505  0.00  0.00    +0.000 C 
ATOM      9  C   UNL     1       0.805   3.639  19.384  0.00  0.00    +0.000 C 
ATOM     10  C   UNL     1       1.235   3.719  20.847  0.00  0.00    +0.000 C 
ATOM     11  C   UNL     1       2.583   4.426  21.004  0.00  0.00    +0.000 C 
ATOM     12  C   UNL     1       3.648   3.840  20.072  0.00  0.00    +0.000 C 
ENDBRANCH   4   7
BRANCH   1  15
ATOM     13  C   UNL     1       6.023   3.812  12.869  0.00  0.00    +0.000 C 
ATOM     14  O   UNL     1       4.866   3.541  12.566  0.00  0.00    +0.000 OA
ATOM     15  N   UNL     1       6.469   4.161  14.136  0.00  0.00    +0.000 N 
ATOM     16  H   UNL     1       7.379   4.601  14.200  0.00  0.00    +0.000 HD
BRANCH  13  18
ATOM     17  C   UNL     1       7.290   2.383  11.260  0.00  0.00    +0.000 C 
ATOM     18  C   UNL     1       7.127   3.784  11.831  0.00  0.00    +0.000 C 
ENDBRANCH  13  18
ENDBRANCH   1  15
BRANCH   5  19
ATOM     19  C   UNL     1       4.058   6.581  17.704  0.00  0.00    +0.000 C 
ATOM     20  O   UNL     1       4.838   7.527  17.741  0.00  0.00    +0.000 OA
ATOM     21  N   UNL     1       2.759   6.638  18.217  0.00  0.00    +0.000 N 
ATOM     22  H   UNL     1       2.242   5.783  18.335  0.00  0.00    +0.000 HD
BRANCH  21  23
ATOM     23  C   UNL     1       2.089   7.811  18.635  0.00  0.00    +0.000 A 
ATOM     24  C   UNL     1       1.697   8.819  17.753  0.00  0.00    +0.000 A 
ATOM     25  C   UNL     1       0.976   9.932  18.205  0.00  0.00    +0.000 A 
ATOM     26  C   UNL     1       0.634  10.055  19.550  0.00  0.00    +0.000 A 
ATOM     27  C   UNL     1       1.045   9.071  20.448  0.00  0.00    +0.000 A 
ATOM     28  C   UNL     1       1.751   7.945  19.989  0.00  0.00    +0.000 A 
BRANCH  26  29
ATOM     29  O   UNL     1      -0.059  11.187  19.879  0.00  0.00    +0.000 OA
ATOM     30  C   UNL     1      -0.078  12.202  18.881  0.00  0.00    +0.000 C 
ENDBRANCH  26  29
ENDBRANCH  21  23
ENDBRANCH   5  19
TORSDOF 6
ENDMDL
MODEL 6
REMARK VINA RESULT:      -7.1      4.401      7.892
REMARK  Name = 
REMARK  8 active torsions:
REMARK  status: ('A' for Active; 'I' for Inactive)
REMARK    1  A    between atoms: C_1  and  C_2
REMARK    2  A    between atoms: C_2  and  C_3
REMARK    3  A    between atoms: N_5  and  C_6
REMARK    4  A    between atoms: C_9  and  N_10
REMARK    5  A    between atoms: C_16  and  C_17
REMARK    6  A    between atoms: N_19  and  C_20
REMARK    7  A    between atoms: C_23  and  O_24
REMARK    8  A    between atoms: O_24  and  C_25
REMARK                            x       y       z     vdW  Elec       q    Type
REMARK                         _______ _______ _______ _____ _____    ______ ____
ROOT
ATOM      1  C   UNL     1       5.109   4.121  15.696  0.00  0.00    +0.000 A 
ATOM      2  C   UNL     1       4.773   2.841  16.107  0.00  0.00    +0.000 A 
ATOM      3  C   UNL     1       4.063   2.637  17.284  0.00  0.00    +0.000 A 
ATOM      4  C   UNL     1       3.651   3.692  18.117  0.00  0.00    +0.000 A 
ATOM      5  C   UNL     1       4.051   5.007  17.733  0.00  0.00    +0.000 A 
ATOM      6  C   UNL     1       4.769   5.200  16.522  0.00  0.00    +0.000 A 
ENDROOT
BRANCH   4   7
ATOM      7  N   UNL     1       2.840   3.391  19.213  0.00  0.00    +0.000 N 
ATOM      8  C   UNL     1       1.379   3.448  19.066  0.00  0.00    +0.000 C 
ATOM      9  C   UNL     1       0.758   3.839  20.402  0.00  0.00    +0.000 C 
ATOM     10  C   UNL     1       1.206   2.905  21.524  0.00  0.00    +0.000 C 
ATOM     11  C   UNL     1       2.728   2.751  21.560  0.00  0.00    +0.000 C 
ATOM     12  C   UNL     1       3.299   2.393  20.184  0.00  0.00    +0.000 C 
ENDBRANCH   4   7
BRANCH   1  15
ATOM     13  C   UNL     1       7.087   4.849  14.388  0.00  0.00    +0.000 C 
ATOM     14  O   UNL     1       7.868   4.995  15.322  0.00  0.00    +0.000 OA
ATOM     15  N   UNL     1       5.791   4.363  14.483  0.00  0.00    +0.000 N 
ATOM     16  H   UNL     1       5.349   4.056  13.626  0.00  0.00    +0.000 HD
BRANCH  13  18
ATOM     17  C   UNL     1       7.091   4.103  12.004  0.00  0.00    +0.000 C 
ATOM     18  C   UNL     1       7.489   5.209  12.971  0.00  0.00    +0.000 C 
ENDBRANCH  13  18
ENDBRANCH   1  15
BRANCH   5  19
ATOM     19  C   UNL     1       3.630   6.234  18.511  0.00  0.00    +0.000 C 
ATOM     20  O   UNL     1       4.271   6.588  19.495  0.00  0.00    +0.000 OA
ATOM     21  N   UNL     1       2.473   6.888  18.075  0.00  0.00    +0.000 N 
ATOM     22  H   UNL     1       1.887   6.440  17.391  0.00  0.00    +0.000 HD
BRANCH  21  23
ATOM     23  C   UNL     1       2.008   8.139  18.541  0.00  0.00    +0.000 A 
ATOM     24  C   UNL     1       2.025   9.296  17.760  0.00  0.00    +0.000 A 
ATOM     25  C   UNL     1       1.491  10.499  18.242  0.00  0.00    +0.000 A 
ATOM     26  C   UNL     1       0.931  10.564  19.516  0.00  0.00    +0.000 A 
ATOM     27  C   UNL     1       0.935   9.425  20.319  0.00  0.00    +0.000 A 
ATOM     28  C   UNL     1       1.452   8.213  19.826  0.00  0.00    +0.000 A 
BRANCH  26  29
ATOM     29  O   UNL     1       0.453  11.791  19.885  0.00  0.00    +0.000 OA
ATOM     30  C   UNL     1       1.077  12.372  21.024  0.00  0.00    +0.000 C 
ENDBRANCH  26  29
ENDBRANCH  21  23
ENDBRANCH   5  19
TORSDOF 6
ENDMDL
MODEL 7
REMARK VINA RESULT:      -7.1      4.293      7.994
REMARK  Name = 
REMARK  8 active torsions:
REMARK  status: ('A' for Active; 'I' for Inactive)
REMARK    1  A    between atoms: C_1  and  C_2
REMARK    2  A    between atoms: C_2  and  C_3
REMARK    3  A    between atoms: N_5  and  C_6
REMARK    4  A    between atoms: C_9  and  N_10
REMARK    5  A    between atoms: C_16  and  C_17
REMARK    6  A    between atoms: N_19  and  C_20
REMARK    7  A    between atoms: C_23  and  O_24
REMARK    8  A    between atoms: O_24  and  C_25
REMARK                            x       y       z     vdW  Elec       q    Type
REMARK                         _______ _______ _______ _____ _____    ______ ____
ROOT
ATOM      1  C   UNL     1       5.218   3.978  15.800  0.00  0.00    +0.000 A 
ATOM      2  C   UNL     1       5.375   2.826  16.555  0.00  0.00    +0.000 A 
ATOM      3  C   UNL     1       4.617   2.620  17.701  0.00  0.00    +0.000 A 
ATOM      4  C   UNL     1       3.663   3.546  18.159  0.00  0.00    +0.000 A 
ATOM      5  C   UNL     1       3.543   4.763  17.422  0.00  0.00    +0.000 A 
ATOM      6  C   UNL     1       4.321   4.955  16.247  0.00  0.00    +0.000 A 
ENDROOT
BRANCH   4   7
ATOM      7  N   UNL     1       2.869   3.192  19.251  0.00  0.00    +0.000 N 
ATOM      8  C   UNL     1       1.574   2.537  19.018  0.00  0.00    +0.000 C 
ATOM      9  C   UNL     1       0.613   2.920  20.138  0.00  0.00    +0.000 C 
ATOM     10  C   UNL     1       1.199   2.605  21.512  0.00  0.00    +0.000 C 
ATOM     11  C   UNL     1       2.609   3.177  21.672  0.00  0.00    +0.000 C 
ATOM     12  C   UNL     1       3.519   2.790  20.503  0.00  0.00    +0.000 C 
ENDBRANCH   4   7
BRANCH   1  15
ATOM     13  C   UNL     1       7.073   4.993  14.502  0.00  0.00    +0.000 C 
ATOM     14  O   UNL     1       7.684   5.497  15.439  0.00  0.00    +0.000 OA
ATOM     15  N   UNL     1       5.942   4.195  14.607  0.00  0.00    +0.000 N 
ATOM     16  H   UNL     1       5.690   3.644  13.796  0.00  0.00    +0.000 HD
BRANCH  13  18
ATOM     17  C   UNL     1       7.012   4.095  12.172  0.00  0.00    +0.000 C 
ATOM     18  C   UNL     1       7.520   5.214  13.071  0.00  0.00    +0.000 C 
ENDBRANCH  13  18
ENDBRANCH   1  15
BRANCH   5  19
ATOM     19  C   UNL     1       2.520   5.819  17.777  0.00  0.00    +0.000 C 
ATOM     20  O   UNL     1       1.330   5.620  17.559  0.00  0.00    +0.000 OA
ATOM     21  N   UNL     1       3.012   7.015  18.308  0.00  0.00    +0.000 N 
ATOM     22  H   UNL     1       4.002   7.193  18.279  0.00  0.00    +0.000 HD
BRANCH  21  23
ATOM     23  C   UNL     1       2.230   8.052  18.867  0.00  0.00    +0.000 A 
ATOM     24  C   UNL     1       1.803   9.162  18.135  0.00  0.00    +0.000 A 
ATOM     25  C   UNL     1       0.974  10.131  18.715  0.00  0.00    +0.000 A 
ATOM     26  C   UNL     1       0.559  10.007  20.039  0.00  0.00    +0.000 A 
ATOM     27  C   UNL     1       1.003   8.921  20.791  0.00  0.00    +0.000 A 
ATOM     28  C   UNL     1       1.818   7.938  20.202  0.00  0.00    +0.000 A 
BRANCH  26  29
ATOM     29  O   UNL     1      -0.238  11.018  20.501  0.00  0.00    +0.000 OA
ATOM     30  C   UNL     1      -1.212  11.498  19.581  0.00  0.00    +0.000 C 
ENDBRANCH  26  29
ENDBRANCH  21  23
ENDBRANCH   5  19
TORSDOF 6
ENDMDL
MODEL 8
REMARK VINA RESULT:      -7.0      0.811      1.215
REMARK  Name = 
REMARK  8 active torsions:
REMARK  status: ('A' for Active; 'I' for Inactive)
REMARK    1  A    between atoms: C_1  and  C_2
REMARK    2  A    between atoms: C_2  and  C_3
REMARK    3  A    between atoms: N_5  and  C_6
REMARK    4  A    between atoms: C_9  and  N_10
REMARK    5  A    between atoms: C_16  and  C_17
REMARK    6  A    between atoms: N_19  and  C_20
REMARK    7  A    between atoms: C_23  and  O_24
REMARK    8  A    between atoms: O_24  and  C_25
REMARK                            x       y       z     vdW  Elec       q    Type
REMARK                         _______ _______ _______ _____ _____    ______ ____
ROOT
ATOM      1  C   UNL     1       1.729   7.439  20.480  0.00  0.00    +0.000 A 
ATOM      2  C   UNL     1       1.911   7.955  19.207  0.00  0.00    +0.000 A 
ATOM      3  C   UNL     1       1.473   9.235  18.890  0.00  0.00    +0.000 A 
ATOM      4  C   UNL     1       0.831  10.071  19.821  0.00  0.00    +0.000 A 
ATOM      5  C   UNL     1       0.584   9.521  21.115  0.00  0.00    +0.000 A 
ATOM      6  C   UNL     1       1.045   8.213  21.425  0.00  0.00    +0.000 A 
ENDROOT
BRANCH   4   7
ATOM      7  N   UNL     1       0.539  11.382  19.440  0.00  0.00    +0.000 N 
ATOM      8  C   UNL     1       1.605  12.394  19.459  0.00  0.00    +0.000 C 
ATOM      9  C   UNL     1       0.995  13.757  19.763  0.00  0.00    +0.000 C 
ATOM     10  C   UNL     1      -0.130  14.098  18.788  0.00  0.00    +0.000 C 
ATOM     11  C   UNL     1      -1.150  12.963  18.679  0.00  0.00    +0.000 C 
ATOM     12  C   UNL     1      -0.478  11.613  18.409  0.00  0.00    +0.000 C 
ENDBRANCH   4   7
BRANCH   1  15
ATOM     13  C   UNL     1       2.151   5.036  20.029  0.00  0.00    +0.000 C 
ATOM     14  O   UNL     1       1.831   5.024  18.845  0.00  0.00    +0.000 OA
ATOM     15  N   UNL     1       2.202   6.159  20.843  0.00  0.00    +0.000 N 
ATOM     16  H   UNL     1       2.717   6.075  21.711  0.00  0.00    +0.000 HD
BRANCH  13  18
ATOM     17  C   UNL     1       1.295   3.040  21.262  0.00  0.00    +0.000 C 
ATOM     18  C   UNL     1       2.535   3.757  20.746  0.00  0.00    +0.000 C 
ENDBRANCH  13  18
ENDBRANCH   1  15
BRANCH   5  19
ATOM     19  C   UNL     1      -0.052  10.331  22.224  0.00  0.00    +0.000 C 
ATOM     20  O   UNL     1       0.246  10.111  23.393  0.00  0.00    +0.000 OA
ATOM     21  N   UNL     1      -1.002  11.282  21.840  0.00  0.00    +0.000 N 
ATOM     22  H   UNL     1      -1.343  11.279  20.894  0.00  0.00    +0.000 HD
BRANCH  21  23
ATOM     23  C   UNL     1      -1.579  12.258  22.686  0.00  0.00    +0.000 A 
ATOM     24  C   UNL     1      -0.936  13.451  23.020  0.00  0.00    +0.000 A 
ATOM     25  C   UNL     1      -1.575  14.418  23.808  0.00  0.00    +0.000 A 
ATOM     26  C   UNL     1      -2.870  14.206  24.275  0.00  0.00    +0.000 A 
ATOM     27  C   UNL     1      -3.513  13.007  23.974  0.00  0.00    +0.000 A 
ATOM     28  C   UNL     1      -2.878  12.046  23.167  0.00  0.00    +0.000 A 
BRANCH  26  29
ATOM     29  O   UNL     1      -3.389  15.211  25.043  0.00  0.00    +0.000 OA
ATOM     30  C   UNL     1      -4.530  15.867  24.501  0.00  0.00    +0.000 C 
ENDBRANCH  26  29
ENDBRANCH  21  23
ENDBRANCH   5  19
TORSDOF 6
ENDMDL
MODEL 9
REMARK VINA RESULT:      -7.0      4.673      7.801
REMARK  Name = 
REMARK  8 active torsions:
REMARK  status: ('A' for Active; 'I' for Inactive)
REMARK    1  A    between atoms: C_1  and  C_2
REMARK    2  A    between atoms: C_2  and  C_3
REMARK    3  A    between atoms: N_5  and  C_6
REMARK    4  A    between atoms: C_9  and  N_10
REMARK    5  A    between atoms: C_16  and  C_17
REMARK    6  A    between atoms: N_19  and  C_20
REMARK    7  A    between atoms: C_23  and  O_24
REMARK    8  A    between atoms: O_24  and  C_25
REMARK                            x       y       z     vdW  Elec       q    Type
REMARK                         _______ _______ _______ _____ _____    ______ ____
ROOT
ATOM      1  C   UNL     1       5.703   4.633  15.332  0.00  0.00    +0.000 A 
ATOM      2  C   UNL     1       5.352   3.368  15.779  0.00  0.00    +0.000 A 
ATOM      3  C   UNL     1       4.535   3.210  16.891  0.00  0.00    +0.000 A 
ATOM      4  C   UNL     1       4.022   4.297  17.620  0.00  0.00    +0.000 A 
ATOM      5  C   UNL     1       4.432   5.600  17.203  0.00  0.00    +0.000 A 
ATOM      6  C   UNL     1       5.262   5.745  16.059  0.00  0.00    +0.000 A 
ENDROOT
BRANCH   4   7
ATOM      7  N   UNL     1       3.114   4.035  18.647  0.00  0.00    +0.000 N 
ATOM      8  C   UNL     1       1.956   3.170  18.382  0.00  0.00    +0.000 C 
ATOM      9  C   UNL     1       0.794   3.606  19.266  0.00  0.00    +0.000 C 
ATOM     10  C   UNL     1       1.190   3.633  20.741  0.00  0.00    +0.000 C 
ATOM     11  C   UNL     1       2.482   4.421  20.967  0.00  0.00    +0.000 C 
ATOM     12  C   UNL     1       3.602   3.965  20.028  0.00  0.00    +0.000 C 
ENDBRANCH   4   7
BRANCH   1  15
ATOM     13  C   UNL     1       6.321   4.154  12.978  0.00  0.00    +0.000 C 
ATOM     14  O   UNL     1       5.380   3.418  12.698  0.00  0.00    +0.000 OA
ATOM     15  N   UNL     1       6.495   4.826  14.179  0.00  0.00    +0.000 N 
ATOM     16  H   UNL     1       7.165   5.585  14.190  0.00  0.00    +0.000 HD
BRANCH  13  18
ATOM     17  C   UNL     1       8.236   5.639  12.374  0.00  0.00    +0.000 C 
ATOM     18  C   UNL     1       7.438   4.403  11.984  0.00  0.00    +0.000 C 
ENDBRANCH  13  18
ENDBRANCH   1  15
BRANCH   5  19
ATOM     19  C   UNL     1       3.913   6.856  17.868  0.00  0.00    +0.000 C 
ATOM     20  O   UNL     1       4.642   7.835  17.986  0.00  0.00    +0.000 OA
ATOM     21  N   UNL     1       2.606   6.810  18.361  0.00  0.00    +0.000 N 
ATOM     22  H   UNL     1       2.132   5.923  18.410  0.00  0.00    +0.000 HD
BRANCH  21  23
ATOM     23  C   UNL     1       1.870   7.913  18.852  0.00  0.00    +0.000 A 
ATOM     24  C   UNL     1       1.572   8.089  20.205  0.00  0.00    +0.000 A 
ATOM     25  C   UNL     1       0.898   9.233  20.652  0.00  0.00    +0.000 A 
ATOM     26  C   UNL     1       0.509  10.221  19.751  0.00  0.00    +0.000 A 
ATOM     27  C   UNL     1       0.772  10.046  18.394  0.00  0.00    +0.000 A 
ATOM     28  C   UNL     1       1.467   8.907  17.949  0.00  0.00    +0.000 A 
BRANCH  26  29
ATOM     29  O   UNL     1      -0.152  11.286  20.298  0.00  0.00    +0.000 OA
ATOM     30  C   UNL     1      -0.245  11.283  21.719  0.00  0.00    +0.000 C 
ENDBRANCH  26  29
ENDBRANCH  21  23
ENDBRANCH   5  19
TORSDOF 6
ENDMDL
