MODEL 1
REMARK VINA RESULT:      -7.6      0.000      0.000
REMARK  Name = 
REMARK  9 active torsions:
REMARK  status: ('A' for Active; 'I' for Inactive)
REMARK    1  A    between atoms: C_1  and  O_2
REMARK    2  A    between atoms: O_2  and  C_3
REMARK    3  A    between atoms: C_6  and  C_7
REMARK    4  A    between atoms: C_7  and  N_8
REMARK    5  A    between atoms: C_10  and  S_11
REMARK    6  A    between atoms: S_11  and  C_12
REMARK    7  A    between atoms: C_17  and  O_18
REMARK    8  A    between atoms: O_18  and  C_19
REMARK    9  A    between atoms: C_21  and  C_22
REMARK                            x       y       z     vdW  Elec       q    Type
REMARK                         _______ _______ _______ _____ _____    ______ ____
ROOT
ATOM      1  N   UNL     1       5.436   5.782  18.020  0.00  0.00    +0.000 N 
ATOM      2  C   UNL     1       4.560   6.806  17.739  0.00  0.00    +0.000 A 
ATOM      3  C   UNL     1       3.329   6.460  18.258  0.00  0.00    +0.000 A 
ATOM      4  C   UNL     1       3.456   5.190  18.906  0.00  0.00    +0.000 A 
ATOM      5  C   UNL     1       2.638   4.253  19.564  0.00  0.00    +0.000 A 
ATOM      6  C   UNL     1       1.162   4.350  19.804  0.00  0.00    +0.000 C 
ATOM      7  N   UNL     1       3.224   3.128  20.067  0.00  0.00    +0.000 NA
ATOM      8  C   UNL     1       4.527   2.903  19.871  0.00  0.00    +0.000 A 
ATOM      9  N   UNL     1       5.043   1.746  20.419  0.00  0.00    +0.000 N 
ATOM     10  N   UNL     1       5.375   3.705  19.228  0.00  0.00    +0.000 NA
ATOM     11  C   UNL     1       4.796   4.828  18.774  0.00  0.00    +0.000 A 
ATOM     12  H   UNL     1       4.452   1.457  21.187  0.00  0.00    +0.000 HD
ATOM     13  H   UNL     1       6.025   1.873  20.616  0.00  0.00    +0.000 HD
ENDROOT
BRANCH   1  14
ATOM     14  C   UNL     1       6.733   5.595  17.380  0.00  0.00    +0.000 C 
BRANCH  14  18
ATOM     15  C   UNL     1       6.384   3.976  13.385  0.00  0.00    +0.000 A 
ATOM     16  C   UNL     1       5.558   3.516  14.411  0.00  0.00    +0.000 A 
ATOM     17  C   UNL     1       5.684   4.022  15.708  0.00  0.00    +0.000 A 
ATOM     18  C   UNL     1       6.652   4.992  16.002  0.00  0.00    +0.000 A 
ATOM     19  C   UNL     1       7.503   5.424  14.975  0.00  0.00    +0.000 A 
ATOM     20  C   UNL     1       7.366   4.922  13.674  0.00  0.00    +0.000 A 
BRANCH  15  22
ATOM     21  C   UNL     1       4.804   3.220  11.793  0.00  0.00    +0.000 C 
ATOM     22  O   UNL     1       6.167   3.406  12.162  0.00  0.00    +0.000 OA
ENDBRANCH  15  22
ENDBRANCH  14  18
ENDBRANCH   1  14
BRANCH   3  23
ATOM     23  S   UNL     1       1.867   7.374  17.945  0.00  0.00    +0.000 S 
BRANCH  23  24
ATOM     24  C   UNL     1       1.602   8.398  19.392  0.00  0.00    +0.000 A 
ATOM     25  C   UNL     1       1.556   7.727  20.634  0.00  0.00    +0.000 A 
ATOM     26  C   UNL     1       1.261   8.381  21.832  0.00  0.00    +0.000 A 
ATOM     27  C   UNL     1       1.013   9.740  21.821  0.00  0.00    +0.000 A 
ATOM     28  C   UNL     1       1.049  10.427  20.611  0.00  0.00    +0.000 A 
ATOM     29  C   UNL     1       1.323   9.779  19.386  0.00  0.00    +0.000 A 
BRANCH  29  30
ATOM     30  O   UNL     1       1.246  10.686  18.365  0.00  0.00    +0.000 OA
ATOM     31  C   UNL     1       1.922  11.926  18.406  0.00  0.00    +0.000 C 
ENDBRANCH  29  30
ENDBRANCH  23  24
ENDBRANCH   3  23
TORSDOF 6
ENDMDL
MODEL 2
REMARK VINA RESULT:      -7.4      2.138      8.077
REMARK  Name = 
REMARK  9 active torsions:
REMARK  status: ('A' for Active; 'I' for Inactive)
REMARK    1  A    between atoms: C_1  and  O_2
REMARK    2  A    between atoms: O_2  and  C_3
REMARK    3  A    between atoms: C_6  and  C_7
REMARK    4  A    between atoms: C_7  and  N_8
REMARK    5  A    between atoms: C_10  and  S_11
REMARK    6  A    between atoms: S_11  and  C_12
REMARK    7  A    between atoms: C_17  and  O_18
REMARK    8  A    between atoms: O_18  and  C_19
REMARK    9  A    between atoms: C_21  and  C_22
REMARK                            x       y       z     vdW  Elec       q    Type
REMARK                         _______ _______ _______ _____ _____    ______ ____
ROOT
ATOM      1  N   UNL     1       2.007   7.179  20.157  0.00  0.00    +0.000 N 
ATOM      2  C   UNL     1       2.639   7.774  19.088  0.00  0.00    +0.000 A 
ATOM      3  C   UNL     1       2.989   6.778  18.200  0.00  0.00    +0.000 A 
ATOM      4  C   UNL     1       2.535   5.527  18.727  0.00  0.00    +0.000 A 
ATOM      5  C   UNL     1       2.594   4.159  18.400  0.00  0.00    +0.000 A 
ATOM      6  C   UNL     1       3.265   3.540  17.212  0.00  0.00    +0.000 C 
ATOM      7  N   UNL     1       1.968   3.273  19.227  0.00  0.00    +0.000 NA
ATOM      8  C   UNL     1       1.379   3.700  20.349  0.00  0.00    +0.000 A 
ATOM      9  N   UNL     1       0.762   2.740  21.126  0.00  0.00    +0.000 N 
ATOM     10  N   UNL     1       1.304   4.963  20.765  0.00  0.00    +0.000 NA
ATOM     11  C   UNL     1       1.887   5.831  19.922  0.00  0.00    +0.000 A 
ATOM     12  H   UNL     1       0.529   1.948  20.542  0.00  0.00    +0.000 HD
ATOM     13  H   UNL     1       0.010   3.161  21.652  0.00  0.00    +0.000 HD
ENDROOT
BRANCH   1  14
ATOM     14  C   UNL     1       1.773   7.817  21.447  0.00  0.00    +0.000 C 
BRANCH  14  18
ATOM     15  C   UNL     1      -1.035  11.105  21.356  0.00  0.00    +0.000 A 
ATOM     16  C   UNL     1      -0.744  10.455  22.555  0.00  0.00    +0.000 A 
ATOM     17  C   UNL     1       0.146   9.378  22.583  0.00  0.00    +0.000 A 
ATOM     18  C   UNL     1       0.752   8.925  21.403  0.00  0.00    +0.000 A 
ATOM     19  C   UNL     1       0.428   9.559  20.196  0.00  0.00    +0.000 A 
ATOM     20  C   UNL     1      -0.457  10.645  20.173  0.00  0.00    +0.000 A 
BRANCH  15  22
ATOM     21  C   UNL     1      -2.414  12.418  22.761  0.00  0.00    +0.000 C 
ATOM     22  O   UNL     1      -1.920  12.142  21.455  0.00  0.00    +0.000 OA
ENDBRANCH  15  22
ENDBRANCH  14  18
ENDBRANCH   1  14
BRANCH   3  23
ATOM     23  S   UNL     1       4.004   7.058  16.800  0.00  0.00    +0.000 S 
BRANCH  23  24
ATOM     24  C   UNL     1       5.442   6.007  17.009  0.00  0.00    +0.000 A 
ATOM     25  C   UNL     1       6.001   5.962  18.305  0.00  0.00    +0.000 A 
ATOM     26  C   UNL     1       7.175   5.265  18.593  0.00  0.00    +0.000 A 
ATOM     27  C   UNL     1       7.821   4.575  17.585  0.00  0.00    +0.000 A 
ATOM     28  C   UNL     1       7.293   4.603  16.297  0.00  0.00    +0.000 A 
ATOM     29  C   UNL     1       6.120   5.322  15.981  0.00  0.00    +0.000 A 
BRANCH  29  30
ATOM     30  O   UNL     1       5.865   5.210  14.642  0.00  0.00    +0.000 OA
ATOM     31  C   UNL     1       5.996   3.985  13.950  0.00  0.00    +0.000 C 
ENDBRANCH  29  30
ENDBRANCH  23  24
ENDBRANCH   3  23
TORSDOF 6
ENDMDL
MODEL 3
REMARK VINA RESULT:      -7.3      2.116      7.932
REMARK  Name = 
REMARK  9 active torsions:
REMARK  status: ('A' for Active; 'I' for Inactive)
REMARK    1  A    between atoms: C_1  and  O_2
REMARK    2  A    between atoms: O_2  and  C_3
REMARK    3  A    between atoms: C_6  and  C_7
REMARK    4  A    between atoms: C_7  and  N_8
REMARK    5  A    between atoms: C_10  and  S_11
REMARK    6  A    between atoms: S_11  and  C_12
REMARK    7  A    between atoms: C_17  and  O_18
REMARK    8  A    between atoms: O_18  and  C_19
REMARK    9  A    between atoms: C_21  and  C_22
REMARK                            x       y       z     vdW  Elec       q    Type
REMARK                         _______ _______ _______ _____ _____    ______ ____
ROOT
ATOM      1  N   UNL     1       1.922   7.285  20.084  0.00  0.00    +0.000 N 
ATOM      2  C   UNL     1       2.594   7.883  19.042  0.00  0.00    +0.000 A 
ATOM      3  C   UNL     1       3.005   6.888  18.180  0.00  0.00    +0.000 A 
ATOM      4  C   UNL     1       2.547   5.632  18.693  0.00  0.00    +0.000 A 
ATOM      5  C   UNL     1       2.646   4.263  18.381  0.00  0.00    +0.000 A 
ATOM      6  C   UNL     1       3.384   3.648  17.232  0.00  0.00    +0.000 C 
ATOM      7  N   UNL     1       1.995   3.372  19.183  0.00  0.00    +0.000 NA
ATOM      8  C   UNL     1       1.345   3.796  20.271  0.00  0.00    +0.000 A 
ATOM      9  N   UNL     1       0.706   2.831  21.024  0.00  0.00    +0.000 N 
ATOM     10  N   UNL     1       1.228   5.061  20.674  0.00  0.00    +0.000 NA
ATOM     11  C   UNL     1       1.836   5.933  19.854  0.00  0.00    +0.000 A 
ATOM     12  H   UNL     1       0.516   2.031  20.436  0.00  0.00    +0.000 HD
ATOM     13  H   UNL     1      -0.077   3.242  21.510  0.00  0.00    +0.000 HD
ENDROOT
BRANCH   1  14
ATOM     14  C   UNL     1       1.613   7.927  21.355  0.00  0.00    +0.000 C 
BRANCH  14  18
ATOM     15  C   UNL     1      -0.990  11.358  20.964  0.00  0.00    +0.000 A 
ATOM     16  C   UNL     1      -0.438  10.755  19.834  0.00  0.00    +0.000 A 
ATOM     17  C   UNL     1       0.421   9.660  19.960  0.00  0.00    +0.000 A 
ATOM     18  C   UNL     1       0.752   9.157  21.225  0.00  0.00    +0.000 A 
ATOM     19  C   UNL     1       0.223   9.790  22.358  0.00  0.00    +0.000 A 
ATOM     20  C   UNL     1      -0.646  10.881  22.228  0.00  0.00    +0.000 A 
BRANCH  15  22
ATOM     21  C   UNL     1      -2.786  12.230  19.692  0.00  0.00    +0.000 C 
ATOM     22  O   UNL     1      -1.813  12.420  20.714  0.00  0.00    +0.000 OA
ENDBRANCH  15  22
ENDBRANCH  14  18
ENDBRANCH   1  14
BRANCH   3  23
ATOM     23  S   UNL     1       4.083   7.176  16.829  0.00  0.00    +0.000 S 
BRANCH  23  24
ATOM     24  C   UNL     1       5.489   6.091  17.074  0.00  0.00    +0.000 A 
ATOM     25  C   UNL     1       5.982   5.993  18.394  0.00  0.00    +0.000 A 
ATOM     26  C   UNL     1       7.128   5.265  18.717  0.00  0.00    +0.000 A 
ATOM     27  C   UNL     1       7.812   4.596  17.720  0.00  0.00    +0.000 A 
ATOM     28  C   UNL     1       7.350   4.676  16.409  0.00  0.00    +0.000 A 
ATOM     29  C   UNL     1       6.207   5.427  16.060  0.00  0.00    +0.000 A 
BRANCH  29  30
ATOM     30  O   UNL     1       6.017   5.363  14.706  0.00  0.00    +0.000 OA
ATOM     31  C   UNL     1       6.413   4.243  13.942  0.00  0.00    +0.000 C 
ENDBRANCH  29  30
ENDBRANCH  23  24
ENDBRANCH   3  23
TORSDOF 6
ENDMDL
MODEL 4
REMARK VINA RESULT:      -7.0      6.036      9.118
REMARK  Name = 
REMARK  9 active torsions:
REMARK  status: ('A' for Active; 'I' for Inactive)
REMARK    1  A    between atoms: C_1  and  O_2
REMARK    2  A    between atoms: O_2  and  C_3
REMARK    3  A    between atoms: C_6  and  C_7
REMARK    4  A    between atoms: C_7  and  N_8
REMARK    5  A    between atoms: C_10  and  S_11
REMARK    6  A    between atoms: S_11  and  C_12
REMARK    7  A    between atoms: C_17  and  O_18
REMARK    8  A    between atoms: O_18  and  C_19
REMARK    9  A    between atoms: C_21  and  C_22
REMARK                            x       y       z     vdW  Elec       q    Type
REMARK                         _______ _______ _______ _____ _____    ______ ____
ROOT
ATOM      1  N   UNL     1      -1.386  11.547  18.938  0.00  0.00    +0.000 N 
ATOM      2  C   UNL     1      -2.040  12.079  20.026  0.00  0.00    +0.000 A 
ATOM      3  C   UNL     1      -3.371  12.221  19.689  0.00  0.00    +0.000 A 
ATOM      4  C   UNL     1      -3.549  11.734  18.354  0.00  0.00    +0.000 A 
ATOM      5  C   UNL     1      -4.575  11.632  17.396  0.00  0.00    +0.000 A 
ATOM      6  C   UNL     1      -5.996  12.082  17.540  0.00  0.00    +0.000 C 
ATOM      7  N   UNL     1      -4.281  11.047  16.199  0.00  0.00    +0.000 NA
ATOM      8  C   UNL     1      -3.031  10.652  15.933  0.00  0.00    +0.000 A 
ATOM      9  N   UNL     1      -2.820  10.063  14.702  0.00  0.00    +0.000 N 
ATOM     10  N   UNL     1      -1.986  10.742  16.754  0.00  0.00    +0.000 NA
ATOM     11  C   UNL     1      -2.297  11.280  17.944  0.00  0.00    +0.000 A 
ATOM     12  H   UNL     1      -3.696   9.687  14.365  0.00  0.00    +0.000 HD
ATOM     13  H   UNL     1      -2.038   9.427  14.760  0.00  0.00    +0.000 HD
ENDROOT
BRANCH   1  14
ATOM     14  C   UNL     1       0.060  11.542  18.755  0.00  0.00    +0.000 C 
BRANCH  14  18
ATOM     15  C   UNL     1       2.051   7.780  19.523  0.00  0.00    +0.000 A 
ATOM     16  C   UNL     1       2.041   8.328  18.240  0.00  0.00    +0.000 A 
ATOM     17  C   UNL     1       1.380   9.532  17.985  0.00  0.00    +0.000 A 
ATOM     18  C   UNL     1       0.704  10.204  19.013  0.00  0.00    +0.000 A 
ATOM     19  C   UNL     1       0.686   9.630  20.291  0.00  0.00    +0.000 A 
ATOM     20  C   UNL     1       1.359   8.427  20.546  0.00  0.00    +0.000 A 
BRANCH  15  22
ATOM     21  C   UNL     1       3.430   6.157  18.490  0.00  0.00    +0.000 C 
ATOM     22  O   UNL     1       2.728   6.600  19.647  0.00  0.00    +0.000 OA
ENDBRANCH  15  22
ENDBRANCH  14  18
ENDBRANCH   1  14
BRANCH   3  23
ATOM     23  S   UNL     1      -4.529  13.061  20.699  0.00  0.00    +0.000 S 
BRANCH  23  24
ATOM     24  C   UNL     1      -3.571  14.132  21.771  0.00  0.00    +0.000 A 
ATOM     25  C   UNL     1      -3.195  15.382  21.233  0.00  0.00    +0.000 A 
ATOM     26  C   UNL     1      -2.368  16.277  21.914  0.00  0.00    +0.000 A 
ATOM     27  C   UNL     1      -1.900  15.946  23.172  0.00  0.00    +0.000 A 
ATOM     28  C   UNL     1      -2.252  14.720  23.727  0.00  0.00    +0.000 A 
ATOM     29  C   UNL     1      -3.068  13.792  23.042  0.00  0.00    +0.000 A 
BRANCH  29  30
ATOM     30  O   UNL     1      -3.209  12.663  23.803  0.00  0.00    +0.000 OA
ATOM     31  C   UNL     1      -4.339  12.442  24.622  0.00  0.00    +0.000 C 
ENDBRANCH  29  30
ENDBRANCH  23  24
ENDBRANCH   3  23
TORSDOF 6
ENDMDL
MODEL 5
REMARK VINA RESULT:      -6.8      1.581      2.271
REMARK  Name = 
REMARK  9 active torsions:
REMARK  status: ('A' for Active; 'I' for Inactive)
REMARK    1  A    between atoms: C_1  and  O_2
REMARK    2  A    between atoms: O_2  and  C_3
REMARK    3  A    between atoms: C_6  and  C_7
REMARK    4  A    between atoms: C_7  and  N_8
REMARK    5  A    between atoms: C_10  and  S_11
REMARK    6  A    between atoms: S_11  and  C_12
REMARK    7  A    between atoms: C_17  and  O_18
REMARK    8  A    between atoms: O_18  and  C_19
REMARK    9  A    between atoms: C_21  and  C_22
REMARK                            x       y       z     vdW  Elec       q    Type
REMARK                         _______ _______ _______ _____ _____    ______ ____
ROOT
ATOM      1  N   UNL     1       4.781   5.132  19.531  0.00  0.00    +0.000 N 
ATOM      2  C   UNL     1       3.933   6.093  20.035  0.00  0.00    +0.000 A 
ATOM      3  C   UNL     1       2.673   5.537  20.122  0.00  0.00    +0.000 A 
ATOM      4  C   UNL     1       2.752   4.177  19.682  0.00  0.00    +0.000 A 
ATOM      5  C   UNL     1       1.889   3.087  19.460  0.00  0.00    +0.000 A 
ATOM      6  C   UNL     1       0.405   3.052  19.658  0.00  0.00    +0.000 C 
ATOM      7  N   UNL     1       2.435   1.911  19.034  0.00  0.00    +0.000 NA
ATOM      8  C   UNL     1       3.743   1.833  18.772  0.00  0.00    +0.000 A 
ATOM      9  N   UNL     1       4.217   0.606  18.352  0.00  0.00    +0.000 N 
ATOM     10  N   UNL     1       4.633   2.815  18.910  0.00  0.00    +0.000 NA
ATOM     11  C   UNL     1       4.091   3.955  19.370  0.00  0.00    +0.000 A 
ATOM     12  H   UNL     1       3.584  -0.115  18.673  0.00  0.00    +0.000 HD
ATOM     13  H   UNL     1       5.189   0.512  18.607  0.00  0.00    +0.000 HD
ENDROOT
BRANCH   1  14
ATOM     14  C   UNL     1       6.106   5.395  18.983  0.00  0.00    +0.000 C 
BRANCH  14  18
ATOM     15  C   UNL     1       6.197   5.020  14.676  0.00  0.00    +0.000 A 
ATOM     16  C   UNL     1       7.108   4.321  15.468  0.00  0.00    +0.000 A 
ATOM     17  C   UNL     1       7.095   4.458  16.858  0.00  0.00    +0.000 A 
ATOM     18  C   UNL     1       6.173   5.310  17.480  0.00  0.00    +0.000 A 
ATOM     19  C   UNL     1       5.285   6.038  16.677  0.00  0.00    +0.000 A 
ATOM     20  C   UNL     1       5.294   5.891  15.284  0.00  0.00    +0.000 A 
BRANCH  15  22
ATOM     21  C   UNL     1       6.157   3.458  12.899  0.00  0.00    +0.000 C 
ATOM     22  O   UNL     1       6.309   4.806  13.331  0.00  0.00    +0.000 OA
ENDBRANCH  15  22
ENDBRANCH  14  18
ENDBRANCH   1  14
BRANCH   3  23
ATOM     23  S   UNL     1       1.241   6.468  20.509  0.00  0.00    +0.000 S 
BRANCH  23  24
ATOM     24  C   UNL     1       1.372   7.994  19.575  0.00  0.00    +0.000 A 
ATOM     25  C   UNL     1       2.162   7.945  18.405  0.00  0.00    +0.000 A 
ATOM     26  C   UNL     1       2.433   9.076  17.633  0.00  0.00    +0.000 A 
ATOM     27  C   UNL     1       1.904  10.297  18.007  0.00  0.00    +0.000 A 
ATOM     28  C   UNL     1       1.123  10.375  19.156  0.00  0.00    +0.000 A 
ATOM     29  C   UNL     1       0.858   9.246  19.963  0.00  0.00    +0.000 A 
BRANCH  29  30
ATOM     30  O   UNL     1       0.109   9.626  21.043  0.00  0.00    +0.000 OA
ATOM     31  C   UNL     1       0.177  10.928  21.587  0.00  0.00    +0.000 C 
ENDBRANCH  29  30
ENDBRANCH  23  24
ENDBRANCH   3  23
TORSDOF 6
ENDMDL
MODEL 6
REMARK VINA RESULT:      -6.8      4.689      7.490
REMARK  Name = 
REMARK  9 active torsions:
REMARK  status: ('A' for Active; 'I' for Inactive)
REMARK    1  A    between atoms: C_1  and  O_2
REMARK    2  A    between atoms: O_2  and  C_3
REMARK    3  A    between atoms: C_6  and  C_7
REMARK    4  A    between atoms: C_7  and  N_8
REMARK    5  A    between atoms: C_10  and  S_11
REMARK    6  A    between atoms: S_11  and  C_12
REMARK    7  A    between atoms: C_17  and  O_18
REMARK    8  A    between atoms: O_18  and  C_19
REMARK    9  A    between atoms: C_21  and  C_22
REMARK                            x       y       z     vdW  Elec       q    Type
REMARK                         _______ _______ _______ _____ _____    ______ ____
ROOT
ATOM      1  N   UNL     1       0.775  10.163  18.755  0.00  0.00    +0.000 N 
ATOM      2  C   UNL     1       1.025  10.832  19.932  0.00  0.00    +0.000 A 
ATOM      3  C   UNL     1      -0.126  11.508  20.284  0.00  0.00    +0.000 A 
ATOM      4  C   UNL     1      -1.130  11.225  19.303  0.00  0.00    +0.000 A 
ATOM      5  C   UNL     1      -2.454  11.600  19.008  0.00  0.00    +0.000 A 
ATOM      6  C   UNL     1      -3.314  12.561  19.771  0.00  0.00    +0.000 C 
ATOM      7  N   UNL     1      -3.057  11.032  17.924  0.00  0.00    +0.000 NA
ATOM      8  C   UNL     1      -2.373  10.198  17.134  0.00  0.00    +0.000 A 
ATOM      9  N   UNL     1      -3.059   9.660  16.063  0.00  0.00    +0.000 N 
ATOM     10  N   UNL     1      -1.109   9.813  17.304  0.00  0.00    +0.000 NA
ATOM     11  C   UNL     1      -0.539  10.346  18.397  0.00  0.00    +0.000 A 
ATOM     12  H   UNL     1      -4.050   9.683  16.266  0.00  0.00    +0.000 HD
ATOM     13  H   UNL     1      -2.659   8.767  15.818  0.00  0.00    +0.000 HD
ENDROOT
BRANCH   1  14
ATOM     14  C   UNL     1       1.799   9.604  17.881  0.00  0.00    +0.000 C 
BRANCH  14  18
ATOM     15  C   UNL     1       3.392   5.817  19.229  0.00  0.00    +0.000 A 
ATOM     16  C   UNL     1       3.830   6.384  18.033  0.00  0.00    +0.000 A 
ATOM     17  C   UNL     1       3.301   7.597  17.584  0.00  0.00    +0.000 A 
ATOM     18  C   UNL     1       2.310   8.258  18.324  0.00  0.00    +0.000 A 
ATOM     19  C   UNL     1       1.848   7.664  19.506  0.00  0.00    +0.000 A 
ATOM     20  C   UNL     1       2.389   6.453  19.958  0.00  0.00    +0.000 A 
BRANCH  15  22
ATOM     21  C   UNL     1       5.256   4.380  18.976  0.00  0.00    +0.000 C 
ATOM     22  O   UNL     1       3.983   4.629  19.562  0.00  0.00    +0.000 OA
ENDBRANCH  15  22
ENDBRANCH  14  18
ENDBRANCH   1  14
BRANCH   3  23
ATOM     23  S   UNL     1      -0.193  12.663  21.600  0.00  0.00    +0.000 S 
BRANCH  23  24
ATOM     24  C   UNL     1       0.371  14.224  20.921  0.00  0.00    +0.000 A 
ATOM     25  C   UNL     1      -0.363  14.732  19.827  0.00  0.00    +0.000 A 
ATOM     26  C   UNL     1       0.017  15.884  19.137  0.00  0.00    +0.000 A 
ATOM     27  C   UNL     1       1.146  16.574  19.536  0.00  0.00    +0.000 A 
ATOM     28  C   UNL     1       1.890  16.095  20.611  0.00  0.00    +0.000 A 
ATOM     29  C   UNL     1       1.535  14.918  21.305  0.00  0.00    +0.000 A 
BRANCH  29  30
ATOM     30  O   UNL     1       2.465  14.665  22.276  0.00  0.00    +0.000 OA
ATOM     31  C   UNL     1       3.854  14.743  22.028  0.00  0.00    +0.000 C 
ENDBRANCH  29  30
ENDBRANCH  23  24
ENDBRANCH   3  23
TORSDOF 6
ENDMDL
MODEL 7
REMARK VINA RESULT:      -6.8      6.245      9.203
REMARK  Name = 
REMARK  9 active torsions:
REMARK  status: ('A' for Active; 'I' for Inactive)
REMARK    1  A    between atoms: C_1  and  O_2
REMARK    2  A    between atoms: O_2  and  C_3
REMARK    3  A    between atoms: C_6  and  C_7
REMARK    4  A    between atoms: C_7  and  N_8
REMARK    5  A    between atoms: C_10  and  S_11
REMARK    6  A    between atoms: S_11  and  C_12
REMARK    7  A    between atoms: C_17  and  O_18
REMARK    8  A    between atoms: O_18  and  C_19
REMARK    9  A    between atoms: C_21  and  C_22
REMARK                            x       y       z     vdW  Elec       q    Type
REMARK                         _______ _______ _______ _____ _____    ______ ____
ROOT
ATOM      1  N   UNL     1      -1.520  11.770  19.009  0.00  0.00    +0.000 N 
ATOM      2  C   UNL     1      -2.241  12.263  20.074  0.00  0.00    +0.000 A 
ATOM      3  C   UNL     1      -3.569  12.304  19.699  0.00  0.00    +0.000 A 
ATOM      4  C   UNL     1      -3.675  11.791  18.366  0.00  0.00    +0.000 A 
ATOM      5  C   UNL     1      -4.663  11.604  17.383  0.00  0.00    +0.000 A 
ATOM      6  C   UNL     1      -6.117  11.949  17.483  0.00  0.00    +0.000 C 
ATOM      7  N   UNL     1      -4.294  11.031  16.201  0.00  0.00    +0.000 NA
ATOM      8  C   UNL     1      -3.012  10.726  15.973  0.00  0.00    +0.000 A 
ATOM      9  N   UNL     1      -2.724  10.142  14.755  0.00  0.00    +0.000 N 
ATOM     10  N   UNL     1      -1.999  10.901  16.820  0.00  0.00    +0.000 NA
ATOM     11  C   UNL     1      -2.382  11.427  17.995  0.00  0.00    +0.000 A 
ATOM     12  H   UNL     1      -3.560   9.699  14.400  0.00  0.00    +0.000 HD
ATOM     13  H   UNL     1      -1.899   9.567  14.842  0.00  0.00    +0.000 HD
ENDROOT
BRANCH   1  14
ATOM     14  C   UNL     1      -0.073  11.870  18.865  0.00  0.00    +0.000 C 
BRANCH  14  18
ATOM     15  C   UNL     1       1.871   8.050  19.436  0.00  0.00    +0.000 A 
ATOM     16  C   UNL     1       1.186   8.660  20.486  0.00  0.00    +0.000 A 
ATOM     17  C   UNL     1       0.576   9.905  20.310  0.00  0.00    +0.000 A 
ATOM     18  C   UNL     1       0.653  10.567  19.078  0.00  0.00    +0.000 A 
ATOM     19  C   UNL     1       1.375   9.965  18.037  0.00  0.00    +0.000 A 
ATOM     20  C   UNL     1       1.976   8.713  18.214  0.00  0.00    +0.000 A 
BRANCH  15  22
ATOM     21  C   UNL     1       1.703   6.024  20.649  0.00  0.00    +0.000 C 
ATOM     22  O   UNL     1       2.427   6.836  19.730  0.00  0.00    +0.000 OA
ENDBRANCH  15  22
ENDBRANCH  14  18
ENDBRANCH   1  14
BRANCH   3  23
ATOM     23  S   UNL     1      -4.813  13.065  20.668  0.00  0.00    +0.000 S 
BRANCH  23  24
ATOM     24  C   UNL     1      -4.003  13.630  22.165  0.00  0.00    +0.000 A 
ATOM     25  C   UNL     1      -4.184  12.831  23.314  0.00  0.00    +0.000 A 
ATOM     26  C   UNL     1      -3.694  13.196  24.569  0.00  0.00    +0.000 A 
ATOM     27  C   UNL     1      -2.991  14.378  24.707  0.00  0.00    +0.000 A 
ATOM     28  C   UNL     1      -2.799  15.187  23.591  0.00  0.00    +0.000 A 
ATOM     29  C   UNL     1      -3.308  14.846  22.318  0.00  0.00    +0.000 A 
BRANCH  29  30
ATOM     30  O   UNL     1      -3.010  15.841  21.428  0.00  0.00    +0.000 OA
ATOM     31  C   UNL     1      -2.498  17.092  21.840  0.00  0.00    +0.000 C 
ENDBRANCH  29  30
ENDBRANCH  23  24
ENDBRANCH   3  23
TORSDOF 6
ENDMDL
MODEL 8
REMARK VINA RESULT:      -6.8      7.656     11.016
REMARK  Name = 
REMARK  9 active torsions:
REMARK  status: ('A' for Active; 'I' for Inactive)
REMARK    1  A    between atoms: C_1  and  O_2
REMARK    2  A    between atoms: O_2  and  C_3
REMARK    3  A    between atoms: C_6  and  C_7
REMARK    4  A    between atoms: C_7  and  N_8
REMARK    5  A    between atoms: C_10  and  S_11
REMARK    6  A    between atoms: S_11  and  C_12
REMARK    7  A    between atoms: C_17  and  O_18
REMARK    8  A    between atoms: O_18  and  C_19
REMARK    9  A    between atoms: C_21  and  C_22
REMARK                            x       y       z     vdW  Elec       q    Type
REMARK                         _______ _______ _______ _____ _____    ______ ____
ROOT
ATOM      1  N   UNL     1      -3.287  13.250  21.632  0.00  0.00    +0.000 N 
ATOM      2  C   UNL     1      -3.277  13.074  20.267  0.00  0.00    +0.000 A 
ATOM      3  C   UNL     1      -4.534  12.648  19.888  0.00  0.00    +0.000 A 
ATOM      4  C   UNL     1      -5.357  12.585  21.058  0.00  0.00    +0.000 A 
ATOM      5  C   UNL     1      -6.663  12.197  21.411  0.00  0.00    +0.000 A 
ATOM      6  C   UNL     1      -7.722  11.652  20.502  0.00  0.00    +0.000 C 
ATOM      7  N   UNL     1      -7.045  12.335  22.713  0.00  0.00    +0.000 NA
ATOM      8  C   UNL     1      -6.170  12.762  23.629  0.00  0.00    +0.000 A 
ATOM      9  N   UNL     1      -6.640  12.882  24.923  0.00  0.00    +0.000 N 
ATOM     10  N   UNL     1      -4.905  13.114  23.404  0.00  0.00    +0.000 NA
ATOM     11  C   UNL     1      -4.553  13.014  22.112  0.00  0.00    +0.000 A 
ATOM     12  H   UNL     1      -7.644  12.992  24.896  0.00  0.00    +0.000 HD
ATOM     13  H   UNL     1      -6.111  13.589  25.411  0.00  0.00    +0.000 HD
ENDROOT
BRANCH   1  14
ATOM     14  C   UNL     1      -2.097  13.373  22.466  0.00  0.00    +0.000 C 
BRANCH  14  18
ATOM     15  C   UNL     1       0.471   9.912  22.108  0.00  0.00    +0.000 A 
ATOM     16  C   UNL     1      -0.574   9.927  23.032  0.00  0.00    +0.000 A 
ATOM     17  C   UNL     1      -1.391  11.052  23.164  0.00  0.00    +0.000 A 
ATOM     18  C   UNL     1      -1.166  12.191  22.379  0.00  0.00    +0.000 A 
ATOM     19  C   UNL     1      -0.092  12.184  21.480  0.00  0.00    +0.000 A 
ATOM     20  C   UNL     1       0.719  11.050  21.342  0.00  0.00    +0.000 A 
BRANCH  15  22
ATOM     21  C   UNL     1       1.439   8.210  20.779  0.00  0.00    +0.000 C 
ATOM     22  O   UNL     1       1.201   8.757  22.072  0.00  0.00    +0.000 OA
ENDBRANCH  15  22
ENDBRANCH  14  18
ENDBRANCH   1  14
BRANCH   3  23
ATOM     23  S   UNL     1      -4.910  12.096  18.269  0.00  0.00    +0.000 S 
BRANCH  23  24
ATOM     24  C   UNL     1      -3.531  11.067  17.762  0.00  0.00    +0.000 A 
ATOM     25  C   UNL     1      -2.509  10.875  18.717  0.00  0.00    +0.000 A 
ATOM     26  C   UNL     1      -1.333  10.181  18.431  0.00  0.00    +0.000 A 
ATOM     27  C   UNL     1      -1.150   9.642  17.171  0.00  0.00    +0.000 A 
ATOM     28  C   UNL     1      -2.141   9.818  16.209  0.00  0.00    +0.000 A 
ATOM     29  C   UNL     1      -3.327  10.538  16.473  0.00  0.00    +0.000 A 
BRANCH  29  30
ATOM     30  O   UNL     1      -4.090  10.588  15.338  0.00  0.00    +0.000 OA
ATOM     31  C   UNL     1      -3.638  10.073  14.103  0.00  0.00    +0.000 C 
ENDBRANCH  29  30
ENDBRANCH  23  24
ENDBRANCH   3  23
TORSDOF 6
ENDMDL
MODEL 9
REMARK VINA RESULT:      -6.8      3.198      7.595
REMARK  Name = 
REMARK  9 active torsions:
REMARK  status: ('A' for Active; 'I' for Inactive)
REMARK    1  A    between atoms: C_1  and  O_2
REMARK    2  A    between atoms: O_2  and  C_3
REMARK    3  A    between atoms: C_6  and  C_7
REMARK    4  A    between atoms: C_7  and  N_8
REMARK    5  A    between atoms: C_10  and  S_11
REMARK    6  A    between atoms: S_11  and  C_12
REMARK    7  A    between atoms: C_17  and  O_18
REMARK    8  A    between atoms: O_18  and  C_19
REMARK    9  A    between atoms: C_21  and  C_22
REMARK                            x       y       z     vdW  Elec       q    Type
REMARK                         _______ _______ _______ _____ _____    ______ ____
ROOT
ATOM      1  N   UNL     1       3.476   7.331  17.766  0.00  0.00    +0.000 N 
ATOM      2  C   UNL     1       2.879   6.096  17.883  0.00  0.00    +0.000 A 
ATOM      3  C   UNL     1       3.866   5.138  17.763  0.00  0.00    +0.000 A 
ATOM      4  C   UNL     1       5.121   5.807  17.592  0.00  0.00    +0.000 A 
ATOM      5  C   UNL     1       6.470   5.479  17.362  0.00  0.00    +0.000 A 
ATOM      6  C   UNL     1       7.054   4.108  17.205  0.00  0.00    +0.000 C 
ATOM      7  N   UNL     1       7.375   6.497  17.283  0.00  0.00    +0.000 NA
ATOM      8  C   UNL     1       6.966   7.768  17.355  0.00  0.00    +0.000 A 
ATOM      9  N   UNL     1       7.946   8.737  17.275  0.00  0.00    +0.000 N 
ATOM     10  N   UNL     1       5.712   8.181  17.531  0.00  0.00    +0.000 NA
ATOM     11  C   UNL     1       4.836   7.170  17.649  0.00  0.00    +0.000 A 
ATOM     12  H   UNL     1       8.829   8.331  17.555  0.00  0.00    +0.000 HD
ATOM     13  H   UNL     1       7.644   9.566  17.765  0.00  0.00    +0.000 HD
ENDROOT
BRANCH   1  14
ATOM     14  C   UNL     1       2.767   8.578  17.510  0.00  0.00    +0.000 C 
BRANCH  14  18
ATOM     15  C   UNL     1       0.019   9.754  20.636  0.00  0.00    +0.000 A 
ATOM     16  C   UNL     1       1.027   8.824  20.891  0.00  0.00    +0.000 A 
ATOM     17  C   UNL     1       1.902   8.427  19.877  0.00  0.00    +0.000 A 
ATOM     18  C   UNL     1       1.773   8.946  18.582  0.00  0.00    +0.000 A 
ATOM     19  C   UNL     1       0.736   9.852  18.323  0.00  0.00    +0.000 A 
ATOM     20  C   UNL     1      -0.133  10.257  19.345  0.00  0.00    +0.000 A 
BRANCH  15  22
ATOM     21  C   UNL     1      -0.365   9.529  22.961  0.00  0.00    +0.000 C 
ATOM     22  O   UNL     1      -0.774  10.063  21.706  0.00  0.00    +0.000 OA
ENDBRANCH  15  22
ENDBRANCH  14  18
ENDBRANCH   1  14
BRANCH   3  23
ATOM     23  S   UNL     1       3.527   3.425  17.635  0.00  0.00    +0.000 S 
BRANCH  23  24
ATOM     24  C   UNL     1       2.838   2.935  19.217  0.00  0.00    +0.000 A 
ATOM     25  C   UNL     1       1.456   3.163  19.396  0.00  0.00    +0.000 A 
ATOM     26  C   UNL     1       0.805   2.923  20.606  0.00  0.00    +0.000 A 
ATOM     27  C   UNL     1       1.523   2.429  21.679  0.00  0.00    +0.000 A 
ATOM     28  C   UNL     1       2.887   2.196  21.532  0.00  0.00    +0.000 A 
ATOM     29  C   UNL     1       3.569   2.456  20.322  0.00  0.00    +0.000 A 
BRANCH  29  30
ATOM     30  O   UNL     1       4.899   2.180  20.482  0.00  0.00    +0.000 OA
ATOM     31  C   UNL     1       5.354   1.050  21.197  0.00  0.00    +0.000 C 
ENDBRANCH  29  30
ENDBRANCH  23  24
ENDBRANCH   3  23
TORSDOF 6
ENDMDL
