MODEL 1
REMARK VINA RESULT:      -7.8      0.000      0.000
REMARK  Name = 
REMARK  5 active torsions:
REMARK  status: ('A' for Active; 'I' for Inactive)
REMARK    1  A    between atoms: C_1  and  C_2
REMARK    2  A    between atoms: C_2  and  C_3
REMARK    3  A    between atoms: C_2  and  C_14
REMARK    4  A    between atoms: C_3  and  C_4
REMARK    5  A    between atoms: N_16  and  C_17
REMARK                            x       y       z     vdW  Elec       q    Type
REMARK                         _______ _______ _______ _____ _____    ______ ____
ROOT
ATOM      1  C   UNL     1       7.487   7.712  17.651  0.00  0.00    +0.000 C 
ATOM      2  C   UNL     1       7.794   6.318  18.203  0.00  0.00    +0.000 C 
ENDROOT
BRANCH   2   3
ATOM      3  C   UNL     1       7.653   5.282  17.079  0.00  0.00    +0.000 C 
ATOM      4  O   UNL     1       8.087   4.140  17.216  0.00  0.00    +0.000 OA
ATOM      5  N   UNL     1       7.033   5.763  15.934  0.00  0.00    +0.000 N 
ATOM      6  H   UNL     1       6.921   6.766  15.854  0.00  0.00    +0.000 HD
BRANCH   5   7
ATOM      7  C   UNL     1       6.681   4.992  14.803  0.00  0.00    +0.000 A 
ATOM      8  C   UNL     1       7.461   4.937  13.644  0.00  0.00    +0.000 A 
ATOM      9  C   UNL     1       7.055   4.189  12.536  0.00  0.00    +0.000 A 
ATOM     10  C   UNL     1       5.861   3.479  12.584  0.00  0.00    +0.000 A 
ATOM     11 BR   UNL     1       5.294   2.500  11.070  0.00  0.00    +0.000 Br
ATOM     12  C   UNL     1       5.084   3.490  13.739  0.00  0.00    +0.000 A 
ATOM     13  C   UNL     1       5.501   4.235  14.853  0.00  0.00    +0.000 A 
ENDBRANCH   5   7
ENDBRANCH   2   3
BRANCH   2  14
ATOM     14  C   UNL     1       6.841   5.935  19.359  0.00  0.00    +0.000 C 
BRANCH  14  15
ATOM     15  C   UNL     1       5.474   5.437  18.949  0.00  0.00    +0.000 A 
ATOM     16  C   UNL     1       4.571   6.309  18.319  0.00  0.00    +0.000 A 
ATOM     17  C   UNL     1       3.306   5.866  17.928  0.00  0.00    +0.000 A 
ATOM     18  C   UNL     1       2.928   4.548  18.165  0.00  0.00    +0.000 A 
ATOM     19  C   UNL     1       3.827   3.662  18.765  0.00  0.00    +0.000 A 
ATOM     20  C   UNL     1       5.094   4.103  19.154  0.00  0.00    +0.000 A 
ATOM     21  O   UNL     1       3.529   2.346  19.018  0.00  0.00    +0.000 OA
ATOM     22  C   UNL     1       2.366   1.921  18.301  0.00  0.00    +0.000 C 
ATOM     23  C   UNL     1       1.258   2.960  18.382  0.00  0.00    +0.000 C 
ATOM     24  O   UNL     1       1.663   4.190  17.775  0.00  0.00    +0.000 OA
ENDBRANCH  14  15
ENDBRANCH   2  14
TORSDOF 4
ENDMDL
MODEL 2
REMARK VINA RESULT:      -7.6      3.916      7.027
REMARK  Name = 
REMARK  5 active torsions:
REMARK  status: ('A' for Active; 'I' for Inactive)
REMARK    1  A    between atoms: C_1  and  C_2
REMARK    2  A    between atoms: C_2  and  C_3
REMARK    3  A    between atoms: C_2  and  C_14
REMARK    4  A    between atoms: C_3  and  C_4
REMARK    5  A    between atoms: N_16  and  C_17
REMARK                            x       y       z     vdW  Elec       q    Type
REMARK                         _______ _______ _______ _____ _____    ______ ____
ROOT
ATOM      1  C   UNL     1       1.632   2.473  21.799  0.00  0.00    +0.000 C 
ATOM      2  C   UNL     1       2.591   3.403  21.053  0.00  0.00    +0.000 C 
ENDROOT
BRANCH   2   3
ATOM      3  C   UNL     1       1.813   4.609  20.508  0.00  0.00    +0.000 C 
ATOM      4  O   UNL     1       0.667   4.479  20.082  0.00  0.00    +0.000 OA
ATOM      5  N   UNL     1       2.523   5.801  20.525  0.00  0.00    +0.000 N 
ATOM      6  H   UNL     1       3.520   5.745  20.688  0.00  0.00    +0.000 HD
BRANCH   5   7
ATOM      7  C   UNL     1       2.006   7.072  20.187  0.00  0.00    +0.000 A 
ATOM      8  C   UNL     1       1.252   7.850  21.072  0.00  0.00    +0.000 A 
ATOM      9  C   UNL     1       0.730   9.086  20.681  0.00  0.00    +0.000 A 
ATOM     10  C   UNL     1       0.967   9.559  19.396  0.00  0.00    +0.000 A 
ATOM     11 BR   UNL     1       0.227  11.213  18.857  0.00  0.00    +0.000 Br
ATOM     12  C   UNL     1       1.744   8.819  18.509  0.00  0.00    +0.000 A 
ATOM     13  C   UNL     1       2.274   7.583  18.908  0.00  0.00    +0.000 A 
ENDBRANCH   5   7
ENDBRANCH   2   3
BRANCH   2  14
ATOM     14  C   UNL     1       3.289   2.684  19.875  0.00  0.00    +0.000 C 
BRANCH  14  15
ATOM     15  C   UNL     1       4.040   3.574  18.911  0.00  0.00    +0.000 A 
ATOM     16  C   UNL     1       3.549   3.766  17.608  0.00  0.00    +0.000 A 
ATOM     17  C   UNL     1       4.225   4.589  16.705  0.00  0.00    +0.000 A 
ATOM     18  C   UNL     1       5.400   5.225  17.091  0.00  0.00    +0.000 A 
ATOM     19  C   UNL     1       5.885   5.066  18.393  0.00  0.00    +0.000 A 
ATOM     20  C   UNL     1       5.207   4.246  19.298  0.00  0.00    +0.000 A 
ATOM     21  O   UNL     1       7.028   5.672  18.848  0.00  0.00    +0.000 OA
ATOM     22  C   UNL     1       7.452   6.723  17.974  0.00  0.00    +0.000 C 
ATOM     23  C   UNL     1       7.370   6.297  16.517  0.00  0.00    +0.000 C 
ATOM     24  O   UNL     1       6.021   6.000  16.144  0.00  0.00    +0.000 OA
ENDBRANCH  14  15
ENDBRANCH   2  14
TORSDOF 4
ENDMDL
MODEL 3
REMARK VINA RESULT:      -7.6      3.813      7.076
REMARK  Name = 
REMARK  5 active torsions:
REMARK  status: ('A' for Active; 'I' for Inactive)
REMARK    1  A    between atoms: C_1  and  C_2
REMARK    2  A    between atoms: C_2  and  C_3
REMARK    3  A    between atoms: C_2  and  C_14
REMARK    4  A    between atoms: C_3  and  C_4
REMARK    5  A    between atoms: N_16  and  C_17
REMARK                            x       y       z     vdW  Elec       q    Type
REMARK                         _______ _______ _______ _____ _____    ______ ____
ROOT
ATOM      1  C   UNL     1       3.786   2.903  19.866  0.00  0.00    +0.000 C 
ATOM      2  C   UNL     1       4.021   3.947  18.772  0.00  0.00    +0.000 C 
ENDROOT
BRANCH   2   3
ATOM      3  C   UNL     1       2.879   4.973  18.791  0.00  0.00    +0.000 C 
ATOM      4  O   UNL     1       1.705   4.610  18.745  0.00  0.00    +0.000 OA
ATOM      5  N   UNL     1       3.300   6.294  18.837  0.00  0.00    +0.000 N 
ATOM      6  H   UNL     1       4.278   6.476  18.647  0.00  0.00    +0.000 HD
BRANCH   5   7
ATOM      7  C   UNL     1       2.459   7.422  18.974  0.00  0.00    +0.000 A 
ATOM      8  C   UNL     1       2.135   8.267  17.908  0.00  0.00    +0.000 A 
ATOM      9  C   UNL     1       1.328   9.391  18.098  0.00  0.00    +0.000 A 
ATOM     10  C   UNL     1       0.829   9.675  19.364  0.00  0.00    +0.000 A 
ATOM     11 BR   UNL     1      -0.230  11.219  19.627  0.00  0.00    +0.000 Br
ATOM     12  C   UNL     1       1.109   8.830  20.434  0.00  0.00    +0.000 A 
ATOM     13  C   UNL     1       1.912   7.696  20.236  0.00  0.00    +0.000 A 
ENDBRANCH   5   7
ENDBRANCH   2   3
BRANCH   2  14
ATOM     14  C   UNL     1       4.091   3.301  17.368  0.00  0.00    +0.000 C 
BRANCH  14  15
ATOM     15  C   UNL     1       5.137   3.867  16.434  0.00  0.00    +0.000 A 
ATOM     16  C   UNL     1       6.143   4.709  16.938  0.00  0.00    +0.000 A 
ATOM     17  C   UNL     1       7.121   5.237  16.092  0.00  0.00    +0.000 A 
ATOM     18  C   UNL     1       7.102   4.933  14.734  0.00  0.00    +0.000 A 
ATOM     19  C   UNL     1       6.124   4.075  14.225  0.00  0.00    +0.000 A 
ATOM     20  C   UNL     1       5.147   3.543  15.071  0.00  0.00    +0.000 A 
ATOM     21  O   UNL     1       6.052   3.720  12.902  0.00  0.00    +0.000 OA
ATOM     22  C   UNL     1       7.259   4.041  12.202  0.00  0.00    +0.000 C 
ATOM     23  C   UNL     1       7.758   5.429  12.571  0.00  0.00    +0.000 C 
ATOM     24  O   UNL     1       8.080   5.506  13.962  0.00  0.00    +0.000 OA
ENDBRANCH  14  15
ENDBRANCH   2  14
TORSDOF 4
ENDMDL
MODEL 4
REMARK VINA RESULT:      -7.6      3.928      7.034
REMARK  Name = 
REMARK  5 active torsions:
REMARK  status: ('A' for Active; 'I' for Inactive)
REMARK    1  A    between atoms: C_1  and  C_2
REMARK    2  A    between atoms: C_2  and  C_3
REMARK    3  A    between atoms: C_2  and  C_14
REMARK    4  A    between atoms: C_3  and  C_4
REMARK    5  A    between atoms: N_16  and  C_17
REMARK                            x       y       z     vdW  Elec       q    Type
REMARK                         _______ _______ _______ _____ _____    ______ ____
ROOT
ATOM      1  C   UNL     1       1.548   2.898  21.286  0.00  0.00    +0.000 C 
ATOM      2  C   UNL     1       2.611   3.650  20.483  0.00  0.00    +0.000 C 
ENDROOT
BRANCH   2   3
ATOM      3  C   UNL     1       1.986   4.907  19.860  0.00  0.00    +0.000 C 
ATOM      4  O   UNL     1       1.169   4.817  18.946  0.00  0.00    +0.000 OA
ATOM      5  N   UNL     1       2.444   6.099  20.402  0.00  0.00    +0.000 N 
ATOM      6  H   UNL     1       3.269   6.057  20.986  0.00  0.00    +0.000 HD
BRANCH   5   7
ATOM      7  C   UNL     1       1.953   7.387  20.089  0.00  0.00    +0.000 A 
ATOM      8  C   UNL     1       1.236   8.172  20.998  0.00  0.00    +0.000 A 
ATOM      9  C   UNL     1       0.739   9.426  20.634  0.00  0.00    +0.000 A 
ATOM     10  C   UNL     1       0.963   9.910  19.351  0.00  0.00    +0.000 A 
ATOM     11 BR   UNL     1       0.256  11.588  18.847  0.00  0.00    +0.000 Br
ATOM     12  C   UNL     1       1.704   9.162  18.439  0.00  0.00    +0.000 A 
ATOM     13  C   UNL     1       2.210   7.908  18.812  0.00  0.00    +0.000 A 
ENDBRANCH   5   7
ENDBRANCH   2   3
BRANCH   2  14
ATOM     14  C   UNL     1       3.205   2.774  19.354  0.00  0.00    +0.000 C 
BRANCH  14  15
ATOM     15  C   UNL     1       4.293   3.418  18.524  0.00  0.00    +0.000 A 
ATOM     16  C   UNL     1       5.349   4.093  19.158  0.00  0.00    +0.000 A 
ATOM     17  C   UNL     1       6.367   4.688  18.409  0.00  0.00    +0.000 A 
ATOM     18  C   UNL     1       6.336   4.621  17.019  0.00  0.00    +0.000 A 
ATOM     19  C   UNL     1       5.305   3.928  16.377  0.00  0.00    +0.000 A 
ATOM     20  C   UNL     1       4.289   3.329  17.126  0.00  0.00    +0.000 A 
ATOM     21  O   UNL     1       5.217   3.808  15.013  0.00  0.00    +0.000 OA
ATOM     22  C   UNL     1       6.447   4.161  14.372  0.00  0.00    +0.000 C 
ATOM     23  C   UNL     1       7.037   5.430  14.967  0.00  0.00    +0.000 C 
ATOM     24  O   UNL     1       7.355   5.248  16.349  0.00  0.00    +0.000 OA
ENDBRANCH  14  15
ENDBRANCH   2  14
TORSDOF 4
ENDMDL
MODEL 5
REMARK VINA RESULT:      -7.5      4.136      7.064
REMARK  Name = 
REMARK  5 active torsions:
REMARK  status: ('A' for Active; 'I' for Inactive)
REMARK    1  A    between atoms: C_1  and  C_2
REMARK    2  A    between atoms: C_2  and  C_3
REMARK    3  A    between atoms: C_2  and  C_14
REMARK    4  A    between atoms: C_3  and  C_4
REMARK    5  A    between atoms: N_16  and  C_17
REMARK                            x       y       z     vdW  Elec       q    Type
REMARK                         _______ _______ _______ _____ _____    ______ ____
ROOT
ATOM      1  C   UNL     1       1.965   3.865  21.190  0.00  0.00    +0.000 C 
ATOM      2  C   UNL     1       2.963   4.445  20.185  0.00  0.00    +0.000 C 
ENDROOT
BRANCH   2   3
ATOM      3  C   UNL     1       2.325   5.642  19.466  0.00  0.00    +0.000 C 
ATOM      4  O   UNL     1       1.799   5.507  18.363  0.00  0.00    +0.000 OA
ATOM      5  N   UNL     1       2.427   6.842  20.156  0.00  0.00    +0.000 N 
ATOM      6  H   UNL     1       3.068   6.874  20.939  0.00  0.00    +0.000 HD
BRANCH   5   7
ATOM      7  C   UNL     1       1.831   8.065  19.772  0.00  0.00    +0.000 A 
ATOM      8  C   UNL     1       1.988   8.624  18.500  0.00  0.00    +0.000 A 
ATOM      9  C   UNL     1       1.409   9.854  18.176  0.00  0.00    +0.000 A 
ATOM     10  C   UNL     1       0.658  10.533  19.127  0.00  0.00    +0.000 A 
ATOM     11 BR   UNL     1      -0.091  12.215  18.700  0.00  0.00    +0.000 Br
ATOM     12  C   UNL     1       0.458   9.980  20.389  0.00  0.00    +0.000 A 
ATOM     13  C   UNL     1       1.033   8.741  20.707  0.00  0.00    +0.000 A 
ENDBRANCH   5   7
ENDBRANCH   2   3
BRANCH   2  14
ATOM     14  C   UNL     1       3.391   3.397  19.131  0.00  0.00    +0.000 C 
BRANCH  14  15
ATOM     15  C   UNL     1       4.506   3.817  18.200  0.00  0.00    +0.000 A 
ATOM     16  C   UNL     1       5.712   4.306  18.729  0.00  0.00    +0.000 A 
ATOM     17  C   UNL     1       6.755   4.694  17.885  0.00  0.00    +0.000 A 
ATOM     18  C   UNL     1       6.603   4.601  16.505  0.00  0.00    +0.000 A 
ATOM     19  C   UNL     1       5.419   4.089  15.966  0.00  0.00    +0.000 A 
ATOM     20  C   UNL     1       4.376   3.698  16.810  0.00  0.00    +0.000 A 
ATOM     21  O   UNL     1       5.204   3.955  14.618  0.00  0.00    +0.000 OA
ATOM     22  C   UNL     1       6.422   4.068  13.875  0.00  0.00    +0.000 C 
ATOM     23  C   UNL     1       7.271   5.225  14.379  0.00  0.00    +0.000 C 
ATOM     24  O   UNL     1       7.661   5.021  15.739  0.00  0.00    +0.000 OA
ENDBRANCH  14  15
ENDBRANCH   2  14
TORSDOF 4
ENDMDL
MODEL 6
REMARK VINA RESULT:      -7.5      1.472      1.737
REMARK  Name = 
REMARK  5 active torsions:
REMARK  status: ('A' for Active; 'I' for Inactive)
REMARK    1  A    between atoms: C_1  and  C_2
REMARK    2  A    between atoms: C_2  and  C_3
REMARK    3  A    between atoms: C_2  and  C_14
REMARK    4  A    between atoms: C_3  and  C_4
REMARK    5  A    between atoms: N_16  and  C_17
REMARK                            x       y       z     vdW  Elec       q    Type
REMARK                         _______ _______ _______ _____ _____    ______ ____
ROOT
ATOM      1  C   UNL     1       7.491   7.870  17.469  0.00  0.00    +0.000 C 
ATOM      2  C   UNL     1       6.655   6.609  17.697  0.00  0.00    +0.000 C 
ENDROOT
BRANCH   2   3
ATOM      3  C   UNL     1       7.031   5.550  16.650  0.00  0.00    +0.000 C 
ATOM      4  O   UNL     1       7.750   4.599  16.946  0.00  0.00    +0.000 OA
ATOM      5  N   UNL     1       6.513   5.790  15.385  0.00  0.00    +0.000 N 
ATOM      6  H   UNL     1       6.126   6.709  15.209  0.00  0.00    +0.000 HD
BRANCH   5   7
ATOM      7  C   UNL     1       6.614   4.920  14.276  0.00  0.00    +0.000 A 
ATOM      8  C   UNL     1       7.575   5.072  13.271  0.00  0.00    +0.000 A 
ATOM      9  C   UNL     1       7.614   4.208  12.174  0.00  0.00    +0.000 A 
ATOM     10  C   UNL     1       6.691   3.175  12.077  0.00  0.00    +0.000 A 
ATOM     11 BR   UNL     1       6.721   2.032  10.572  0.00  0.00    +0.000 Br
ATOM     12  C   UNL     1       5.746   2.982  13.082  0.00  0.00    +0.000 A 
ATOM     13  C   UNL     1       5.716   3.846  14.187  0.00  0.00    +0.000 A 
ENDBRANCH   5   7
ENDBRANCH   2   3
BRANCH   2  14
ATOM     14  C   UNL     1       5.139   6.898  17.594  0.00  0.00    +0.000 C 
BRANCH  14  15
ATOM     15  C   UNL     1       4.223   5.796  18.077  0.00  0.00    +0.000 A 
ATOM     16  C   UNL     1       3.778   4.812  17.179  0.00  0.00    +0.000 A 
ATOM     17  C   UNL     1       2.936   3.783  17.607  0.00  0.00    +0.000 A 
ATOM     18  C   UNL     1       2.527   3.729  18.936  0.00  0.00    +0.000 A 
ATOM     19  C   UNL     1       2.985   4.685  19.846  0.00  0.00    +0.000 A 
ATOM     20  C   UNL     1       3.830   5.713  19.420  0.00  0.00    +0.000 A 
ATOM     21  O   UNL     1       2.636   4.687  21.173  0.00  0.00    +0.000 OA
ATOM     22  C   UNL     1       2.054   3.440  21.568  0.00  0.00    +0.000 C 
ATOM     23  C   UNL     1       1.049   2.949  20.537  0.00  0.00    +0.000 C 
ATOM     24  O   UNL     1       1.683   2.704  19.279  0.00  0.00    +0.000 OA
ENDBRANCH  14  15
ENDBRANCH   2  14
TORSDOF 4
ENDMDL
MODEL 7
REMARK VINA RESULT:      -7.2      1.322      1.964
REMARK  Name = 
REMARK  5 active torsions:
REMARK  status: ('A' for Active; 'I' for Inactive)
REMARK    1  A    between atoms: C_1  and  C_2
REMARK    2  A    between atoms: C_2  and  C_3
REMARK    3  A    between atoms: C_2  and  C_14
REMARK    4  A    between atoms: C_3  and  C_4
REMARK    5  A    between atoms: N_16  and  C_17
REMARK                            x       y       z     vdW  Elec       q    Type
REMARK                         _______ _______ _______ _____ _____    ______ ____
ROOT
ATOM      1  C   UNL     1       7.177   7.824  17.425  0.00  0.00    +0.000 C 
ATOM      2  C   UNL     1       6.245   6.616  17.542  0.00  0.00    +0.000 C 
ENDROOT
BRANCH   2   3
ATOM      3  C   UNL     1       6.665   5.547  16.524  0.00  0.00    +0.000 C 
ATOM      4  O   UNL     1       7.382   4.606  16.857  0.00  0.00    +0.000 OA
ATOM      5  N   UNL     1       6.187   5.764  15.239  0.00  0.00    +0.000 N 
ATOM      6  H   UNL     1       5.799   6.676  15.036  0.00  0.00    +0.000 HD
BRANCH   5   7
ATOM      7  C   UNL     1       6.333   4.879  14.146  0.00  0.00    +0.000 A 
ATOM      8  C   UNL     1       5.427   3.849  13.873  0.00  0.00    +0.000 A 
ATOM      9  C   UNL     1       5.630   2.975  12.802  0.00  0.00    +0.000 A 
ATOM     10  C   UNL     1       6.744   3.132  11.986  0.00  0.00    +0.000 A 
ATOM     11 BR   UNL     1       7.038   1.924  10.562  0.00  0.00    +0.000 Br
ATOM     12  C   UNL     1       7.641   4.171  12.217  0.00  0.00    +0.000 A 
ATOM     13  C   UNL     1       7.429   5.052  13.288  0.00  0.00    +0.000 A 
ENDBRANCH   5   7
ENDBRANCH   2   3
BRANCH   2  14
ATOM     14  C   UNL     1       4.769   7.002  17.283  0.00  0.00    +0.000 C 
BRANCH  14  15
ATOM     15  C   UNL     1       3.739   6.240  18.084  0.00  0.00    +0.000 A 
ATOM     16  C   UNL     1       3.147   6.836  19.210  0.00  0.00    +0.000 A 
ATOM     17  C   UNL     1       2.188   6.150  19.959  0.00  0.00    +0.000 A 
ATOM     18  C   UNL     1       1.816   4.860  19.596  0.00  0.00    +0.000 A 
ATOM     19  C   UNL     1       2.376   4.265  18.462  0.00  0.00    +0.000 A 
ATOM     20  C   UNL     1       3.332   4.952  17.709  0.00  0.00    +0.000 A 
ATOM     21  O   UNL     1       2.048   3.004  18.035  0.00  0.00    +0.000 OA
ATOM     22  C   UNL     1       0.852   2.529  18.662  0.00  0.00    +0.000 C 
ATOM     23  C   UNL     1       0.854   2.830  20.153  0.00  0.00    +0.000 C 
ATOM     24  O   UNL     1       0.887   4.239  20.392  0.00  0.00    +0.000 OA
ENDBRANCH  14  15
ENDBRANCH   2  14
TORSDOF 4
ENDMDL
MODEL 8
REMARK VINA RESULT:      -7.2      4.168      6.026
REMARK  Name = 
REMARK  5 active torsions:
REMARK  status: ('A' for Active; 'I' for Inactive)
REMARK    1  A    between atoms: C_1  and  C_2
REMARK    2  A    between atoms: C_2  and  C_3
REMARK    3  A    between atoms: C_2  and  C_14
REMARK    4  A    between atoms: C_3  and  C_4
REMARK    5  A    between atoms: N_16  and  C_17
REMARK                            x       y       z     vdW  Elec       q    Type
REMARK                         _______ _______ _______ _____ _____    ______ ____
ROOT
ATOM      1  C   UNL     1       1.240   3.614  20.729  0.00  0.00    +0.000 C 
ATOM      2  C   UNL     1       1.260   4.925  19.940  0.00  0.00    +0.000 C 
ENDROOT
BRANCH   2   3
ATOM      3  C   UNL     1       1.968   4.702  18.597  0.00  0.00    +0.000 C 
ATOM      4  O   UNL     1       1.347   4.293  17.617  0.00  0.00    +0.000 OA
ATOM      5  N   UNL     1       3.328   4.975  18.616  0.00  0.00    +0.000 N 
ATOM      6  H   UNL     1       3.765   5.089  19.522  0.00  0.00    +0.000 HD
BRANCH   5   7
ATOM      7  C   UNL     1       4.187   4.960  17.494  0.00  0.00    +0.000 A 
ATOM      8  C   UNL     1       4.563   6.117  16.804  0.00  0.00    +0.000 A 
ATOM      9  C   UNL     1       5.386   6.050  15.678  0.00  0.00    +0.000 A 
ATOM     10  C   UNL     1       5.849   4.817  15.235  0.00  0.00    +0.000 A 
ATOM     11 BR   UNL     1       6.930   4.725  13.687  0.00  0.00    +0.000 Br
ATOM     12  C   UNL     1       5.517   3.654  15.925  0.00  0.00    +0.000 A 
ATOM     13  C   UNL     1       4.698   3.727  17.062  0.00  0.00    +0.000 A 
ENDBRANCH   5   7
ENDBRANCH   2   3
BRANCH   2  14
ATOM     14  C   UNL     1       1.992   6.048  20.712  0.00  0.00    +0.000 C 
BRANCH  14  15
ATOM     15  C   UNL     1       1.380   7.426  20.607  0.00  0.00    +0.000 A 
ATOM     16  C   UNL     1       0.440   7.849  21.562  0.00  0.00    +0.000 A 
ATOM     17  C   UNL     1      -0.133   9.120  21.486  0.00  0.00    +0.000 A 
ATOM     18  C   UNL     1       0.223   9.981  20.452  0.00  0.00    +0.000 A 
ATOM     19  C   UNL     1       1.178   9.584  19.512  0.00  0.00    +0.000 A 
ATOM     20  C   UNL     1       1.754   8.314  19.589  0.00  0.00    +0.000 A 
ATOM     21  O   UNL     1       1.588  10.384  18.475  0.00  0.00    +0.000 OA
ATOM     22  C   UNL     1       1.197  11.747  18.672  0.00  0.00    +0.000 C 
ATOM     23  C   UNL     1      -0.240  11.843  19.158  0.00  0.00    +0.000 C 
ATOM     24  O   UNL     1      -0.397  11.205  20.428  0.00  0.00    +0.000 OA
ENDBRANCH  14  15
ENDBRANCH   2  14
TORSDOF 4
ENDMDL
MODEL 9
REMARK VINA RESULT:      -7.2      4.332      6.263
REMARK  Name = 
REMARK  5 active torsions:
REMARK  status: ('A' for Active; 'I' for Inactive)
REMARK    1  A    between atoms: C_1  and  C_2
REMARK    2  A    between atoms: C_2  and  C_3
REMARK    3  A    between atoms: C_2  and  C_14
REMARK    4  A    between atoms: C_3  and  C_4
REMARK    5  A    between atoms: N_16  and  C_17
REMARK                            x       y       z     vdW  Elec       q    Type
REMARK                         _______ _______ _______ _____ _____    ______ ____
ROOT
ATOM      1  C   UNL     1       7.347   6.055  19.273  0.00  0.00    +0.000 C 
ATOM      2  C   UNL     1       7.819   6.560  17.908  0.00  0.00    +0.000 C 
ENDROOT
BRANCH   2   3
ATOM      3  C   UNL     1       7.915   8.092  17.936  0.00  0.00    +0.000 C 
ATOM      4  O   UNL     1       7.177   8.782  17.236  0.00  0.00    +0.000 OA
ATOM      5  N   UNL     1       8.899   8.587  18.780  0.00  0.00    +0.000 N 
ATOM      6  H   UNL     1       9.584   7.929  19.130  0.00  0.00    +0.000 HD
BRANCH   5   7
ATOM      7  C   UNL     1       9.121   9.951  19.073  0.00  0.00    +0.000 A 
ATOM      8  C   UNL     1       9.286  10.928  18.085  0.00  0.00    +0.000 A 
ATOM      9  C   UNL     1       9.539  12.260  18.423  0.00  0.00    +0.000 A 
ATOM     10  C   UNL     1       9.623  12.628  19.760  0.00  0.00    +0.000 A 
ATOM     11 BR   UNL     1      10.005  14.422  20.214  0.00  0.00    +0.000 Br
ATOM     12  C   UNL     1       9.428  11.681  20.762  0.00  0.00    +0.000 A 
ATOM     13  C   UNL     1       9.164  10.346  20.419  0.00  0.00    +0.000 A 
ENDBRANCH   5   7
ENDBRANCH   2   3
BRANCH   2  14
ATOM     14  C   UNL     1       6.854   6.139  16.775  0.00  0.00    +0.000 C 
BRANCH  14  15
ATOM     15  C   UNL     1       5.489   5.663  17.215  0.00  0.00    +0.000 A 
ATOM     16  C   UNL     1       4.480   6.598  17.502  0.00  0.00    +0.000 A 
ATOM     17  C   UNL     1       3.211   6.178  17.904  0.00  0.00    +0.000 A 
ATOM     18  C   UNL     1       2.937   4.820  18.030  0.00  0.00    +0.000 A 
ATOM     19  C   UNL     1       3.922   3.878  17.721  0.00  0.00    +0.000 A 
ATOM     20  C   UNL     1       5.191   4.297  17.314  0.00  0.00    +0.000 A 
ATOM     21  O   UNL     1       3.720   2.524  17.808  0.00  0.00    +0.000 OA
ATOM     22  C   UNL     1       2.328   2.203  17.908  0.00  0.00    +0.000 C 
ATOM     23  C   UNL     1       1.619   3.123  18.890  0.00  0.00    +0.000 C 
ATOM     24  O   UNL     1       1.676   4.483  18.452  0.00  0.00    +0.000 OA
ENDBRANCH  14  15
ENDBRANCH   2  14
TORSDOF 4
ENDMDL
