MODEL 1
REMARK VINA RESULT:      -8.1      0.000      0.000
REMARK  Name = 
REMARK  8 active torsions:
REMARK  status: ('A' for Active; 'I' for Inactive)
REMARK    1  A    between atoms: C_1  and  N_2
REMARK    2  A    between atoms: N_2  and  C_3
REMARK    3  A    between atoms: N_6  and  C_7
REMARK    4  A    between atoms: C_10  and  C_11
REMARK    5  A    between atoms: C_16  and  O_17
REMARK    6  A    between atoms: O_17  and  C_18
REMARK    7  A    between atoms: C_22  and  O_23
REMARK    8  A    between atoms: O_23  and  C_24
REMARK                            x       y       z     vdW  Elec       q    Type
REMARK                         _______ _______ _______ _____ _____    ______ ____
ROOT
ATOM      1  C   UNL     1       0.726  10.014  19.532  0.00  0.00    +0.000 A 
ATOM      2  C   UNL     1       1.021   9.864  18.160  0.00  0.00    +0.000 A 
ATOM      3  C   UNL     1       1.828   8.829  17.699  0.00  0.00    +0.000 A 
ATOM      4  C   UNL     1       2.303   7.872  18.593  0.00  0.00    +0.000 A 
ATOM      5  C   UNL     1       1.938   7.952  19.945  0.00  0.00    +0.000 A 
ATOM      6  C   UNL     1       1.105   8.982  20.408  0.00  0.00    +0.000 A 
ENDROOT
BRANCH   1  10
ATOM      7  C   UNL     1      -2.462  11.505  17.422  0.00  0.00    +0.000 A 
ATOM      8  N   UNL     1      -1.255  11.409  18.008  0.00  0.00    +0.000 NA
ATOM      9  C   UNL     1      -1.144  11.610  19.336  0.00  0.00    +0.000 A 
ATOM     10  N   UNL     1       0.042  11.187  19.974  0.00  0.00    +0.000 N 
ATOM     11  N   UNL     1      -2.145  12.068  20.094  0.00  0.00    +0.000 NA
ATOM     12  C   UNL     1      -3.339  12.201  19.485  0.00  0.00    +0.000 A 
ATOM     13  C   UNL     1      -3.565  11.896  18.159  0.00  0.00    +0.000 A 
ATOM     14 BR   UNL     1      -5.314  11.974  17.450  0.00  0.00    +0.000 Br
ATOM     15  H   UNL     1       0.673  11.975  19.874  0.00  0.00    +0.000 HD
BRANCH   7  17
ATOM     16  C   UNL     1      -2.698   9.787  15.742  0.00  0.00    +0.000 C 
ATOM     17  N   UNL     1      -2.574  11.203  16.054  0.00  0.00    +0.000 N 
ATOM     18  H   UNL     1      -3.328  11.752  15.650  0.00  0.00    +0.000 HD
ENDBRANCH   7  17
ENDBRANCH   1  10
BRANCH   4  19
ATOM     19  C   UNL     1       3.310   6.901  18.090  0.00  0.00    +0.000 C 
ATOM     20  O   UNL     1       4.296   7.373  17.519  0.00  0.00    +0.000 OA
ATOM     21  N   UNL     1       3.149   5.537  18.295  0.00  0.00    +0.000 N 
ATOM     22  C   UNL     1       4.301   4.666  18.079  0.00  0.00    +0.000 C 
ATOM     23  C   UNL     1       3.977   3.583  17.055  0.00  0.00    +0.000 C 
ATOM     24  C   UNL     1       2.750   2.780  17.498  0.00  0.00    +0.000 C 
ATOM     25  C   UNL     1       1.568   3.730  17.698  0.00  0.00    +0.000 C 
ATOM     26  C   UNL     1       1.909   4.855  18.675  0.00  0.00    +0.000 C 
BRANCH  24  27
ATOM     27  O   UNL     1       2.954   2.089  18.738  0.00  0.00    +0.000 OA
ATOM     28  C   UNL     1       3.927   1.056  18.677  0.00  0.00    +0.000 C 
ENDBRANCH  24  27
ENDBRANCH   4  19
BRANCH   6  29
ATOM     29  O   UNL     1       0.867   8.947  21.757  0.00  0.00    +0.000 OA
ATOM     30  C   UNL     1      -0.452   8.580  22.158  0.00  0.00    +0.000 C 
ENDBRANCH   6  29
TORSDOF 5
ENDMDL
MODEL 2
REMARK VINA RESULT:      -8.1      1.661      2.547
REMARK  Name = 
REMARK  8 active torsions:
REMARK  status: ('A' for Active; 'I' for Inactive)
REMARK    1  A    between atoms: C_1  and  N_2
REMARK    2  A    between atoms: N_2  and  C_3
REMARK    3  A    between atoms: N_6  and  C_7
REMARK    4  A    between atoms: C_10  and  C_11
REMARK    5  A    between atoms: C_16  and  O_17
REMARK    6  A    between atoms: O_17  and  C_18
REMARK    7  A    between atoms: C_22  and  O_23
REMARK    8  A    between atoms: O_23  and  C_24
REMARK                            x       y       z     vdW  Elec       q    Type
REMARK                         _______ _______ _______ _____ _____    ______ ____
ROOT
ATOM      1  C   UNL     1       1.092   9.674  19.285  0.00  0.00    +0.000 A 
ATOM      2  C   UNL     1       1.484   9.173  18.025  0.00  0.00    +0.000 A 
ATOM      3  C   UNL     1       2.150   7.958  17.901  0.00  0.00    +0.000 A 
ATOM      4  C   UNL     1       2.379   7.177  19.032  0.00  0.00    +0.000 A 
ATOM      5  C   UNL     1       1.910   7.616  20.278  0.00  0.00    +0.000 A 
ATOM      6  C   UNL     1       1.216   8.830  20.401  0.00  0.00    +0.000 A 
ENDROOT
BRANCH   1  10
ATOM      7  C   UNL     1      -2.550  10.616  17.644  0.00  0.00    +0.000 A 
ATOM      8  N   UNL     1      -1.227  10.607  17.889  0.00  0.00    +0.000 NA
ATOM      9  C   UNL     1      -0.743  11.287  18.947  0.00  0.00    +0.000 A 
ATOM     10  N   UNL     1       0.571  11.001  19.375  0.00  0.00    +0.000 N 
ATOM     11  N   UNL     1      -1.485  12.118  19.685  0.00  0.00    +0.000 NA
ATOM     12  C   UNL     1      -2.801  12.151  19.401  0.00  0.00    +0.000 A 
ATOM     13  C   UNL     1      -3.396  11.392  18.417  0.00  0.00    +0.000 A 
ATOM     14 BR   UNL     1      -5.272  11.403  18.209  0.00  0.00    +0.000 Br
ATOM     15  H   UNL     1       1.155  11.607  18.809  0.00  0.00    +0.000 HD
BRANCH   7  17
ATOM     16  C   UNL     1      -2.883  10.397  15.263  0.00  0.00    +0.000 C 
ATOM     17  N   UNL     1      -3.047   9.828  16.592  0.00  0.00    +0.000 N 
ATOM     18  H   UNL     1      -2.655   8.893  16.660  0.00  0.00    +0.000 HD
ENDBRANCH   7  17
ENDBRANCH   1  10
BRANCH   4  19
ATOM     19  C   UNL     1       3.256   5.986  18.879  0.00  0.00    +0.000 C 
ATOM     20  O   UNL     1       3.043   5.041  19.643  0.00  0.00    +0.000 OA
ATOM     21  N   UNL     1       4.238   5.945  17.898  0.00  0.00    +0.000 N 
ATOM     22  C   UNL     1       4.841   4.653  17.579  0.00  0.00    +0.000 C 
ATOM     23  C   UNL     1       6.355   4.706  17.747  0.00  0.00    +0.000 C 
ATOM     24  C   UNL     1       6.949   5.823  16.884  0.00  0.00    +0.000 C 
ATOM     25  C   UNL     1       6.300   7.156  17.262  0.00  0.00    +0.000 C 
ATOM     26  C   UNL     1       4.776   7.089  17.157  0.00  0.00    +0.000 C 
BRANCH  24  27
ATOM     27  O   UNL     1       6.724   5.625  15.482  0.00  0.00    +0.000 OA
ATOM     28  C   UNL     1       7.067   4.327  15.014  0.00  0.00    +0.000 C 
ENDBRANCH  24  27
ENDBRANCH   4  19
BRANCH   6  29
ATOM     29  O   UNL     1       0.853   9.141  21.686  0.00  0.00    +0.000 OA
ATOM     30  C   UNL     1      -0.482   8.810  22.064  0.00  0.00    +0.000 C 
ENDBRANCH   6  29
TORSDOF 5
ENDMDL
MODEL 3
REMARK VINA RESULT:      -8.0      1.267      1.284
REMARK  Name = 
REMARK  8 active torsions:
REMARK  status: ('A' for Active; 'I' for Inactive)
REMARK    1  A    between atoms: C_1  and  N_2
REMARK    2  A    between atoms: N_2  and  C_3
REMARK    3  A    between atoms: N_6  and  C_7
REMARK    4  A    between atoms: C_10  and  C_11
REMARK    5  A    between atoms: C_16  and  O_17
REMARK    6  A    between atoms: O_17  and  C_18
REMARK    7  A    between atoms: C_22  and  O_23
REMARK    8  A    between atoms: O_23  and  C_24
REMARK                            x       y       z     vdW  Elec       q    Type
REMARK                         _______ _______ _______ _____ _____    ______ ____
ROOT
ATOM      1  C   UNL     1       0.932  10.140  19.072  0.00  0.00    +0.000 A 
ATOM      2  C   UNL     1       1.447   9.760  17.814  0.00  0.00    +0.000 A 
ATOM      3  C   UNL     1       2.192   8.596  17.655  0.00  0.00    +0.000 A 
ATOM      4  C   UNL     1       2.380   7.742  18.740  0.00  0.00    +0.000 A 
ATOM      5  C   UNL     1       1.791   8.058  19.974  0.00  0.00    +0.000 A 
ATOM      6  C   UNL     1       1.020   9.220  20.130  0.00  0.00    +0.000 A 
ENDROOT
BRANCH   1  10
ATOM      7  C   UNL     1      -2.831  10.871  17.605  0.00  0.00    +0.000 A 
ATOM      8  N   UNL     1      -1.501  10.946  17.796  0.00  0.00    +0.000 NA
ATOM      9  C   UNL     1      -1.019  11.633  18.850  0.00  0.00    +0.000 A 
ATOM     10  N   UNL     1       0.328  11.427  19.217  0.00  0.00    +0.000 N 
ATOM     11  N   UNL     1      -1.783  12.395  19.639  0.00  0.00    +0.000 NA
ATOM     12  C   UNL     1      -3.109  12.346  19.410  0.00  0.00    +0.000 A 
ATOM     13  C   UNL     1      -3.693  11.570  18.431  0.00  0.00    +0.000 A 
ATOM     14 BR   UNL     1      -5.573  11.460  18.300  0.00  0.00    +0.000 Br
ATOM     15  H   UNL     1       0.846  12.083  18.644  0.00  0.00    +0.000 HD
BRANCH   7  17
ATOM     16  C   UNL     1      -3.103  10.615  15.220  0.00  0.00    +0.000 C 
ATOM     17  N   UNL     1      -3.318  10.076  16.554  0.00  0.00    +0.000 N 
ATOM     18  H   UNL     1      -2.953   9.133  16.651  0.00  0.00    +0.000 HD
ENDBRANCH   7  17
ENDBRANCH   1  10
BRANCH   4  19
ATOM     19  C   UNL     1       3.335   6.615  18.572  0.00  0.00    +0.000 C 
ATOM     20  O   UNL     1       4.274   6.799  17.795  0.00  0.00    +0.000 OA
ATOM     21  N   UNL     1       3.179   5.436  19.290  0.00  0.00    +0.000 N 
ATOM     22  C   UNL     1       4.303   4.504  19.337  0.00  0.00    +0.000 C 
ATOM     23  C   UNL     1       3.888   3.129  18.826  0.00  0.00    +0.000 C 
ATOM     24  C   UNL     1       2.695   2.600  19.627  0.00  0.00    +0.000 C 
ATOM     25  C   UNL     1       1.540   3.600  19.537  0.00  0.00    +0.000 C 
ATOM     26  C   UNL     1       1.969   4.996  19.988  0.00  0.00    +0.000 C 
BRANCH  24  27
ATOM     27  O   UNL     1       2.992   2.420  21.019  0.00  0.00    +0.000 OA
ATOM     28  C   UNL     1       1.846   2.331  21.853  0.00  0.00    +0.000 C 
ENDBRANCH  24  27
ENDBRANCH   4  19
BRANCH   6  29
ATOM     29  O   UNL     1       0.541   9.409  21.400  0.00  0.00    +0.000 OA
ATOM     30  C   UNL     1      -0.443   8.481  21.851  0.00  0.00    +0.000 C 
ENDBRANCH   6  29
TORSDOF 5
ENDMDL
MODEL 4
REMARK VINA RESULT:      -7.7      2.564      3.433
REMARK  Name = 
REMARK  8 active torsions:
REMARK  status: ('A' for Active; 'I' for Inactive)
REMARK    1  A    between atoms: C_1  and  N_2
REMARK    2  A    between atoms: N_2  and  C_3
REMARK    3  A    between atoms: N_6  and  C_7
REMARK    4  A    between atoms: C_10  and  C_11
REMARK    5  A    between atoms: C_16  and  O_17
REMARK    6  A    between atoms: O_17  and  C_18
REMARK    7  A    between atoms: C_22  and  O_23
REMARK    8  A    between atoms: O_23  and  C_24
REMARK                            x       y       z     vdW  Elec       q    Type
REMARK                         _______ _______ _______ _____ _____    ______ ____
ROOT
ATOM      1  C   UNL     1       0.333  10.155  19.558  0.00  0.00    +0.000 A 
ATOM      2  C   UNL     1       0.517   9.903  18.182  0.00  0.00    +0.000 A 
ATOM      3  C   UNL     1       1.381   8.909  17.734  0.00  0.00    +0.000 A 
ATOM      4  C   UNL     1       2.032   8.092  18.656  0.00  0.00    +0.000 A 
ATOM      5  C   UNL     1       1.784   8.267  20.026  0.00  0.00    +0.000 A 
ATOM      6  C   UNL     1       0.894   9.253  20.478  0.00  0.00    +0.000 A 
ENDROOT
BRANCH   1  10
ATOM      7  C   UNL     1       2.027  13.893  19.610  0.00  0.00    +0.000 A 
ATOM      8  N   UNL     1       1.433  12.757  20.020  0.00  0.00    +0.000 NA
ATOM      9  C   UNL     1       0.108  12.596  19.834  0.00  0.00    +0.000 A 
ATOM     10  N   UNL     1      -0.426  11.296  19.962  0.00  0.00    +0.000 N 
ATOM     11  N   UNL     1      -0.696  13.575  19.409  0.00  0.00    +0.000 NA
ATOM     12  C   UNL     1      -0.095  14.722  19.042  0.00  0.00    +0.000 A 
ATOM     13  C   UNL     1       1.268  14.924  19.084  0.00  0.00    +0.000 A 
ATOM     14 BR   UNL     1       2.016  16.517  18.400  0.00  0.00    +0.000 Br
ATOM     15  H   UNL     1      -0.627  11.205  20.952  0.00  0.00    +0.000 HD
BRANCH   7  17
ATOM     16  C   UNL     1       3.898  14.432  21.037  0.00  0.00    +0.000 C 
ATOM     17  N   UNL     1       3.422  14.006  19.729  0.00  0.00    +0.000 N 
ATOM     18  H   UNL     1       3.856  13.139  19.427  0.00  0.00    +0.000 HD
ENDBRANCH   7  17
ENDBRANCH   1  10
BRANCH   4  19
ATOM     19  C   UNL     1       3.084   7.176  18.142  0.00  0.00    +0.000 C 
ATOM     20  O   UNL     1       4.051   7.703  17.586  0.00  0.00    +0.000 OA
ATOM     21  N   UNL     1       2.982   5.802  18.319  0.00  0.00    +0.000 N 
ATOM     22  C   UNL     1       4.173   4.987  18.094  0.00  0.00    +0.000 C 
ATOM     23  C   UNL     1       3.904   3.912  17.047  0.00  0.00    +0.000 C 
ATOM     24  C   UNL     1       2.711   3.047  17.465  0.00  0.00    +0.000 C 
ATOM     25  C   UNL     1       1.486   3.940  17.675  0.00  0.00    +0.000 C 
ATOM     26  C   UNL     1       1.771   5.059  18.676  0.00  0.00    +0.000 C 
BRANCH  24  27
ATOM     27  O   UNL     1       2.937   2.342  18.693  0.00  0.00    +0.000 OA
ATOM     28  C   UNL     1       3.830   1.242  18.578  0.00  0.00    +0.000 C 
ENDBRANCH  24  27
ENDBRANCH   4  19
BRANCH   6  29
ATOM     29  O   UNL     1       0.784   9.325  21.842  0.00  0.00    +0.000 OA
ATOM     30  C   UNL     1      -0.451   8.882  22.402  0.00  0.00    +0.000 C 
ENDBRANCH   6  29
TORSDOF 5
ENDMDL
MODEL 5
REMARK VINA RESULT:      -7.7      1.787      2.641
REMARK  Name = 
REMARK  8 active torsions:
REMARK  status: ('A' for Active; 'I' for Inactive)
REMARK    1  A    between atoms: C_1  and  N_2
REMARK    2  A    between atoms: N_2  and  C_3
REMARK    3  A    between atoms: N_6  and  C_7
REMARK    4  A    between atoms: C_10  and  C_11
REMARK    5  A    between atoms: C_16  and  O_17
REMARK    6  A    between atoms: O_17  and  C_18
REMARK    7  A    between atoms: C_22  and  O_23
REMARK    8  A    between atoms: O_23  and  C_24
REMARK                            x       y       z     vdW  Elec       q    Type
REMARK                         _______ _______ _______ _____ _____    ______ ____
ROOT
ATOM      1  C   UNL     1       1.285   9.906  19.522  0.00  0.00    +0.000 A 
ATOM      2  C   UNL     1       1.536   9.560  18.176  0.00  0.00    +0.000 A 
ATOM      3  C   UNL     1       1.984   8.292  17.823  0.00  0.00    +0.000 A 
ATOM      4  C   UNL     1       2.124   7.310  18.803  0.00  0.00    +0.000 A 
ATOM      5  C   UNL     1       1.784   7.610  20.130  0.00  0.00    +0.000 A 
ATOM      6  C   UNL     1       1.310   8.882  20.484  0.00  0.00    +0.000 A 
ENDROOT
BRANCH   1  10
ATOM      7  C   UNL     1      -2.371  11.551  18.641  0.00  0.00    +0.000 A 
ATOM      8  N   UNL     1      -1.044  11.328  18.655  0.00  0.00    +0.000 NA
ATOM      9  C   UNL     1      -0.305  11.785  19.686  0.00  0.00    +0.000 A 
ATOM     10  N   UNL     1       0.997  11.266  19.849  0.00  0.00    +0.000 N 
ATOM     11  N   UNL     1      -0.787  12.599  20.629  0.00  0.00    +0.000 NA
ATOM     12  C   UNL     1      -2.110  12.850  20.579  0.00  0.00    +0.000 A 
ATOM     13  C   UNL     1      -2.958  12.320  19.629  0.00  0.00    +0.000 A 
ATOM     14 BR   UNL     1      -4.819  12.616  19.746  0.00  0.00    +0.000 Br
ATOM     15  H   UNL     1       1.577  11.859  19.265  0.00  0.00    +0.000 HD
BRANCH   7  17
ATOM     16  C   UNL     1      -3.278   9.542  17.656  0.00  0.00    +0.000 C 
ATOM     17  N   UNL     1      -3.138  10.990  17.606  0.00  0.00    +0.000 N 
ATOM     18  H   UNL     1      -4.037  11.461  17.562  0.00  0.00    +0.000 HD
ENDBRANCH   7  17
ENDBRANCH   1  10
BRANCH   4  19
ATOM     19  C   UNL     1       2.782   6.036  18.411  0.00  0.00    +0.000 C 
ATOM     20  O   UNL     1       2.321   5.003  18.902  0.00  0.00    +0.000 OA
ATOM     21  N   UNL     1       3.838   6.027  17.509  0.00  0.00    +0.000 N 
ATOM     22  C   UNL     1       4.228   4.751  16.915  0.00  0.00    +0.000 C 
ATOM     23  C   UNL     1       5.700   4.457  17.180  0.00  0.00    +0.000 C 
ATOM     24  C   UNL     1       6.574   5.601  16.658  0.00  0.00    +0.000 C 
ATOM     25  C   UNL     1       6.140   6.912  17.316  0.00  0.00    +0.000 C 
ATOM     26  C   UNL     1       4.649   7.179  17.108  0.00  0.00    +0.000 C 
BRANCH  24  27
ATOM     27  O   UNL     1       6.466   5.783  15.239  0.00  0.00    +0.000 OA
ATOM     28  C   UNL     1       7.104   4.771  14.472  0.00  0.00    +0.000 C 
ENDBRANCH  24  27
ENDBRANCH   4  19
BRANCH   6  29
ATOM     29  O   UNL     1       1.055   9.033  21.822  0.00  0.00    +0.000 OA
ATOM     30  C   UNL     1      -0.311   8.939  22.221  0.00  0.00    +0.000 C 
ENDBRANCH   6  29
TORSDOF 5
ENDMDL
MODEL 6
REMARK VINA RESULT:      -7.5      3.005      3.813
REMARK  Name = 
REMARK  8 active torsions:
REMARK  status: ('A' for Active; 'I' for Inactive)
REMARK    1  A    between atoms: C_1  and  N_2
REMARK    2  A    between atoms: N_2  and  C_3
REMARK    3  A    between atoms: N_6  and  C_7
REMARK    4  A    between atoms: C_10  and  C_11
REMARK    5  A    between atoms: C_16  and  O_17
REMARK    6  A    between atoms: O_17  and  C_18
REMARK    7  A    between atoms: C_22  and  O_23
REMARK    8  A    between atoms: O_23  and  C_24
REMARK                            x       y       z     vdW  Elec       q    Type
REMARK                         _______ _______ _______ _____ _____    ______ ____
ROOT
ATOM      1  C   UNL     1       0.159  10.725  19.907  0.00  0.00    +0.000 A 
ATOM      2  C   UNL     1       0.222  10.291  18.565  0.00  0.00    +0.000 A 
ATOM      3  C   UNL     1       0.995   9.198  18.189  0.00  0.00    +0.000 A 
ATOM      4  C   UNL     1       1.673   8.464  19.161  0.00  0.00    +0.000 A 
ATOM      5  C   UNL     1       1.542   8.825  20.511  0.00  0.00    +0.000 A 
ATOM      6  C   UNL     1       0.743   9.912  20.893  0.00  0.00    +0.000 A 
ENDROOT
BRANCH   1  10
ATOM      7  C   UNL     1       2.119  14.315  19.572  0.00  0.00    +0.000 A 
ATOM      8  N   UNL     1       1.455  13.270  20.099  0.00  0.00    +0.000 NA
ATOM      9  C   UNL     1       0.117  13.191  19.951  0.00  0.00    +0.000 A 
ATOM     10  N   UNL     1      -0.506  11.952  20.212  0.00  0.00    +0.000 N 
ATOM     11  N   UNL     1      -0.624  14.182  19.448  0.00  0.00    +0.000 NA
ATOM     12  C   UNL     1       0.051  15.242  18.963  0.00  0.00    +0.000 A 
ATOM     13  C   UNL     1       1.425  15.345  18.963  0.00  0.00    +0.000 A 
ATOM     14 BR   UNL     1       2.269  16.807  18.117  0.00  0.00    +0.000 Br
ATOM     15  H   UNL     1      -0.689  11.970  21.209  0.00  0.00    +0.000 HD
BRANCH   7  17
ATOM     16  C   UNL     1       4.056  14.661  20.970  0.00  0.00    +0.000 C 
ATOM     17  N   UNL     1       3.521  14.335  19.657  0.00  0.00    +0.000 N 
ATOM     18  H   UNL     1       3.892  13.460  19.298  0.00  0.00    +0.000 HD
ENDBRANCH   7  17
ENDBRANCH   1  10
BRANCH   4  19
ATOM     19  C   UNL     1       2.633   7.429  18.697  0.00  0.00    +0.000 C 
ATOM     20  O   UNL     1       3.374   7.742  17.763  0.00  0.00    +0.000 OA
ATOM     21  N   UNL     1       2.700   6.189  19.320  0.00  0.00    +0.000 N 
ATOM     22  C   UNL     1       3.859   5.343  19.049  0.00  0.00    +0.000 C 
ATOM     23  C   UNL     1       3.425   3.984  18.510  0.00  0.00    +0.000 C 
ATOM     24  C   UNL     1       2.460   3.307  19.488  0.00  0.00    +0.000 C 
ATOM     25  C   UNL     1       1.257   4.221  19.730  0.00  0.00    +0.000 C 
ATOM     26  C   UNL     1       1.692   5.606  20.209  0.00  0.00    +0.000 C 
BRANCH  24  27
ATOM     27  O   UNL     1       3.055   3.042  20.765  0.00  0.00    +0.000 OA
ATOM     28  C   UNL     1       2.154   2.521  21.732  0.00  0.00    +0.000 C 
ENDBRANCH  24  27
ENDBRANCH   4  19
BRANCH   6  29
ATOM     29  O   UNL     1       0.743  10.162  22.241  0.00  0.00    +0.000 OA
ATOM     30  C   UNL     1      -0.338   9.607  22.988  0.00  0.00    +0.000 C 
ENDBRANCH   6  29
TORSDOF 5
ENDMDL
MODEL 7
REMARK VINA RESULT:      -7.5      1.651      2.642
REMARK  Name = 
REMARK  8 active torsions:
REMARK  status: ('A' for Active; 'I' for Inactive)
REMARK    1  A    between atoms: C_1  and  N_2
REMARK    2  A    between atoms: N_2  and  C_3
REMARK    3  A    between atoms: N_6  and  C_7
REMARK    4  A    between atoms: C_10  and  C_11
REMARK    5  A    between atoms: C_16  and  O_17
REMARK    6  A    between atoms: O_17  and  C_18
REMARK    7  A    between atoms: C_22  and  O_23
REMARK    8  A    between atoms: O_23  and  C_24
REMARK                            x       y       z     vdW  Elec       q    Type
REMARK                         _______ _______ _______ _____ _____    ______ ____
ROOT
ATOM      1  C   UNL     1       0.783  10.158  19.767  0.00  0.00    +0.000 A 
ATOM      2  C   UNL     1       0.614   9.289  20.867  0.00  0.00    +0.000 A 
ATOM      3  C   UNL     1       1.113   7.991  20.851  0.00  0.00    +0.000 A 
ATOM      4  C   UNL     1       1.858   7.550  19.759  0.00  0.00    +0.000 A 
ATOM      5  C   UNL     1       2.117   8.433  18.701  0.00  0.00    +0.000 A 
ATOM      6  C   UNL     1       1.635   9.751  18.727  0.00  0.00    +0.000 A 
ENDROOT
BRANCH   1  10
ATOM      7  C   UNL     1      -2.694  10.656  17.645  0.00  0.00    +0.000 A 
ATOM      8  N   UNL     1      -1.423  10.804  18.062  0.00  0.00    +0.000 NA
ATOM      9  C   UNL     1      -1.166  11.542  19.160  0.00  0.00    +0.000 A 
ATOM     10  N   UNL     1       0.104  11.414  19.762  0.00  0.00    +0.000 N 
ATOM     11  N   UNL     1      -2.091  12.283  19.777  0.00  0.00    +0.000 NA
ATOM     12  C   UNL     1      -3.353  12.159  19.323  0.00  0.00    +0.000 A 
ATOM     13  C   UNL     1      -3.719  11.330  18.285  0.00  0.00    +0.000 A 
ATOM     14 BR   UNL     1      -5.540  11.119  17.833  0.00  0.00    +0.000 Br
ATOM     15  H   UNL     1       0.683  12.082  19.265  0.00  0.00    +0.000 HD
BRANCH   7  17
ATOM     16  C   UNL     1      -2.816  10.431  15.245  0.00  0.00    +0.000 C 
ATOM     17  N   UNL     1      -2.952   9.810  16.553  0.00  0.00    +0.000 N 
ATOM     18  H   UNL     1      -2.388   8.970  16.640  0.00  0.00    +0.000 HD
ENDBRANCH   7  17
ENDBRANCH   1  10
BRANCH   4  19
ATOM     19  C   UNL     1       2.206   6.105  19.702  0.00  0.00    +0.000 C 
ATOM     20  O   UNL     1       1.694   5.379  20.557  0.00  0.00    +0.000 OA
ATOM     21  N   UNL     1       3.039   5.612  18.706  0.00  0.00    +0.000 N 
ATOM     22  C   UNL     1       3.086   4.167  18.498  0.00  0.00    +0.000 C 
ATOM     23  C   UNL     1       4.514   3.647  18.625  0.00  0.00    +0.000 C 
ATOM     24  C   UNL     1       5.436   4.378  17.645  0.00  0.00    +0.000 C 
ATOM     25  C   UNL     1       5.366   5.884  17.909  0.00  0.00    +0.000 C 
ATOM     26  C   UNL     1       3.927   6.398  17.846  0.00  0.00    +0.000 C 
BRANCH  24  27
ATOM     27  O   UNL     1       5.071   4.170  16.274  0.00  0.00    +0.000 OA
ATOM     28  C   UNL     1       6.175   4.015  15.394  0.00  0.00    +0.000 C 
ENDBRANCH  24  27
ENDBRANCH   4  19
BRANCH   6  29
ATOM     29  O   UNL     1       1.939  10.481  17.607  0.00  0.00    +0.000 OA
ATOM     30  C   UNL     1       2.580  11.736  17.824  0.00  0.00    +0.000 C 
ENDBRANCH   6  29
TORSDOF 5
ENDMDL
MODEL 8
REMARK VINA RESULT:      -7.5      1.064      1.128
REMARK  Name = 
REMARK  8 active torsions:
REMARK  status: ('A' for Active; 'I' for Inactive)
REMARK    1  A    between atoms: C_1  and  N_2
REMARK    2  A    between atoms: N_2  and  C_3
REMARK    3  A    between atoms: N_6  and  C_7
REMARK    4  A    between atoms: C_10  and  C_11
REMARK    5  A    between atoms: C_16  and  O_17
REMARK    6  A    between atoms: O_17  and  C_18
REMARK    7  A    between atoms: C_22  and  O_23
REMARK    8  A    between atoms: O_23  and  C_24
REMARK                            x       y       z     vdW  Elec       q    Type
REMARK                         _______ _______ _______ _____ _____    ______ ____
ROOT
ATOM      1  C   UNL     1       1.022  10.385  19.647  0.00  0.00    +0.000 A 
ATOM      2  C   UNL     1       1.385  10.233  18.291  0.00  0.00    +0.000 A 
ATOM      3  C   UNL     1       2.018   9.083  17.833  0.00  0.00    +0.000 A 
ATOM      4  C   UNL     1       2.242   8.021  18.707  0.00  0.00    +0.000 A 
ATOM      5  C   UNL     1       1.799   8.119  20.035  0.00  0.00    +0.000 A 
ATOM      6  C   UNL     1       1.139   9.269  20.493  0.00  0.00    +0.000 A 
ENDROOT
BRANCH   1  10
ATOM      7  C   UNL     1      -2.717  11.701  18.585  0.00  0.00    +0.000 A 
ATOM      8  N   UNL     1      -1.379  11.632  18.713  0.00  0.00    +0.000 NA
ATOM      9  C   UNL     1      -0.801  12.032  19.862  0.00  0.00    +0.000 A 
ATOM     10  N   UNL     1       0.536  11.649  20.100  0.00  0.00    +0.000 N 
ATOM     11  N   UNL     1      -1.467  12.657  20.838  0.00  0.00    +0.000 NA
ATOM     12  C   UNL     1      -2.800  12.759  20.678  0.00  0.00    +0.000 A 
ATOM     13  C   UNL     1      -3.484  12.264  19.589  0.00  0.00    +0.000 A 
ATOM     14 BR   UNL     1      -5.371  12.326  19.542  0.00  0.00    +0.000 Br
ATOM     15  H   UNL     1       1.086  12.375  19.655  0.00  0.00    +0.000 HD
BRANCH   7  17
ATOM     16  C   UNL     1      -3.313   9.745  17.302  0.00  0.00    +0.000 C 
ATOM     17  N   UNL     1      -3.310  11.195  17.416  0.00  0.00    +0.000 N 
ATOM     18  H   UNL     1      -4.241  11.590  17.314  0.00  0.00    +0.000 HD
ENDBRANCH   7  17
ENDBRANCH   1  10
BRANCH   4  19
ATOM     19  C   UNL     1       3.086   6.897  18.224  0.00  0.00    +0.000 C 
ATOM     20  O   UNL     1       3.796   7.123  17.241  0.00  0.00    +0.000 OA
ATOM     21  N   UNL     1       3.088   5.673  18.881  0.00  0.00    +0.000 N 
ATOM     22  C   UNL     1       4.157   4.727  18.573  0.00  0.00    +0.000 C 
ATOM     23  C   UNL     1       3.583   3.395  18.102  0.00  0.00    +0.000 C 
ATOM     24  C   UNL     1       2.623   2.826  19.152  0.00  0.00    +0.000 C 
ATOM     25  C   UNL     1       1.515   3.844  19.430  0.00  0.00    +0.000 C 
ATOM     26  C   UNL     1       2.088   5.200  19.842  0.00  0.00    +0.000 C 
BRANCH  24  27
ATOM     27  O   UNL     1       3.267   2.547  20.403  0.00  0.00    +0.000 OA
ATOM     28  C   UNL     1       4.499   1.850  20.281  0.00  0.00    +0.000 C 
ENDBRANCH  24  27
ENDBRANCH   4  19
BRANCH   6  29
ATOM     29  O   UNL     1       0.800   9.230  21.820  0.00  0.00    +0.000 OA
ATOM     30  C   UNL     1      -0.542   8.851  22.121  0.00  0.00    +0.000 C 
ENDBRANCH   6  29
TORSDOF 5
ENDMDL
MODEL 9
REMARK VINA RESULT:      -7.3      1.556      1.790
REMARK  Name = 
REMARK  8 active torsions:
REMARK  status: ('A' for Active; 'I' for Inactive)
REMARK    1  A    between atoms: C_1  and  N_2
REMARK    2  A    between atoms: N_2  and  C_3
REMARK    3  A    between atoms: N_6  and  C_7
REMARK    4  A    between atoms: C_10  and  C_11
REMARK    5  A    between atoms: C_16  and  O_17
REMARK    6  A    between atoms: O_17  and  C_18
REMARK    7  A    between atoms: C_22  and  O_23
REMARK    8  A    between atoms: O_23  and  C_24
REMARK                            x       y       z     vdW  Elec       q    Type
REMARK                         _______ _______ _______ _____ _____    ______ ____
ROOT
ATOM      1  C   UNL     1      -0.375  10.969  19.706  0.00  0.00    +0.000 A 
ATOM      2  C   UNL     1      -0.225  10.507  18.380  0.00  0.00    +0.000 A 
ATOM      3  C   UNL     1       0.640   9.464  18.067  0.00  0.00    +0.000 A 
ATOM      4  C   UNL     1       1.327   8.806  19.085  0.00  0.00    +0.000 A 
ATOM      5  C   UNL     1       1.114   9.190  20.418  0.00  0.00    +0.000 A 
ATOM      6  C   UNL     1       0.224  10.226  20.737  0.00  0.00    +0.000 A 
ENDROOT
BRANCH   1  10
ATOM      7  C   UNL     1      -4.011  11.532  17.888  0.00  0.00    +0.000 A 
ATOM      8  N   UNL     1      -2.728  11.710  18.254  0.00  0.00    +0.000 NA
ATOM      9  C   UNL     1      -2.451  12.275  19.446  0.00  0.00    +0.000 A 
ATOM     10  N   UNL     1      -1.138  12.151  19.949  0.00  0.00    +0.000 N 
ATOM     11  N   UNL     1      -3.382  12.828  20.229  0.00  0.00    +0.000 NA
ATOM     12  C   UNL     1      -4.659  12.682  19.829  0.00  0.00    +0.000 A 
ATOM     13  C   UNL     1      -5.036  12.008  18.686  0.00  0.00    +0.000 A 
ATOM     14 BR   UNL     1      -6.864  11.731  18.304  0.00  0.00    +0.000 Br
ATOM     15  H   UNL     1      -0.641  12.935  19.542  0.00  0.00    +0.000 HD
BRANCH   7  17
ATOM     16  C   UNL     1      -3.158  10.764  15.764  0.00  0.00    +0.000 C 
ATOM     17  N   UNL     1      -4.282  10.860  16.684  0.00  0.00    +0.000 N 
ATOM     18  H   UNL     1      -4.687   9.952  16.891  0.00  0.00    +0.000 HD
ENDBRANCH   7  17
ENDBRANCH   1  10
BRANCH   4  19
ATOM     19  C   UNL     1       2.378   7.832  18.689  0.00  0.00    +0.000 C 
ATOM     20  O   UNL     1       3.132   8.173  17.775  0.00  0.00    +0.000 OA
ATOM     21  N   UNL     1       2.510   6.617  19.351  0.00  0.00    +0.000 N 
ATOM     22  C   UNL     1       3.737   5.852  19.150  0.00  0.00    +0.000 C 
ATOM     23  C   UNL     1       3.424   4.451  18.635  0.00  0.00    +0.000 C 
ATOM     24  C   UNL     1       2.472   3.731  19.595  0.00  0.00    +0.000 C 
ATOM     25  C   UNL     1       1.198   4.561  19.764  0.00  0.00    +0.000 C 
ATOM     26  C   UNL     1       1.511   5.987  20.218  0.00  0.00    +0.000 C 
BRANCH  24  27
ATOM     27  O   UNL     1       3.033   3.545  20.902  0.00  0.00    +0.000 OA
ATOM     28  C   UNL     1       2.355   2.581  21.696  0.00  0.00    +0.000 C 
ENDBRANCH  24  27
ENDBRANCH   4  19
BRANCH   6  29
ATOM     29  O   UNL     1       0.149  10.509  22.076  0.00  0.00    +0.000 OA
ATOM     30  C   UNL     1      -0.468   9.521  22.899  0.00  0.00    +0.000 C 
ENDBRANCH   6  29
TORSDOF 5
ENDMDL
