MODEL 1
REMARK VINA RESULT:      -7.3      0.000      0.000
REMARK  Name = 
REMARK  9 active torsions:
REMARK  status: ('A' for Active; 'I' for Inactive)
REMARK    1  A    between atoms: C_1  and  N_2
REMARK    2  A    between atoms: N_2  and  C_3
REMARK    3  A    between atoms: N_2  and  C_4
REMARK    4  A    between atoms: C_4  and  C_5
REMARK    5  A    between atoms: C_5  and  C_6
REMARK    6  A    between atoms: C_6  and  N_7
REMARK    7  A    between atoms: C_10  and  S_11
REMARK    8  A    between atoms: S_11  and  C_12
REMARK    9  A    between atoms: C_12  and  C_13
REMARK                            x       y       z     vdW  Elec       q    Type
REMARK                         _______ _______ _______ _____ _____    ______ ____
ROOT
ATOM      1  N   UNL     1       4.840   4.995  16.528  0.00  0.00    +0.000 N 
ATOM      2  C   UNL     1       3.735   4.472  17.154  0.00  0.00    +0.000 A 
ATOM      3  C   UNL     1       2.932   5.223  17.907  0.00  0.00    +0.000 A 
ATOM      4  C   UNL     1       3.308   6.626  18.015  0.00  0.00    +0.000 A 
ATOM      5  N   UNL     1       4.321   7.166  17.429  0.00  0.00    +0.000 NA
ATOM      6  C   UNL     1       5.130   6.365  16.636  0.00  0.00    +0.000 A 
ATOM      7  O   UNL     1       6.055   6.882  16.018  0.00  0.00    +0.000 OA
ATOM      8  C   UNL     1       1.769   4.478  18.444  0.00  0.00    +0.000 C 
ATOM      9  C   UNL     1       2.187   3.027  18.182  0.00  0.00    +0.000 C 
ATOM     10  C   UNL     1       3.228   3.072  17.056  0.00  0.00    +0.000 C 
ENDROOT
BRANCH   1  11
ATOM     11  C   UNL     1       5.661   4.173  15.631  0.00  0.00    +0.000 C 
BRANCH  11  12
ATOM     12  C   UNL     1       5.352   4.329  14.136  0.00  0.00    +0.000 C 
BRANCH  12  13
ATOM     13  C   UNL     1       6.350   3.648  13.193  0.00  0.00    +0.000 C 
BRANCH  13  15
ATOM     14  C   UNL     1       4.614   3.235  11.527  0.00  0.00    +0.000 C 
ATOM     15  N   UNL     1       5.758   2.681  12.252  0.00  0.00    +0.000 NA
ATOM     16  C   UNL     1       6.776   2.235  11.295  0.00  0.00    +0.000 C 
ENDBRANCH  13  15
ENDBRANCH  12  13
ENDBRANCH  11  12
ENDBRANCH   1  11
BRANCH   4  17
ATOM     17  S   UNL     1       2.267   7.595  19.030  0.00  0.00    +0.000 S 
BRANCH  17  18
ATOM     18  C   UNL     1       2.008   9.069  18.004  0.00  0.00    +0.000 C 
BRANCH  18  19
ATOM     19  C   UNL     1       0.840   9.896  18.512  0.00  0.00    +0.000 C 
ATOM     20  O   UNL     1       0.886  10.422  19.622  0.00  0.00    +0.000 OA
ATOM     21  N   UNL     1      -0.220   9.929  17.631  0.00  0.00    +0.000 N 
ATOM     22  C   UNL     1      -1.388  10.566  17.937  0.00  0.00    +0.000 A 
ATOM     23  N   UNL     1      -1.625  11.443  18.878  0.00  0.00    +0.000 NA
ATOM     24  C   UNL     1      -2.964  11.777  18.865  0.00  0.00    +0.000 A 
ATOM     25  C   UNL     1      -3.726  11.131  17.914  0.00  0.00    +0.000 A 
ATOM     26  S   UNL     1      -2.716  10.124  16.960  0.00  0.00    +0.000 S 
ATOM     27  H   UNL     1      -0.237   9.296  16.838  0.00  0.00    +0.000 HD
ENDBRANCH  18  19
ENDBRANCH  17  18
ENDBRANCH   4  17
TORSDOF 7
ENDMDL
MODEL 2
REMARK VINA RESULT:      -7.1      1.977      2.118
REMARK  Name = 
REMARK  9 active torsions:
REMARK  status: ('A' for Active; 'I' for Inactive)
REMARK    1  A    between atoms: C_1  and  N_2
REMARK    2  A    between atoms: N_2  and  C_3
REMARK    3  A    between atoms: N_2  and  C_4
REMARK    4  A    between atoms: C_4  and  C_5
REMARK    5  A    between atoms: C_5  and  C_6
REMARK    6  A    between atoms: C_6  and  N_7
REMARK    7  A    between atoms: C_10  and  S_11
REMARK    8  A    between atoms: S_11  and  C_12
REMARK    9  A    between atoms: C_12  and  C_13
REMARK                            x       y       z     vdW  Elec       q    Type
REMARK                         _______ _______ _______ _____ _____    ______ ____
ROOT
ATOM      1  N   UNL     1       5.551   5.251  17.006  0.00  0.00    +0.000 N 
ATOM      2  C   UNL     1       4.316   4.715  17.273  0.00  0.00    +0.000 A 
ATOM      3  C   UNL     1       3.283   5.475  17.635  0.00  0.00    +0.000 A 
ATOM      4  C   UNL     1       3.558   6.902  17.723  0.00  0.00    +0.000 A 
ATOM      5  N   UNL     1       4.693   7.453  17.459  0.00  0.00    +0.000 NA
ATOM      6  C   UNL     1       5.747   6.640  17.068  0.00  0.00    +0.000 A 
ATOM      7  O   UNL     1       6.811   7.160  16.748  0.00  0.00    +0.000 OA
ATOM      8  C   UNL     1       2.029   4.707  17.822  0.00  0.00    +0.000 C 
ATOM      9  C   UNL     1       2.554   3.269  17.861  0.00  0.00    +0.000 C 
ATOM     10  C   UNL     1       3.914   3.283  17.151  0.00  0.00    +0.000 C 
ENDROOT
BRANCH   1  11
ATOM     11  C   UNL     1       6.653   4.409  16.522  0.00  0.00    +0.000 C 
BRANCH  11  12
ATOM     12  C   UNL     1       6.947   4.517  15.021  0.00  0.00    +0.000 C 
BRANCH  12  13
ATOM     13  C   UNL     1       5.793   4.098  14.102  0.00  0.00    +0.000 C 
BRANCH  13  15
ATOM     14  C   UNL     1       5.070   3.247  11.932  0.00  0.00    +0.000 C 
ATOM     15  N   UNL     1       6.203   3.481  12.829  0.00  0.00    +0.000 NA
ATOM     16  C   UNL     1       7.190   4.334  12.160  0.00  0.00    +0.000 C 
ENDBRANCH  13  15
ENDBRANCH  12  13
ENDBRANCH  11  12
ENDBRANCH   1  11
BRANCH   4  17
ATOM     17  S   UNL     1       2.206   7.888  18.228  0.00  0.00    +0.000 S 
BRANCH  17  18
ATOM     18  C   UNL     1       2.062   7.458  19.984  0.00  0.00    +0.000 C 
BRANCH  18  19
ATOM     19  C   UNL     1       1.463   8.602  20.784  0.00  0.00    +0.000 C 
ATOM     20  O   UNL     1       1.403   8.539  22.009  0.00  0.00    +0.000 OA
ATOM     21  N   UNL     1       0.990   9.625  19.989  0.00  0.00    +0.000 N 
ATOM     22  C   UNL     1       0.357  10.711  20.520  0.00  0.00    +0.000 A 
ATOM     23  N   UNL     1       0.337  11.128  21.759  0.00  0.00    +0.000 NA
ATOM     24  C   UNL     1      -0.483  12.234  21.856  0.00  0.00    +0.000 A 
ATOM     25  C   UNL     1      -1.084  12.630  20.680  0.00  0.00    +0.000 A 
ATOM     26  S   UNL     1      -0.549  11.624  19.397  0.00  0.00    +0.000 S 
ATOM     27  H   UNL     1       0.903   9.486  18.988  0.00  0.00    +0.000 HD
ENDBRANCH  18  19
ENDBRANCH  17  18
ENDBRANCH   4  17
TORSDOF 7
ENDMDL
MODEL 3
REMARK VINA RESULT:      -7.1      5.092      7.409
REMARK  Name = 
REMARK  9 active torsions:
REMARK  status: ('A' for Active; 'I' for Inactive)
REMARK    1  A    between atoms: C_1  and  N_2
REMARK    2  A    between atoms: N_2  and  C_3
REMARK    3  A    between atoms: N_2  and  C_4
REMARK    4  A    between atoms: C_4  and  C_5
REMARK    5  A    between atoms: C_5  and  C_6
REMARK    6  A    between atoms: C_6  and  N_7
REMARK    7  A    between atoms: C_10  and  S_11
REMARK    8  A    between atoms: S_11  and  C_12
REMARK    9  A    between atoms: C_12  and  C_13
REMARK                            x       y       z     vdW  Elec       q    Type
REMARK                         _______ _______ _______ _____ _____    ______ ____
ROOT
ATOM      1  N   UNL     1       3.600   4.693  19.801  0.00  0.00    +0.000 N 
ATOM      2  C   UNL     1       3.537   5.762  18.942  0.00  0.00    +0.000 A 
ATOM      3  C   UNL     1       4.575   6.122  18.188  0.00  0.00    +0.000 A 
ATOM      4  C   UNL     1       5.771   5.304  18.342  0.00  0.00    +0.000 A 
ATOM      5  N   UNL     1       5.871   4.280  19.117  0.00  0.00    +0.000 NA
ATOM      6  C   UNL     1       4.768   3.916  19.877  0.00  0.00    +0.000 A 
ATOM      7  O   UNL     1       4.829   2.903  20.565  0.00  0.00    +0.000 OA
ATOM      8  C   UNL     1       4.280   7.264  17.292  0.00  0.00    +0.000 C 
ATOM      9  C   UNL     1       2.967   7.787  17.885  0.00  0.00    +0.000 C 
ATOM     10  C   UNL     1       2.347   6.619  18.664  0.00  0.00    +0.000 C 
ENDROOT
BRANCH   1  11
ATOM     11  C   UNL     1       2.419   4.257  20.556  0.00  0.00    +0.000 C 
BRANCH  11  12
ATOM     12  C   UNL     1       1.757   2.971  20.047  0.00  0.00    +0.000 C 
BRANCH  12  13
ATOM     13  C   UNL     1       1.219   3.041  18.613  0.00  0.00    +0.000 C 
BRANCH  13  15
ATOM     14  C   UNL     1       2.768   3.263  16.740  0.00  0.00    +0.000 C 
ATOM     15  N   UNL     1       2.034   2.340  17.606  0.00  0.00    +0.000 NA
ATOM     16  C   UNL     1       2.980   1.439  18.274  0.00  0.00    +0.000 C 
ENDBRANCH  13  15
ENDBRANCH  12  13
ENDBRANCH  11  12
ENDBRANCH   1  11
BRANCH   4  17
ATOM     17  S   UNL     1       7.138   5.803  17.373  0.00  0.00    +0.000 S 
BRANCH  17  18
ATOM     18  C   UNL     1       8.075   6.826  18.542  0.00  0.00    +0.000 C 
BRANCH  18  19
ATOM     19  C   UNL     1       8.119   8.276  18.093  0.00  0.00    +0.000 C 
ATOM     20  O   UNL     1       7.557   8.623  17.057  0.00  0.00    +0.000 OA
ATOM     21  N   UNL     1       8.865   9.077  18.932  0.00  0.00    +0.000 N 
ATOM     22  C   UNL     1       9.078  10.398  18.661  0.00  0.00    +0.000 A 
ATOM     23  N   UNL     1       8.445  11.178  17.824  0.00  0.00    +0.000 NA
ATOM     24  C   UNL     1       9.036  12.425  17.827  0.00  0.00    +0.000 A 
ATOM     25  C   UNL     1      10.122  12.564  18.664  0.00  0.00    +0.000 A 
ATOM     26  S   UNL     1      10.368  11.102  19.528  0.00  0.00    +0.000 S 
ATOM     27  H   UNL     1       9.453   8.653  19.642  0.00  0.00    +0.000 HD
ENDBRANCH  18  19
ENDBRANCH  17  18
ENDBRANCH   4  17
TORSDOF 7
ENDMDL
MODEL 4
REMARK VINA RESULT:      -7.0      2.003      2.319
REMARK  Name = 
REMARK  9 active torsions:
REMARK  status: ('A' for Active; 'I' for Inactive)
REMARK    1  A    between atoms: C_1  and  N_2
REMARK    2  A    between atoms: N_2  and  C_3
REMARK    3  A    between atoms: N_2  and  C_4
REMARK    4  A    between atoms: C_4  and  C_5
REMARK    5  A    between atoms: C_5  and  C_6
REMARK    6  A    between atoms: C_6  and  N_7
REMARK    7  A    between atoms: C_10  and  S_11
REMARK    8  A    between atoms: S_11  and  C_12
REMARK    9  A    between atoms: C_12  and  C_13
REMARK                            x       y       z     vdW  Elec       q    Type
REMARK                         _______ _______ _______ _____ _____    ______ ____
ROOT
ATOM      1  N   UNL     1       4.814   4.923  16.616  0.00  0.00    +0.000 N 
ATOM      2  C   UNL     1       3.665   4.455  17.203  0.00  0.00    +0.000 A 
ATOM      3  C   UNL     1       2.862   5.249  17.909  0.00  0.00    +0.000 A 
ATOM      4  C   UNL     1       3.288   6.638  18.011  0.00  0.00    +0.000 A 
ATOM      5  N   UNL     1       4.345   7.128  17.459  0.00  0.00    +0.000 NA
ATOM      6  C   UNL     1       5.154   6.283  16.714  0.00  0.00    +0.000 A 
ATOM      7  O   UNL     1       6.124   6.752  16.128  0.00  0.00    +0.000 OA
ATOM      8  C   UNL     1       1.649   4.560  18.409  0.00  0.00    +0.000 C 
ATOM      9  C   UNL     1       2.020   3.090  18.188  0.00  0.00    +0.000 C 
ATOM     10  C   UNL     1       3.107   3.074  17.106  0.00  0.00    +0.000 C 
ENDROOT
BRANCH   1  11
ATOM     11  C   UNL     1       5.640   4.055  15.767  0.00  0.00    +0.000 C 
BRANCH  11  12
ATOM     12  C   UNL     1       5.346   4.140  14.264  0.00  0.00    +0.000 C 
BRANCH  12  13
ATOM     13  C   UNL     1       6.533   3.810  13.352  0.00  0.00    +0.000 C 
BRANCH  13  15
ATOM     14  C   UNL     1       6.881   2.273  11.488  0.00  0.00    +0.000 C 
ATOM     15  N   UNL     1       6.175   3.463  11.966  0.00  0.00    +0.000 NA
ATOM     16  C   UNL     1       4.728   3.247  11.866  0.00  0.00    +0.000 C 
ENDBRANCH  13  15
ENDBRANCH  12  13
ENDBRANCH  11  12
ENDBRANCH   1  11
BRANCH   4  17
ATOM     17  S   UNL     1       2.244   7.665  18.965  0.00  0.00    +0.000 S 
BRANCH  17  18
ATOM     18  C   UNL     1       1.673   8.869  17.734  0.00  0.00    +0.000 C 
BRANCH  18  19
ATOM     19  C   UNL     1       1.073  10.095  18.400  0.00  0.00    +0.000 C 
ATOM     20  O   UNL     1      -0.046  10.045  18.903  0.00  0.00    +0.000 OA
ATOM     21  N   UNL     1       1.889  11.204  18.321  0.00  0.00    +0.000 N 
ATOM     22  C   UNL     1       1.497  12.419  18.802  0.00  0.00    +0.000 A 
ATOM     23  N   UNL     1       0.519  12.703  19.623  0.00  0.00    +0.000 NA
ATOM     24  C   UNL     1       0.444  14.071  19.789  0.00  0.00    +0.000 A 
ATOM     25  C   UNL     1       1.366  14.805  19.076  0.00  0.00    +0.000 A 
ATOM     26  S   UNL     1       2.407  13.741  18.222  0.00  0.00    +0.000 S 
ATOM     27  H   UNL     1       2.698  11.192  17.708  0.00  0.00    +0.000 HD
ENDBRANCH  18  19
ENDBRANCH  17  18
ENDBRANCH   4  17
TORSDOF 7
ENDMDL
MODEL 5
REMARK VINA RESULT:      -6.9      1.992      2.082
REMARK  Name = 
REMARK  9 active torsions:
REMARK  status: ('A' for Active; 'I' for Inactive)
REMARK    1  A    between atoms: C_1  and  N_2
REMARK    2  A    between atoms: N_2  and  C_3
REMARK    3  A    between atoms: N_2  and  C_4
REMARK    4  A    between atoms: C_4  and  C_5
REMARK    5  A    between atoms: C_5  and  C_6
REMARK    6  A    between atoms: C_6  and  N_7
REMARK    7  A    between atoms: C_10  and  S_11
REMARK    8  A    between atoms: S_11  and  C_12
REMARK    9  A    between atoms: C_12  and  C_13
REMARK                            x       y       z     vdW  Elec       q    Type
REMARK                         _______ _______ _______ _____ _____    ______ ____
ROOT
ATOM      1  N   UNL     1       5.519   5.180  16.800  0.00  0.00    +0.000 N 
ATOM      2  C   UNL     1       4.350   4.547  17.142  0.00  0.00    +0.000 A 
ATOM      3  C   UNL     1       3.340   5.198  17.720  0.00  0.00    +0.000 A 
ATOM      4  C   UNL     1       3.567   6.617  17.958  0.00  0.00    +0.000 A 
ATOM      5  N   UNL     1       4.637   7.258  17.635  0.00  0.00    +0.000 NA
ATOM      6  C   UNL     1       5.664   6.560  17.018  0.00  0.00    +0.000 A 
ATOM      7  O   UNL     1       6.658   7.174  16.643  0.00  0.00    +0.000 OA
ATOM      8  C   UNL     1       2.152   4.344  17.954  0.00  0.00    +0.000 C 
ATOM      9  C   UNL     1       2.735   2.943  17.744  0.00  0.00    +0.000 C 
ATOM     10  C   UNL     1       3.993   3.121  16.883  0.00  0.00    +0.000 C 
ENDROOT
BRANCH   1  11
ATOM     11  C   UNL     1       6.584   4.468  16.083  0.00  0.00    +0.000 C 
BRANCH  11  12
ATOM     12  C   UNL     1       6.576   4.643  14.559  0.00  0.00    +0.000 C 
BRANCH  12  13
ATOM     13  C   UNL     1       5.475   3.870  13.824  0.00  0.00    +0.000 C 
BRANCH  13  15
ATOM     14  C   UNL     1       4.792   3.224  11.571  0.00  0.00    +0.000 C 
ATOM     15  N   UNL     1       5.884   3.267  12.544  0.00  0.00    +0.000 NA
ATOM     16  C   UNL     1       7.012   4.018  11.981  0.00  0.00    +0.000 C 
ENDBRANCH  13  15
ENDBRANCH  12  13
ENDBRANCH  11  12
ENDBRANCH   1  11
BRANCH   4  17
ATOM     17  S   UNL     1       2.250   7.454  18.745  0.00  0.00    +0.000 S 
BRANCH  17  18
ATOM     18  C   UNL     1       2.136   8.979  17.768  0.00  0.00    +0.000 C 
BRANCH  18  19
ATOM     19  C   UNL     1       1.561  10.119  18.590  0.00  0.00    +0.000 C 
ATOM     20  O   UNL     1       1.836  11.284  18.314  0.00  0.00    +0.000 OA
ATOM     21  N   UNL     1       0.781   9.685  19.641  0.00  0.00    +0.000 N 
ATOM     22  C   UNL     1       0.230  10.558  20.534  0.00  0.00    +0.000 A 
ATOM     23  N   UNL     1       0.074  11.852  20.429  0.00  0.00    +0.000 NA
ATOM     24  C   UNL     1      -0.472  12.342  21.599  0.00  0.00    +0.000 A 
ATOM     25  C   UNL     1      -0.710  11.404  22.580  0.00  0.00    +0.000 A 
ATOM     26  S   UNL     1      -0.299   9.845  21.991  0.00  0.00    +0.000 S 
ATOM     27  H   UNL     1       0.786   8.704  19.901  0.00  0.00    +0.000 HD
ENDBRANCH  18  19
ENDBRANCH  17  18
ENDBRANCH   4  17
TORSDOF 7
ENDMDL
MODEL 6
REMARK VINA RESULT:      -6.9      3.228      3.882
REMARK  Name = 
REMARK  9 active torsions:
REMARK  status: ('A' for Active; 'I' for Inactive)
REMARK    1  A    between atoms: C_1  and  N_2
REMARK    2  A    between atoms: N_2  and  C_3
REMARK    3  A    between atoms: N_2  and  C_4
REMARK    4  A    between atoms: C_4  and  C_5
REMARK    5  A    between atoms: C_5  and  C_6
REMARK    6  A    between atoms: C_6  and  N_7
REMARK    7  A    between atoms: C_10  and  S_11
REMARK    8  A    between atoms: S_11  and  C_12
REMARK    9  A    between atoms: C_12  and  C_13
REMARK                            x       y       z     vdW  Elec       q    Type
REMARK                         _______ _______ _______ _____ _____    ______ ____
ROOT
ATOM      1  N   UNL     1       3.545   5.329  17.922  0.00  0.00    +0.000 N 
ATOM      2  C   UNL     1       2.806   4.635  18.848  0.00  0.00    +0.000 A 
ATOM      3  C   UNL     1       2.106   5.255  19.797  0.00  0.00    +0.000 A 
ATOM      4  C   UNL     1       2.181   6.709  19.779  0.00  0.00    +0.000 A 
ATOM      5  N   UNL     1       2.841   7.404  18.918  0.00  0.00    +0.000 NA
ATOM      6  C   UNL     1       3.547   6.734  17.930  0.00  0.00    +0.000 A 
ATOM      7  O   UNL     1       4.122   7.386  17.064  0.00  0.00    +0.000 OA
ATOM      8  C   UNL     1       1.336   4.325  20.657  0.00  0.00    +0.000 C 
ATOM      9  C   UNL     1       1.969   2.978  20.296  0.00  0.00    +0.000 C 
ATOM     10  C   UNL     1       2.611   3.157  18.914  0.00  0.00    +0.000 C 
ENDROOT
BRANCH   1  11
ATOM     11  C   UNL     1       4.238   4.633  16.830  0.00  0.00    +0.000 C 
BRANCH  11  12
ATOM     12  C   UNL     1       5.702   4.273  17.110  0.00  0.00    +0.000 C 
BRANCH  12  13
ATOM     13  C   UNL     1       6.733   5.242  16.518  0.00  0.00    +0.000 C 
BRANCH  13  15
ATOM     14  C   UNL     1       7.542   7.391  17.347  0.00  0.00    +0.000 C 
ATOM     15  N   UNL     1       7.575   5.937  17.507  0.00  0.00    +0.000 NA
ATOM     16  C   UNL     1       7.142   5.582  18.863  0.00  0.00    +0.000 C 
ENDBRANCH  13  15
ENDBRANCH  12  13
ENDBRANCH  11  12
ENDBRANCH   1  11
BRANCH   4  17
ATOM     17  S   UNL     1       1.284   7.512  21.047  0.00  0.00    +0.000 S 
BRANCH  17  18
ATOM     18  C   UNL     1       0.974   9.143  20.314  0.00  0.00    +0.000 C 
BRANCH  18  19
ATOM     19  C   UNL     1       0.500  10.136  21.360  0.00  0.00    +0.000 C 
ATOM     20  O   UNL     1       0.754   9.956  22.548  0.00  0.00    +0.000 OA
ATOM     21  N   UNL     1      -0.242  11.168  20.825  0.00  0.00    +0.000 N 
ATOM     22  C   UNL     1      -0.812  12.125  21.613  0.00  0.00    +0.000 A 
ATOM     23  N   UNL     1      -0.556  12.424  22.861  0.00  0.00    +0.000 NA
ATOM     24  C   UNL     1      -1.417  13.419  23.278  0.00  0.00    +0.000 A 
ATOM     25  C   UNL     1      -2.324  13.851  22.335  0.00  0.00    +0.000 A 
ATOM     26  S   UNL     1      -2.043  13.031  20.854  0.00  0.00    +0.000 S 
ATOM     27  H   UNL     1      -0.565  11.112  19.864  0.00  0.00    +0.000 HD
ENDBRANCH  18  19
ENDBRANCH  17  18
ENDBRANCH   4  17
TORSDOF 7
ENDMDL
MODEL 7
REMARK VINA RESULT:      -6.8      2.951      3.986
REMARK  Name = 
REMARK  9 active torsions:
REMARK  status: ('A' for Active; 'I' for Inactive)
REMARK    1  A    between atoms: C_1  and  N_2
REMARK    2  A    between atoms: N_2  and  C_3
REMARK    3  A    between atoms: N_2  and  C_4
REMARK    4  A    between atoms: C_4  and  C_5
REMARK    5  A    between atoms: C_5  and  C_6
REMARK    6  A    between atoms: C_6  and  N_7
REMARK    7  A    between atoms: C_10  and  S_11
REMARK    8  A    between atoms: S_11  and  C_12
REMARK    9  A    between atoms: C_12  and  C_13
REMARK                            x       y       z     vdW  Elec       q    Type
REMARK                         _______ _______ _______ _____ _____    ______ ____
ROOT
ATOM      1  N   UNL     1       3.911   4.891  19.383  0.00  0.00    +0.000 N 
ATOM      2  C   UNL     1       4.388   5.527  18.264  0.00  0.00    +0.000 A 
ATOM      3  C   UNL     1       3.811   6.625  17.778  0.00  0.00    +0.000 A 
ATOM      4  C   UNL     1       2.647   7.097  18.516  0.00  0.00    +0.000 A 
ATOM      5  N   UNL     1       2.176   6.548  19.583  0.00  0.00    +0.000 NA
ATOM      6  C   UNL     1       2.808   5.417  20.077  0.00  0.00    +0.000 A 
ATOM      7  O   UNL     1       2.411   4.927  21.130  0.00  0.00    +0.000 OA
ATOM      8  C   UNL     1       4.515   7.184  16.600  0.00  0.00    +0.000 C 
ATOM      9  C   UNL     1       5.438   6.023  16.216  0.00  0.00    +0.000 C 
ATOM     10  C   UNL     1       5.604   5.165  17.477  0.00  0.00    +0.000 C 
ENDROOT
BRANCH   1  11
ATOM     11  C   UNL     1       4.613   3.736  19.956  0.00  0.00    +0.000 C 
BRANCH  11  12
ATOM     12  C   UNL     1       3.929   2.381  19.734  0.00  0.00    +0.000 C 
BRANCH  12  13
ATOM     13  C   UNL     1       3.639   2.033  18.269  0.00  0.00    +0.000 C 
BRANCH  13  15
ATOM     14  C   UNL     1       1.321   2.213  19.014  0.00  0.00    +0.000 C 
ATOM     15  N   UNL     1       2.228   2.160  17.866  0.00  0.00    +0.000 NA
ATOM     16  C   UNL     1       2.053   3.364  17.047  0.00  0.00    +0.000 C 
ENDBRANCH  13  15
ENDBRANCH  12  13
ENDBRANCH  11  12
ENDBRANCH   1  11
BRANCH   4  17
ATOM     17  S   UNL     1       1.878   8.520  17.853  0.00  0.00    +0.000 S 
BRANCH  17  18
ATOM     18  C   UNL     1       1.514   9.482  19.347  0.00  0.00    +0.000 C 
BRANCH  18  19
ATOM     19  C   UNL     1       0.124  10.089  19.288  0.00  0.00    +0.000 C 
ATOM     20  O   UNL     1      -0.425  10.487  20.312  0.00  0.00    +0.000 OA
ATOM     21  N   UNL     1      -0.412  10.084  18.017  0.00  0.00    +0.000 N 
ATOM     22  C   UNL     1      -1.680  10.526  17.771  0.00  0.00    +0.000 A 
ATOM     23  N   UNL     1      -2.459  11.253  18.529  0.00  0.00    +0.000 NA
ATOM     24  C   UNL     1      -3.682  11.410  17.909  0.00  0.00    +0.000 A 
ATOM     25  C   UNL     1      -3.812  10.783  16.688  0.00  0.00    +0.000 A 
ATOM     26  S   UNL     1      -2.327  10.029  16.272  0.00  0.00    +0.000 S 
ATOM     27  H   UNL     1       0.038   9.547  17.283  0.00  0.00    +0.000 HD
ENDBRANCH  18  19
ENDBRANCH  17  18
ENDBRANCH   4  17
TORSDOF 7
ENDMDL
MODEL 8
REMARK VINA RESULT:      -6.7      3.387      4.160
REMARK  Name = 
REMARK  9 active torsions:
REMARK  status: ('A' for Active; 'I' for Inactive)
REMARK    1  A    between atoms: C_1  and  N_2
REMARK    2  A    between atoms: N_2  and  C_3
REMARK    3  A    between atoms: N_2  and  C_4
REMARK    4  A    between atoms: C_4  and  C_5
REMARK    5  A    between atoms: C_5  and  C_6
REMARK    6  A    between atoms: C_6  and  N_7
REMARK    7  A    between atoms: C_10  and  S_11
REMARK    8  A    between atoms: S_11  and  C_12
REMARK    9  A    between atoms: C_12  and  C_13
REMARK                            x       y       z     vdW  Elec       q    Type
REMARK                         _______ _______ _______ _____ _____    ______ ____
ROOT
ATOM      1  N   UNL     1       3.629   5.561  18.022  0.00  0.00    +0.000 N 
ATOM      2  C   UNL     1       3.005   4.972  19.094  0.00  0.00    +0.000 A 
ATOM      3  C   UNL     1       2.293   5.679  19.970  0.00  0.00    +0.000 A 
ATOM      4  C   UNL     1       2.223   7.110  19.708  0.00  0.00    +0.000 A 
ATOM      5  N   UNL     1       2.772   7.705  18.704  0.00  0.00    +0.000 NA
ATOM      6  C   UNL     1       3.492   6.941  17.797  0.00  0.00    +0.000 A 
ATOM      7  O   UNL     1       3.960   7.485  16.802  0.00  0.00    +0.000 OA
ATOM      8  C   UNL     1       1.658   4.845  21.018  0.00  0.00    +0.000 C 
ATOM      9  C   UNL     1       2.404   3.518  20.845  0.00  0.00    +0.000 C 
ATOM     10  C   UNL     1       2.960   3.515  19.415  0.00  0.00    +0.000 C 
ENDROOT
BRANCH   1  11
ATOM     11  C   UNL     1       4.334   4.754  17.018  0.00  0.00    +0.000 C 
BRANCH  11  12
ATOM     12  C   UNL     1       5.821   4.512  17.303  0.00  0.00    +0.000 C 
BRANCH  12  13
ATOM     13  C   UNL     1       6.780   5.503  16.632  0.00  0.00    +0.000 C 
BRANCH  13  15
ATOM     14  C   UNL     1       7.561   7.631  17.539  0.00  0.00    +0.000 C 
ATOM     15  N   UNL     1       7.720   6.176  17.545  0.00  0.00    +0.000 NA
ATOM     16  C   UNL     1       7.536   5.668  18.908  0.00  0.00    +0.000 C 
ENDBRANCH  13  15
ENDBRANCH  12  13
ENDBRANCH  11  12
ENDBRANCH   1  11
BRANCH   4  17
ATOM     17  S   UNL     1       1.313   8.035  20.879  0.00  0.00    +0.000 S 
BRANCH  17  18
ATOM     18  C   UNL     1       0.766   9.456  19.894  0.00  0.00    +0.000 C 
BRANCH  18  19
ATOM     19  C   UNL     1       0.915  10.754  20.668  0.00  0.00    +0.000 C 
ATOM     20  O   UNL     1       0.861  10.755  21.896  0.00  0.00    +0.000 OA
ATOM     21  N   UNL     1       1.062  11.855  19.851  0.00  0.00    +0.000 N 
ATOM     22  C   UNL     1       1.144  13.119  20.359  0.00  0.00    +0.000 A 
ATOM     23  N   UNL     1       1.389  13.499  21.586  0.00  0.00    +0.000 NA
ATOM     24  C   UNL     1       1.314  14.875  21.662  0.00  0.00    +0.000 A 
ATOM     25  C   UNL     1       1.001  15.517  20.484  0.00  0.00    +0.000 A 
ATOM     26  S   UNL     1       0.862  14.361  19.222  0.00  0.00    +0.000 S 
ATOM     27  H   UNL     1       0.888  11.770  18.855  0.00  0.00    +0.000 HD
ENDBRANCH  18  19
ENDBRANCH  17  18
ENDBRANCH   4  17
TORSDOF 7
ENDMDL
MODEL 9
REMARK VINA RESULT:      -6.7      1.969      2.284
REMARK  Name = 
REMARK  9 active torsions:
REMARK  status: ('A' for Active; 'I' for Inactive)
REMARK    1  A    between atoms: C_1  and  N_2
REMARK    2  A    between atoms: N_2  and  C_3
REMARK    3  A    between atoms: N_2  and  C_4
REMARK    4  A    between atoms: C_4  and  C_5
REMARK    5  A    between atoms: C_5  and  C_6
REMARK    6  A    between atoms: C_6  and  N_7
REMARK    7  A    between atoms: C_10  and  S_11
REMARK    8  A    between atoms: S_11  and  C_12
REMARK    9  A    between atoms: C_12  and  C_13
REMARK                            x       y       z     vdW  Elec       q    Type
REMARK                         _______ _______ _______ _____ _____    ______ ____
ROOT
ATOM      1  N   UNL     1       4.838   5.011  16.683  0.00  0.00    +0.000 N 
ATOM      2  C   UNL     1       3.690   4.518  17.252  0.00  0.00    +0.000 A 
ATOM      3  C   UNL     1       2.866   5.292  17.958  0.00  0.00    +0.000 A 
ATOM      4  C   UNL     1       3.270   6.687  18.079  0.00  0.00    +0.000 A 
ATOM      5  N   UNL     1       4.325   7.199  17.544  0.00  0.00    +0.000 NA
ATOM      6  C   UNL     1       5.155   6.375  16.800  0.00  0.00    +0.000 A 
ATOM      7  O   UNL     1       6.123   6.866  16.229  0.00  0.00    +0.000 OA
ATOM      8  C   UNL     1       1.659   4.578  18.437  0.00  0.00    +0.000 C 
ATOM      9  C   UNL     1       2.056   3.117  18.205  0.00  0.00    +0.000 C 
ATOM     10  C   UNL     1       3.155   3.130  17.135  0.00  0.00    +0.000 C 
ENDROOT
BRANCH   1  11
ATOM     11  C   UNL     1       5.686   4.165  15.835  0.00  0.00    +0.000 C 
BRANCH  11  12
ATOM     12  C   UNL     1       5.402   4.255  14.330  0.00  0.00    +0.000 C 
BRANCH  12  13
ATOM     13  C   UNL     1       6.544   3.782  13.424  0.00  0.00    +0.000 C 
BRANCH  13  15
ATOM     14  C   UNL     1       6.905   2.395  11.448  0.00  0.00    +0.000 C 
ATOM     15  N   UNL     1       6.162   3.516  12.026  0.00  0.00    +0.000 NA
ATOM     16  C   UNL     1       4.723   3.242  11.950  0.00  0.00    +0.000 C 
ENDBRANCH  13  15
ENDBRANCH  12  13
ENDBRANCH  11  12
ENDBRANCH   1  11
BRANCH   4  17
ATOM     17  S   UNL     1       2.200   7.687  19.033  0.00  0.00    +0.000 S 
BRANCH  17  18
ATOM     18  C   UNL     1       1.519   8.810  17.781  0.00  0.00    +0.000 C 
BRANCH  18  19
ATOM     19  C   UNL     1       1.651  10.260  18.212  0.00  0.00    +0.000 C 
ATOM     20  O   UNL     1       2.491  10.990  17.692  0.00  0.00    +0.000 OA
ATOM     21  N   UNL     1       0.785  10.600  19.230  0.00  0.00    +0.000 N 
ATOM     22  C   UNL     1       0.798  11.841  19.799  0.00  0.00    +0.000 A 
ATOM     23  N   UNL     1       1.344  12.944  19.356  0.00  0.00    +0.000 NA
ATOM     24  C   UNL     1       1.166  13.947  20.287  0.00  0.00    +0.000 A 
ATOM     25  C   UNL     1       0.494  13.580  21.433  0.00  0.00    +0.000 A 
ATOM     26  S   UNL     1       0.008  11.938  21.309  0.00  0.00    +0.000 S 
ATOM     27  H   UNL     1       0.279   9.873  19.726  0.00  0.00    +0.000 HD
ENDBRANCH  18  19
ENDBRANCH  17  18
ENDBRANCH   4  17
TORSDOF 7
ENDMDL
