MODEL 1
REMARK VINA RESULT:      -7.9      0.000      0.000
REMARK  Name = 
REMARK  7 active torsions:
REMARK  status: ('A' for Active; 'I' for Inactive)
REMARK    1  A    between atoms: C_1  and  N_2
REMARK    2  A    between atoms: N_2  and  C_3
REMARK    3  A    between atoms: N_2  and  S_4
REMARK    4  A    between atoms: S_4  and  C_7
REMARK    5  A    between atoms: C_9  and  C_10
REMARK    6  A    between atoms: C_10  and  O_12
REMARK    7  A    between atoms: C_13  and  O_14
REMARK                            x       y       z     vdW  Elec       q    Type
REMARK                         _______ _______ _______ _____ _____    ______ ____
ROOT
ATOM      1  C   UNL     1       4.190   3.936  18.035  0.00  0.00    +0.000 A 
ATOM      2  C   UNL     1       5.093   3.717  16.980  0.00  0.00    +0.000 A 
ATOM      3  C   UNL     1       5.462   4.760  16.136  0.00  0.00    +0.000 A 
ATOM      4  C   UNL     1       4.908   6.026  16.338  0.00  0.00    +0.000 A 
ATOM      5  C   UNL     1       3.986   6.278  17.379  0.00  0.00    +0.000 A 
ATOM      6  C   UNL     1       3.447   7.570  17.568  0.00  0.00    +0.000 A 
ATOM      7  C   UNL     1       2.563   7.855  18.606  0.00  0.00    +0.000 A 
ATOM      8  C   UNL     1       2.198   6.848  19.480  0.00  0.00    +0.000 A 
ATOM      9  C   UNL     1       2.712   5.562  19.309  0.00  0.00    +0.000 A 
ATOM     10  C   UNL     1       3.612   5.223  18.262  0.00  0.00    +0.000 A 
ENDROOT
BRANCH   1  11
ATOM     11  S   UNL     1       3.824   2.487  19.038  0.00  0.00    +0.000 S 
ATOM     12  O   UNL     1       4.706   2.535  20.186  0.00  0.00    +0.000 OA
ATOM     13  O   UNL     1       3.803   1.311  18.198  0.00  0.00    +0.000 OA
BRANCH  11  15
ATOM     14  C   UNL     1       1.142   2.339  18.710  0.00  0.00    +0.000 C 
ATOM     15  N   UNL     1       2.240   2.798  19.579  0.00  0.00    +0.000 NA
ATOM     16  C   UNL     1       1.969   2.604  21.015  0.00  0.00    +0.000 C 
ENDBRANCH  11  15
ENDBRANCH   1  11
BRANCH   3  17
ATOM     17  C   UNL     1       6.474   4.469  15.097  0.00  0.00    +0.000 C 
ATOM     18  O   UNL     1       7.457   5.171  14.926  0.00  0.00    +0.000 OA
BRANCH  17  19
ATOM     19  O   UNL     1       6.207   3.370  14.359  0.00  0.00    +0.000 OA
ATOM     20  H   UNL     1       6.930   2.703  14.363  0.00  0.00    +0.000 HD
ENDBRANCH  17  19
ENDBRANCH   3  17
BRANCH   4  21
ATOM     21  O   UNL     1       5.267   7.058  15.502  0.00  0.00    +0.000 OA
ATOM     22  H   UNL     1       4.851   7.872  15.852  0.00  0.00    +0.000 HD
ENDBRANCH   4  21
TORSDOF 5
ENDMDL
MODEL 2
REMARK VINA RESULT:      -7.9      0.949      1.241
REMARK  Name = 
REMARK  7 active torsions:
REMARK  status: ('A' for Active; 'I' for Inactive)
REMARK    1  A    between atoms: C_1  and  N_2
REMARK    2  A    between atoms: N_2  and  C_3
REMARK    3  A    between atoms: N_2  and  S_4
REMARK    4  A    between atoms: S_4  and  C_7
REMARK    5  A    between atoms: C_9  and  C_10
REMARK    6  A    between atoms: C_10  and  O_12
REMARK    7  A    between atoms: C_13  and  O_14
REMARK                            x       y       z     vdW  Elec       q    Type
REMARK                         _______ _______ _______ _____ _____    ______ ____
ROOT
ATOM      1  C   UNL     1       3.649   3.914  17.609  0.00  0.00    +0.000 A 
ATOM      2  C   UNL     1       4.698   3.634  16.717  0.00  0.00    +0.000 A 
ATOM      3  C   UNL     1       5.396   4.667  16.098  0.00  0.00    +0.000 A 
ATOM      4  C   UNL     1       5.027   5.989  16.360  0.00  0.00    +0.000 A 
ATOM      5  C   UNL     1       3.968   6.306  17.240  0.00  0.00    +0.000 A 
ATOM      6  C   UNL     1       3.621   7.651  17.497  0.00  0.00    +0.000 A 
ATOM      7  C   UNL     1       2.605   7.994  18.386  0.00  0.00    +0.000 A 
ATOM      8  C   UNL     1       1.911   6.992  19.039  0.00  0.00    +0.000 A 
ATOM      9  C   UNL     1       2.231   5.656  18.797  0.00  0.00    +0.000 A 
ATOM     10  C   UNL     1       3.256   5.259  17.895  0.00  0.00    +0.000 A 
ENDROOT
BRANCH   1  11
ATOM     11  S   UNL     1       2.856   2.469  18.331  0.00  0.00    +0.000 S 
ATOM     12  O   UNL     1       3.639   1.316  17.937  0.00  0.00    +0.000 OA
ATOM     13  O   UNL     1       1.438   2.504  18.047  0.00  0.00    +0.000 OA
BRANCH  11  15
ATOM     14  C   UNL     1       1.900   2.531  20.863  0.00  0.00    +0.000 C 
ATOM     15  N   UNL     1       3.082   2.713  20.001  0.00  0.00    +0.000 NA
ATOM     16  C   UNL     1       4.325   2.190  20.595  0.00  0.00    +0.000 C 
ENDBRANCH  11  15
ENDBRANCH   1  11
BRANCH   3  17
ATOM     17  C   UNL     1       6.535   4.296  15.230  0.00  0.00    +0.000 C 
ATOM     18  O   UNL     1       7.642   4.789  15.358  0.00  0.00    +0.000 OA
BRANCH  17  19
ATOM     19  O   UNL     1       6.234   3.374  14.290  0.00  0.00    +0.000 OA
ATOM     20  H   UNL     1       5.398   3.557  13.806  0.00  0.00    +0.000 HD
ENDBRANCH  17  19
ENDBRANCH   3  17
BRANCH   4  21
ATOM     21  O   UNL     1       5.711   7.012  15.746  0.00  0.00    +0.000 OA
ATOM     22  H   UNL     1       5.482   7.838  16.218  0.00  0.00    +0.000 HD
ENDBRANCH   4  21
TORSDOF 5
ENDMDL
MODEL 3
REMARK VINA RESULT:      -7.7      1.298      1.645
REMARK  Name = 
REMARK  7 active torsions:
REMARK  status: ('A' for Active; 'I' for Inactive)
REMARK    1  A    between atoms: C_1  and  N_2
REMARK    2  A    between atoms: N_2  and  C_3
REMARK    3  A    between atoms: N_2  and  S_4
REMARK    4  A    between atoms: S_4  and  C_7
REMARK    5  A    between atoms: C_9  and  C_10
REMARK    6  A    between atoms: C_10  and  O_12
REMARK    7  A    between atoms: C_13  and  O_14
REMARK                            x       y       z     vdW  Elec       q    Type
REMARK                         _______ _______ _______ _____ _____    ______ ____
ROOT
ATOM      1  C   UNL     1       4.243   4.363  18.895  0.00  0.00    +0.000 A 
ATOM      2  C   UNL     1       5.448   4.038  18.247  0.00  0.00    +0.000 A 
ATOM      3  C   UNL     1       6.046   4.937  17.370  0.00  0.00    +0.000 A 
ATOM      4  C   UNL     1       5.423   6.163  17.125  0.00  0.00    +0.000 A 
ATOM      5  C   UNL     1       4.204   6.517  17.747  0.00  0.00    +0.000 A 
ATOM      6  C   UNL     1       3.600   7.768  17.491  0.00  0.00    +0.000 A 
ATOM      7  C   UNL     1       2.417   8.157  18.116  0.00  0.00    +0.000 A 
ATOM      8  C   UNL     1       1.812   7.298  19.014  0.00  0.00    +0.000 A 
ATOM      9  C   UNL     1       2.387   6.054  19.279  0.00  0.00    +0.000 A 
ATOM     10  C   UNL     1       3.589   5.613  18.662  0.00  0.00    +0.000 A 
ENDROOT
BRANCH   1  11
ATOM     11  S   UNL     1       3.606   3.096  20.003  0.00  0.00    +0.000 S 
ATOM     12  O   UNL     1       2.960   3.782  21.103  0.00  0.00    +0.000 OA
ATOM     13  O   UNL     1       4.644   2.126  20.273  0.00  0.00    +0.000 OA
BRANCH  11  15
ATOM     14  C   UNL     1       1.001   2.705  19.381  0.00  0.00    +0.000 C 
ATOM     15  N   UNL     1       2.396   2.351  19.063  0.00  0.00    +0.000 NA
ATOM     16  C   UNL     1       2.653   2.220  17.618  0.00  0.00    +0.000 C 
ENDBRANCH  11  15
ENDBRANCH   1  11
BRANCH   3  17
ATOM     17  C   UNL     1       7.349   4.554  16.786  0.00  0.00    +0.000 C 
ATOM     18  O   UNL     1       7.602   4.694  15.601  0.00  0.00    +0.000 OA
BRANCH  17  19
ATOM     19  O   UNL     1       8.222   4.036  17.677  0.00  0.00    +0.000 OA
ATOM     20  H   UNL     1       9.150   4.000  17.350  0.00  0.00    +0.000 HD
ENDBRANCH  17  19
ENDBRANCH   3  17
BRANCH   4  21
ATOM     21  O   UNL     1       6.009   7.053  16.255  0.00  0.00    +0.000 OA
ATOM     22  H   UNL     1       6.178   7.878  16.754  0.00  0.00    +0.000 HD
ENDBRANCH   4  21
TORSDOF 5
ENDMDL
MODEL 4
REMARK VINA RESULT:      -7.6      1.427      1.669
REMARK  Name = 
REMARK  7 active torsions:
REMARK  status: ('A' for Active; 'I' for Inactive)
REMARK    1  A    between atoms: C_1  and  N_2
REMARK    2  A    between atoms: N_2  and  C_3
REMARK    3  A    between atoms: N_2  and  S_4
REMARK    4  A    between atoms: S_4  and  C_7
REMARK    5  A    between atoms: C_9  and  C_10
REMARK    6  A    between atoms: C_10  and  O_12
REMARK    7  A    between atoms: C_13  and  O_14
REMARK                            x       y       z     vdW  Elec       q    Type
REMARK                         _______ _______ _______ _____ _____    ______ ____
ROOT
ATOM      1  C   UNL     1       3.737   4.325  17.874  0.00  0.00    +0.000 A 
ATOM      2  C   UNL     1       5.046   3.983  17.493  0.00  0.00    +0.000 A 
ATOM      3  C   UNL     1       5.952   4.966  17.107  0.00  0.00    +0.000 A 
ATOM      4  C   UNL     1       5.537   6.300  17.083  0.00  0.00    +0.000 A 
ATOM      5  C   UNL     1       4.225   6.678  17.445  0.00  0.00    +0.000 A 
ATOM      6  C   UNL     1       3.833   8.036  17.423  0.00  0.00    +0.000 A 
ATOM      7  C   UNL     1       2.557   8.441  17.807  0.00  0.00    +0.000 A 
ATOM      8  C   UNL     1       1.642   7.492  18.223  0.00  0.00    +0.000 A 
ATOM      9  C   UNL     1       2.003   6.144  18.247  0.00  0.00    +0.000 A 
ATOM     10  C   UNL     1       3.291   5.684  17.860  0.00  0.00    +0.000 A 
ENDROOT
BRANCH   1  11
ATOM     11  S   UNL     1       2.695   2.939  18.354  0.00  0.00    +0.000 S 
ATOM     12  O   UNL     1       3.495   1.740  18.212  0.00  0.00    +0.000 OA
ATOM     13  O   UNL     1       1.421   3.036  17.676  0.00  0.00    +0.000 OA
BRANCH  11  15
ATOM     14  C   UNL     1       1.050   3.269  20.478  0.00  0.00    +0.000 C 
ATOM     15  N   UNL     1       2.449   3.214  20.016  0.00  0.00    +0.000 NA
ATOM     16  C   UNL     1       3.348   2.518  20.953  0.00  0.00    +0.000 C 
ENDBRANCH  11  15
ENDBRANCH   1  11
BRANCH   3  17
ATOM     17  C   UNL     1       7.332   4.536  16.793  0.00  0.00    +0.000 C 
ATOM     18  O   UNL     1       7.811   4.636  15.676  0.00  0.00    +0.000 OA
BRANCH  17  19
ATOM     19  O   UNL     1       8.002   4.022  17.847  0.00  0.00    +0.000 OA
ATOM     20  H   UNL     1       7.739   3.102  18.076  0.00  0.00    +0.000 HD
ENDBRANCH  17  19
ENDBRANCH   3  17
BRANCH   4  21
ATOM     21  O   UNL     1       6.429   7.274  16.697  0.00  0.00    +0.000 OA
ATOM     22  H   UNL     1       7.067   7.389  17.430  0.00  0.00    +0.000 HD
ENDBRANCH   4  21
TORSDOF 5
ENDMDL
MODEL 5
REMARK VINA RESULT:      -7.5      2.322      4.863
REMARK  Name = 
REMARK  7 active torsions:
REMARK  status: ('A' for Active; 'I' for Inactive)
REMARK    1  A    between atoms: C_1  and  N_2
REMARK    2  A    between atoms: N_2  and  C_3
REMARK    3  A    between atoms: N_2  and  S_4
REMARK    4  A    between atoms: S_4  and  C_7
REMARK    5  A    between atoms: C_9  and  C_10
REMARK    6  A    between atoms: C_10  and  O_12
REMARK    7  A    between atoms: C_13  and  O_14
REMARK                            x       y       z     vdW  Elec       q    Type
REMARK                         _______ _______ _______ _____ _____    ______ ____
ROOT
ATOM      1  C   UNL     1       4.541   5.324  17.654  0.00  0.00    +0.000 A 
ATOM      2  C   UNL     1       4.646   4.143  18.410  0.00  0.00    +0.000 A 
ATOM      3  C   UNL     1       3.911   3.983  19.580  0.00  0.00    +0.000 A 
ATOM      4  C   UNL     1       3.079   5.021  20.007  0.00  0.00    +0.000 A 
ATOM      5  C   UNL     1       2.960   6.227  19.280  0.00  0.00    +0.000 A 
ATOM      6  C   UNL     1       2.103   7.258  19.727  0.00  0.00    +0.000 A 
ATOM      7  C   UNL     1       1.940   8.443  19.013  0.00  0.00    +0.000 A 
ATOM      8  C   UNL     1       2.635   8.622  17.832  0.00  0.00    +0.000 A 
ATOM      9  C   UNL     1       3.492   7.621  17.373  0.00  0.00    +0.000 A 
ATOM     10  C   UNL     1       3.694   6.398  18.070  0.00  0.00    +0.000 A 
ENDROOT
BRANCH   1  11
ATOM     11  S   UNL     1       5.550   5.369  16.165  0.00  0.00    +0.000 S 
ATOM     12  O   UNL     1       5.143   6.539  15.414  0.00  0.00    +0.000 OA
ATOM     13  O   UNL     1       5.533   4.069  15.532  0.00  0.00    +0.000 OA
BRANCH  11  15
ATOM     14  C   UNL     1       7.344   6.966  17.411  0.00  0.00    +0.000 C 
ATOM     15  N   UNL     1       7.112   5.655  16.780  0.00  0.00    +0.000 NA
ATOM     16  C   UNL     1       7.771   4.541  17.483  0.00  0.00    +0.000 C 
ENDBRANCH  11  15
ENDBRANCH   1  11
BRANCH   3  17
ATOM     17  C   UNL     1       4.017   2.684  20.280  0.00  0.00    +0.000 C 
ATOM     18  O   UNL     1       3.213   2.327  21.123  0.00  0.00    +0.000 OA
BRANCH  17  19
ATOM     19  O   UNL     1       5.081   1.942  19.905  0.00  0.00    +0.000 OA
ATOM     20  H   UNL     1       5.050   1.647  18.967  0.00  0.00    +0.000 HD
ENDBRANCH  17  19
ENDBRANCH   3  17
BRANCH   4  21
ATOM     21  O   UNL     1       2.354   4.868  21.167  0.00  0.00    +0.000 OA
ATOM     22  H   UNL     1       2.992   4.871  21.909  0.00  0.00    +0.000 HD
ENDBRANCH   4  21
TORSDOF 5
ENDMDL
MODEL 6
REMARK VINA RESULT:      -7.4      2.324      4.695
REMARK  Name = 
REMARK  7 active torsions:
REMARK  status: ('A' for Active; 'I' for Inactive)
REMARK    1  A    between atoms: C_1  and  N_2
REMARK    2  A    between atoms: N_2  and  C_3
REMARK    3  A    between atoms: N_2  and  S_4
REMARK    4  A    between atoms: S_4  and  C_7
REMARK    5  A    between atoms: C_9  and  C_10
REMARK    6  A    between atoms: C_10  and  O_12
REMARK    7  A    between atoms: C_13  and  O_14
REMARK                            x       y       z     vdW  Elec       q    Type
REMARK                         _______ _______ _______ _____ _____    ______ ____
ROOT
ATOM      1  C   UNL     1       4.585   4.894  16.945  0.00  0.00    +0.000 A 
ATOM      2  C   UNL     1       4.342   3.551  17.279  0.00  0.00    +0.000 A 
ATOM      3  C   UNL     1       3.328   3.216  18.172  0.00  0.00    +0.000 A 
ATOM      4  C   UNL     1       2.565   4.235  18.748  0.00  0.00    +0.000 A 
ATOM      5  C   UNL     1       2.792   5.596  18.445  0.00  0.00    +0.000 A 
ATOM      6  C   UNL     1       2.000   6.608  19.033  0.00  0.00    +0.000 A 
ATOM      7  C   UNL     1       2.179   7.955  18.727  0.00  0.00    +0.000 A 
ATOM      8  C   UNL     1       3.159   8.319  17.823  0.00  0.00    +0.000 A 
ATOM      9  C   UNL     1       3.958   7.339  17.234  0.00  0.00    +0.000 A 
ATOM     10  C   UNL     1       3.816   5.953  17.519  0.00  0.00    +0.000 A 
ENDROOT
BRANCH   1  11
ATOM     11  S   UNL     1       5.924   5.157  15.772  0.00  0.00    +0.000 S 
ATOM     12  O   UNL     1       5.578   6.327  14.991  0.00  0.00    +0.000 OA
ATOM     13  O   UNL     1       6.230   3.913  15.102  0.00  0.00    +0.000 OA
BRANCH  11  15
ATOM     14  C   UNL     1       7.294   6.964  17.250  0.00  0.00    +0.000 C 
ATOM     15  N   UNL     1       7.232   5.568  16.782  0.00  0.00    +0.000 NA
ATOM     16  C   UNL     1       7.618   4.588  17.813  0.00  0.00    +0.000 C 
ENDBRANCH  11  15
ENDBRANCH   1  11
BRANCH   3  17
ATOM     17  C   UNL     1       3.083   1.777  18.416  0.00  0.00    +0.000 C 
ATOM     18  O   UNL     1       3.990   0.971  18.541  0.00  0.00    +0.000 OA
BRANCH  17  19
ATOM     19  O   UNL     1       1.776   1.444  18.482  0.00  0.00    +0.000 OA
ATOM     20  H   UNL     1       1.571   0.771  19.170  0.00  0.00    +0.000 HD
ENDBRANCH  17  19
ENDBRANCH   3  17
BRANCH   4  21
ATOM     21  O   UNL     1       1.565   3.907  19.634  0.00  0.00    +0.000 OA
ATOM     22  H   UNL     1       1.402   4.696  20.190  0.00  0.00    +0.000 HD
ENDBRANCH   4  21
TORSDOF 5
ENDMDL
MODEL 7
REMARK VINA RESULT:      -7.3      2.516      4.890
REMARK  Name = 
REMARK  7 active torsions:
REMARK  status: ('A' for Active; 'I' for Inactive)
REMARK    1  A    between atoms: C_1  and  N_2
REMARK    2  A    between atoms: N_2  and  C_3
REMARK    3  A    between atoms: N_2  and  S_4
REMARK    4  A    between atoms: S_4  and  C_7
REMARK    5  A    between atoms: C_9  and  C_10
REMARK    6  A    between atoms: C_10  and  O_12
REMARK    7  A    between atoms: C_13  and  O_14
REMARK                            x       y       z     vdW  Elec       q    Type
REMARK                         _______ _______ _______ _____ _____    ______ ____
ROOT
ATOM      1  C   UNL     1       5.202   5.191  17.821  0.00  0.00    +0.000 A 
ATOM      2  C   UNL     1       5.275   3.942  18.461  0.00  0.00    +0.000 A 
ATOM      3  C   UNL     1       4.316   3.570  19.399  0.00  0.00    +0.000 A 
ATOM      4  C   UNL     1       3.289   4.463  19.711  0.00  0.00    +0.000 A 
ATOM      5  C   UNL     1       3.194   5.732  19.097  0.00  0.00    +0.000 A 
ATOM      6  C   UNL     1       2.139   6.614  19.423  0.00  0.00    +0.000 A 
ATOM      7  C   UNL     1       2.001   7.857  18.809  0.00  0.00    +0.000 A 
ATOM      8  C   UNL     1       2.920   8.245  17.853  0.00  0.00    +0.000 A 
ATOM      9  C   UNL     1       3.975   7.394  17.519  0.00  0.00    +0.000 A 
ATOM     10  C   UNL     1       4.159   6.120  18.122  0.00  0.00    +0.000 A 
ENDROOT
BRANCH   1  11
ATOM     11  S   UNL     1       6.512   5.514  16.629  0.00  0.00    +0.000 S 
ATOM     12  O   UNL     1       5.950   6.371  15.606  0.00  0.00    +0.000 OA
ATOM     13  O   UNL     1       7.142   4.268  16.255  0.00  0.00    +0.000 OA
BRANCH  11  15
ATOM     14  C   UNL     1       7.563   7.897  17.365  0.00  0.00    +0.000 C 
ATOM     15  N   UNL     1       7.622   6.435  17.535  0.00  0.00    +0.000 NA
ATOM     16  C   UNL     1       7.864   6.017  18.927  0.00  0.00    +0.000 C 
ENDBRANCH  11  15
ENDBRANCH   1  11
BRANCH   3  17
ATOM     17  C   UNL     1       4.417   2.211  19.974  0.00  0.00    +0.000 C 
ATOM     18  O   UNL     1       4.464   2.011  21.176  0.00  0.00    +0.000 OA
BRANCH  17  19
ATOM     19  O   UNL     1       4.459   1.224  19.053  0.00  0.00    +0.000 OA
ATOM     20  H   UNL     1       3.585   1.018  18.650  0.00  0.00    +0.000 HD
ENDBRANCH  17  19
ENDBRANCH   3  17
BRANCH   4  21
ATOM     21  O   UNL     1       2.342   4.101  20.641  0.00  0.00    +0.000 OA
ATOM     22  H   UNL     1       2.660   4.411  21.513  0.00  0.00    +0.000 HD
ENDBRANCH   4  21
TORSDOF 5
ENDMDL
MODEL 8
REMARK VINA RESULT:      -7.3      2.989      5.498
REMARK  Name = 
REMARK  7 active torsions:
REMARK  status: ('A' for Active; 'I' for Inactive)
REMARK    1  A    between atoms: C_1  and  N_2
REMARK    2  A    between atoms: N_2  and  C_3
REMARK    3  A    between atoms: N_2  and  S_4
REMARK    4  A    between atoms: S_4  and  C_7
REMARK    5  A    between atoms: C_9  and  C_10
REMARK    6  A    between atoms: C_10  and  O_12
REMARK    7  A    between atoms: C_13  and  O_14
REMARK                            x       y       z     vdW  Elec       q    Type
REMARK                         _______ _______ _______ _____ _____    ______ ____
ROOT
ATOM      1  C   UNL     1       3.894   6.086  17.837  0.00  0.00    +0.000 A 
ATOM      2  C   UNL     1       3.299   7.358  17.763  0.00  0.00    +0.000 A 
ATOM      3  C   UNL     1       2.358   7.756  18.707  0.00  0.00    +0.000 A 
ATOM      4  C   UNL     1       1.996   6.867  19.722  0.00  0.00    +0.000 A 
ATOM      5  C   UNL     1       2.563   5.576  19.818  0.00  0.00    +0.000 A 
ATOM      6  C   UNL     1       2.187   4.699  20.861  0.00  0.00    +0.000 A 
ATOM      7  C   UNL     1       2.754   3.434  21.000  0.00  0.00    +0.000 A 
ATOM      8  C   UNL     1       3.712   3.019  20.095  0.00  0.00    +0.000 A 
ATOM      9  C   UNL     1       4.095   3.865  19.053  0.00  0.00    +0.000 A 
ATOM     10  C   UNL     1       3.541   5.161  18.868  0.00  0.00    +0.000 A 
ENDROOT
BRANCH   1  11
ATOM     11  S   UNL     1       5.096   5.730  16.546  0.00  0.00    +0.000 S 
ATOM     12  O   UNL     1       5.090   6.859  15.640  0.00  0.00    +0.000 OA
ATOM     13  O   UNL     1       4.872   4.397  16.033  0.00  0.00    +0.000 OA
BRANCH  11  15
ATOM     14  C   UNL     1       7.430   4.555  17.253  0.00  0.00    +0.000 C 
ATOM     15  N   UNL     1       6.572   5.745  17.396  0.00  0.00    +0.000 NA
ATOM     16  C   UNL     1       7.326   7.011  17.412  0.00  0.00    +0.000 C 
ENDBRANCH  11  15
ENDBRANCH   1  11
BRANCH   3  17
ATOM     17  C   UNL     1       1.833   9.135  18.607  0.00  0.00    +0.000 C 
ATOM     18  O   UNL     1       1.301   9.703  19.545  0.00  0.00    +0.000 OA
BRANCH  17  19
ATOM     19  O   UNL     1       1.992   9.698  17.389  0.00  0.00    +0.000 OA
ATOM     20  H   UNL     1       1.614   9.166  16.653  0.00  0.00    +0.000 HD
ENDBRANCH  17  19
ENDBRANCH   3  17
BRANCH   4  21
ATOM     21  O   UNL     1       1.062   7.256  20.655  0.00  0.00    +0.000 OA
ATOM     22  H   UNL     1       1.405   8.064  21.088  0.00  0.00    +0.000 HD
ENDBRANCH   4  21
TORSDOF 5
ENDMDL
MODEL 9
REMARK VINA RESULT:      -7.3      1.932      4.014
REMARK  Name = 
REMARK  7 active torsions:
REMARK  status: ('A' for Active; 'I' for Inactive)
REMARK    1  A    between atoms: C_1  and  N_2
REMARK    2  A    between atoms: N_2  and  C_3
REMARK    3  A    between atoms: N_2  and  S_4
REMARK    4  A    between atoms: S_4  and  C_7
REMARK    5  A    between atoms: C_9  and  C_10
REMARK    6  A    between atoms: C_10  and  O_12
REMARK    7  A    between atoms: C_13  and  O_14
REMARK                            x       y       z     vdW  Elec       q    Type
REMARK                         _______ _______ _______ _____ _____    ______ ____
ROOT
ATOM      1  C   UNL     1       3.685   4.335  18.508  0.00  0.00    +0.000 A 
ATOM      2  C   UNL     1       2.977   5.332  19.202  0.00  0.00    +0.000 A 
ATOM      3  C   UNL     1       2.976   6.647  18.749  0.00  0.00    +0.000 A 
ATOM      4  C   UNL     1       3.706   6.970  17.602  0.00  0.00    +0.000 A 
ATOM      5  C   UNL     1       4.440   5.997  16.887  0.00  0.00    +0.000 A 
ATOM      6  C   UNL     1       5.161   6.348  15.724  0.00  0.00    +0.000 A 
ATOM      7  C   UNL     1       5.866   5.404  14.981  0.00  0.00    +0.000 A 
ATOM      8  C   UNL     1       5.864   4.083  15.389  0.00  0.00    +0.000 A 
ATOM      9  C   UNL     1       5.164   3.713  16.538  0.00  0.00    +0.000 A 
ATOM     10  C   UNL     1       4.436   4.642  17.331  0.00  0.00    +0.000 A 
ENDROOT
BRANCH   1  11
ATOM     11  S   UNL     1       3.577   2.686  19.220  0.00  0.00    +0.000 S 
ATOM     12  O   UNL     1       4.761   2.498  20.031  0.00  0.00    +0.000 OA
ATOM     13  O   UNL     1       3.260   1.732  18.180  0.00  0.00    +0.000 OA
BRANCH  11  15
ATOM     14  C   UNL     1       0.949   2.315  19.754  0.00  0.00    +0.000 C 
ATOM     15  N   UNL     1       2.238   2.817  20.264  0.00  0.00    +0.000 NA
ATOM     16  C   UNL     1       2.463   2.509  21.687  0.00  0.00    +0.000 C 
ENDBRANCH  11  15
ENDBRANCH   1  11
BRANCH   3  17
ATOM     17  C   UNL     1       2.148   7.623  19.489  0.00  0.00    +0.000 C 
ATOM     18  O   UNL     1       1.696   8.628  18.967  0.00  0.00    +0.000 OA
BRANCH  17  19
ATOM     19  O   UNL     1       1.946   7.303  20.786  0.00  0.00    +0.000 OA
ATOM     20  H   UNL     1       1.722   8.074  21.356  0.00  0.00    +0.000 HD
ENDBRANCH  17  19
ENDBRANCH   3  17
BRANCH   4  21
ATOM     21  O   UNL     1       3.711   8.271  17.153  0.00  0.00    +0.000 OA
ATOM     22  H   UNL     1       3.988   8.835  17.904  0.00  0.00    +0.000 HD
ENDBRANCH   4  21
TORSDOF 5
ENDMDL
