MODEL 1
REMARK VINA RESULT:      -8.7      0.000      0.000
REMARK  Name = 
REMARK  7 active torsions:
REMARK  status: ('A' for Active; 'I' for Inactive)
REMARK    1  A    between atoms: C_1  and  O_2
REMARK    2  A    between atoms: O_2  and  C_3
REMARK    3  A    between atoms: C_3  and  C_4
REMARK    4  A    between atoms: C_4  and  N_5
REMARK    5  A    between atoms: N_5  and  C_6
REMARK    6  A    between atoms: C_6  and  C_7
REMARK    7  A    between atoms: C_10  and  C_11
REMARK                            x       y       z     vdW  Elec       q    Type
REMARK                         _______ _______ _______ _____ _____    ______ ____
ROOT
ATOM      1  N   UNL     1       6.478   5.581  17.606  0.00  0.00    +0.000 N 
ATOM      2  C   UNL     1       5.424   5.088  18.375  0.00  0.00    +0.000 C 
ATOM      3  O   UNL     1       4.516   5.824  18.754  0.00  0.00    +0.000 OA
ATOM      4  N   UNL     1       5.504   3.748  18.671  0.00  0.00    +0.000 N 
ATOM      5  C   UNL     1       4.628   3.182  19.579  0.00  0.00    +0.000 A 
ATOM      6  N   UNL     1       5.028   2.360  20.529  0.00  0.00    +0.000 NA
ATOM      7  N   UNL     1       3.948   2.044  21.317  0.00  0.00    +0.000 NA
ATOM      8  C   UNL     1       2.888   2.603  20.781  0.00  0.00    +0.000 A 
ATOM      9  C   UNL     1       1.509   2.564  21.132  0.00  0.00    +0.000 A 
ATOM     10  C   UNL     1       0.598   3.114  20.308  0.00  0.00    +0.000 A 
ATOM     11  C   UNL     1       0.992   3.764  19.066  0.00  0.00    +0.000 A 
ATOM     12  C   UNL     1       2.300   3.855  18.764  0.00  0.00    +0.000 A 
ATOM     13  N   UNL     1       3.247   3.296  19.627  0.00  0.00    +0.000 N 
ATOM     14  H   UNL     1       6.450   3.403  18.805  0.00  0.00    +0.000 HD
ENDROOT
BRANCH   1  15
ATOM     15  C   UNL     1       6.565   7.032  17.411  0.00  0.00    +0.000 C 
BRANCH  15  16
ATOM     16  C   UNL     1       7.851   7.641  17.978  0.00  0.00    +0.000 C 
BRANCH  16  18
ATOM     17  C   UNL     1       8.852   9.705  18.535  0.00  0.00    +0.000 C 
ATOM     18  O   UNL     1       7.833   9.057  17.782  0.00  0.00    +0.000 OA
ENDBRANCH  16  18
ENDBRANCH  15  16
ENDBRANCH   1  15
BRANCH   1  19
ATOM     19  C   UNL     1       7.447   4.745  16.895  0.00  0.00    +0.000 C 
BRANCH  19  20
ATOM     20  C   UNL     1       7.014   4.526  15.487  0.00  0.00    +0.000 A 
ATOM     21  C   UNL     1       6.043   3.740  14.901  0.00  0.00    +0.000 A 
ATOM     22  C   UNL     1       6.136   3.958  13.507  0.00  0.00    +0.000 A 
ATOM     23  C   UNL     1       7.174   4.846  13.319  0.00  0.00    +0.000 A 
ATOM     24  C   UNL     1       7.791   5.434  12.112  0.00  0.00    +0.000 C 
ATOM     25  O   UNL     1       7.708   5.202  14.522  0.00  0.00    +0.000 OA
ENDBRANCH  19  20
ENDBRANCH   1  19
TORSDOF 5
ENDMDL
MODEL 2
REMARK VINA RESULT:      -7.8      0.674      1.094
REMARK  Name = 
REMARK  7 active torsions:
REMARK  status: ('A' for Active; 'I' for Inactive)
REMARK    1  A    between atoms: C_1  and  O_2
REMARK    2  A    between atoms: O_2  and  C_3
REMARK    3  A    between atoms: C_3  and  C_4
REMARK    4  A    between atoms: C_4  and  N_5
REMARK    5  A    between atoms: N_5  and  C_6
REMARK    6  A    between atoms: C_6  and  C_7
REMARK    7  A    between atoms: C_10  and  C_11
REMARK                            x       y       z     vdW  Elec       q    Type
REMARK                         _______ _______ _______ _____ _____    ______ ____
ROOT
ATOM      1  N   UNL     1       6.404   5.285  17.249  0.00  0.00    +0.000 N 
ATOM      2  C   UNL     1       5.373   4.871  18.093  0.00  0.00    +0.000 C 
ATOM      3  O   UNL     1       4.502   5.656  18.462  0.00  0.00    +0.000 OA
ATOM      4  N   UNL     1       5.432   3.551  18.471  0.00  0.00    +0.000 N 
ATOM      5  C   UNL     1       4.583   3.069  19.450  0.00  0.00    +0.000 A 
ATOM      6  N   UNL     1       5.004   2.297  20.434  0.00  0.00    +0.000 NA
ATOM      7  N   UNL     1       3.953   2.062  21.285  0.00  0.00    +0.000 NA
ATOM      8  C   UNL     1       2.883   2.616  20.760  0.00  0.00    +0.000 A 
ATOM      9  C   UNL     1       1.522   2.638  21.171  0.00  0.00    +0.000 A 
ATOM     10  C   UNL     1       0.589   3.161  20.353  0.00  0.00    +0.000 A 
ATOM     11  C   UNL     1       0.944   3.719  19.056  0.00  0.00    +0.000 A 
ATOM     12  C   UNL     1       2.239   3.754  18.694  0.00  0.00    +0.000 A 
ATOM     13  N   UNL     1       3.208   3.225  19.549  0.00  0.00    +0.000 N 
ATOM     14  H   UNL     1       6.374   3.189  18.586  0.00  0.00    +0.000 HD
ENDROOT
BRANCH   1  15
ATOM     15  C   UNL     1       6.519   6.718  16.958  0.00  0.00    +0.000 C 
BRANCH  15  16
ATOM     16  C   UNL     1       7.651   7.402  17.731  0.00  0.00    +0.000 C 
BRANCH  16  18
ATOM     17  C   UNL     1       8.588   9.510  18.232  0.00  0.00    +0.000 C 
ATOM     18  O   UNL     1       7.474   8.819  17.677  0.00  0.00    +0.000 OA
ENDBRANCH  16  18
ENDBRANCH  15  16
ENDBRANCH   1  15
BRANCH   1  19
ATOM     19  C   UNL     1       7.319   4.378  16.553  0.00  0.00    +0.000 C 
BRANCH  19  20
ATOM     20  C   UNL     1       7.124   4.469  15.080  0.00  0.00    +0.000 A 
ATOM     21  C   UNL     1       7.698   5.239  14.090  0.00  0.00    +0.000 A 
ATOM     22  C   UNL     1       7.071   4.869  12.877  0.00  0.00    +0.000 A 
ATOM     23  C   UNL     1       6.132   3.912  13.200  0.00  0.00    +0.000 A 
ATOM     24  C   UNL     1       5.137   3.166  12.400  0.00  0.00    +0.000 C 
ATOM     25  O   UNL     1       6.165   3.658  14.539  0.00  0.00    +0.000 OA
ENDBRANCH  19  20
ENDBRANCH   1  19
TORSDOF 5
ENDMDL
MODEL 3
REMARK VINA RESULT:      -7.8      1.674      2.240
REMARK  Name = 
REMARK  7 active torsions:
REMARK  status: ('A' for Active; 'I' for Inactive)
REMARK    1  A    between atoms: C_1  and  O_2
REMARK    2  A    between atoms: O_2  and  C_3
REMARK    3  A    between atoms: C_3  and  C_4
REMARK    4  A    between atoms: C_4  and  N_5
REMARK    5  A    between atoms: N_5  and  C_6
REMARK    6  A    between atoms: C_6  and  C_7
REMARK    7  A    between atoms: C_10  and  C_11
REMARK                            x       y       z     vdW  Elec       q    Type
REMARK                         _______ _______ _______ _____ _____    ______ ____
ROOT
ATOM      1  N   UNL     1       5.942   5.141  16.654  0.00  0.00    +0.000 N 
ATOM      2  C   UNL     1       5.084   4.531  17.571  0.00  0.00    +0.000 C 
ATOM      3  O   UNL     1       5.460   4.265  18.711  0.00  0.00    +0.000 OA
ATOM      4  N   UNL     1       3.828   4.254  17.089  0.00  0.00    +0.000 N 
ATOM      5  C   UNL     1       2.951   3.484  17.832  0.00  0.00    +0.000 A 
ATOM      6  N   UNL     1       2.245   2.505  17.301  0.00  0.00    +0.000 NA
ATOM      7  N   UNL     1       1.546   1.877  18.302  0.00  0.00    +0.000 NA
ATOM      8  C   UNL     1       1.762   2.542  19.415  0.00  0.00    +0.000 A 
ATOM      9  C   UNL     1       1.254   2.382  20.734  0.00  0.00    +0.000 A 
ATOM     10  C   UNL     1       1.529   3.311  21.669  0.00  0.00    +0.000 A 
ATOM     11  C   UNL     1       2.348   4.475  21.364  0.00  0.00    +0.000 A 
ATOM     12  C   UNL     1       2.879   4.595  20.134  0.00  0.00    +0.000 A 
ATOM     13  N   UNL     1       2.606   3.622  19.168  0.00  0.00    +0.000 N 
ATOM     14  H   UNL     1       3.802   4.000  16.106  0.00  0.00    +0.000 HD
ENDROOT
BRANCH   1  15
ATOM     15  C   UNL     1       7.351   5.293  17.030  0.00  0.00    +0.000 C 
BRANCH  15  16
ATOM     16  C   UNL     1       7.617   6.537  17.884  0.00  0.00    +0.000 C 
BRANCH  16  18
ATOM     17  C   UNL     1       7.942   8.873  17.775  0.00  0.00    +0.000 C 
ATOM     18  O   UNL     1       7.804   7.668  17.029  0.00  0.00    +0.000 OA
ENDBRANCH  16  18
ENDBRANCH  15  16
ENDBRANCH   1  15
BRANCH   1  19
ATOM     19  C   UNL     1       5.513   5.730  15.385  0.00  0.00    +0.000 C 
BRANCH  19  20
ATOM     20  C   UNL     1       6.097   4.983  14.238  0.00  0.00    +0.000 A 
ATOM     21  C   UNL     1       7.323   5.016  13.606  0.00  0.00    +0.000 A 
ATOM     22  C   UNL     1       7.263   4.066  12.559  0.00  0.00    +0.000 A 
ATOM     23  C   UNL     1       5.995   3.525  12.597  0.00  0.00    +0.000 A 
ATOM     24  C   UNL     1       5.301   2.526  11.757  0.00  0.00    +0.000 C 
ATOM     25  O   UNL     1       5.283   4.073  13.622  0.00  0.00    +0.000 OA
ENDBRANCH  19  20
ENDBRANCH   1  19
TORSDOF 5
ENDMDL
MODEL 4
REMARK VINA RESULT:      -7.7      1.084      1.442
REMARK  Name = 
REMARK  7 active torsions:
REMARK  status: ('A' for Active; 'I' for Inactive)
REMARK    1  A    between atoms: C_1  and  O_2
REMARK    2  A    between atoms: O_2  and  C_3
REMARK    3  A    between atoms: C_3  and  C_4
REMARK    4  A    between atoms: C_4  and  N_5
REMARK    5  A    between atoms: N_5  and  C_6
REMARK    6  A    between atoms: C_6  and  C_7
REMARK    7  A    between atoms: C_10  and  C_11
REMARK                            x       y       z     vdW  Elec       q    Type
REMARK                         _______ _______ _______ _____ _____    ______ ____
ROOT
ATOM      1  N   UNL     1       7.047   5.247  18.102  0.00  0.00    +0.000 N 
ATOM      2  C   UNL     1       5.915   4.886  18.834  0.00  0.00    +0.000 C 
ATOM      3  O   UNL     1       5.203   5.737  19.362  0.00  0.00    +0.000 OA
ATOM      4  N   UNL     1       5.690   3.532  18.918  0.00  0.00    +0.000 N 
ATOM      5  C   UNL     1       4.717   3.041  19.769  0.00  0.00    +0.000 A 
ATOM      6  N   UNL     1       4.928   2.009  20.563  0.00  0.00    +0.000 NA
ATOM      7  N   UNL     1       3.812   1.821  21.341  0.00  0.00    +0.000 NA
ATOM      8  C   UNL     1       2.901   2.682  20.945  0.00  0.00    +0.000 A 
ATOM      9  C   UNL     1       1.554   2.897  21.348  0.00  0.00    +0.000 A 
ATOM     10  C   UNL     1       0.785   3.762  20.660  0.00  0.00    +0.000 A 
ATOM     11  C   UNL     1       1.305   4.496  19.516  0.00  0.00    +0.000 A 
ATOM     12  C   UNL     1       2.596   4.338  19.172  0.00  0.00    +0.000 A 
ATOM     13  N   UNL     1       3.399   3.452  19.896  0.00  0.00    +0.000 N 
ATOM     14  H   UNL     1       6.534   2.968  18.955  0.00  0.00    +0.000 HD
ENDROOT
BRANCH   1  15
ATOM     15  C   UNL     1       7.461   6.653  18.128  0.00  0.00    +0.000 C 
BRANCH  15  16
ATOM     16  C   UNL     1       6.418   7.600  17.527  0.00  0.00    +0.000 C 
BRANCH  16  18
ATOM     17  C   UNL     1       4.705   6.991  16.022  0.00  0.00    +0.000 C 
ATOM     18  O   UNL     1       6.104   7.179  16.197  0.00  0.00    +0.000 OA
ENDBRANCH  16  18
ENDBRANCH  15  16
ENDBRANCH   1  15
BRANCH   1  19
ATOM     19  C   UNL     1       7.792   4.338  17.229  0.00  0.00    +0.000 C 
BRANCH  19  20
ATOM     20  C   UNL     1       7.178   4.295  15.874  0.00  0.00    +0.000 A 
ATOM     21  C   UNL     1       6.036   3.710  15.365  0.00  0.00    +0.000 A 
ATOM     22  C   UNL     1       6.007   4.018  13.985  0.00  0.00    +0.000 A 
ATOM     23  C   UNL     1       7.144   4.753  13.725  0.00  0.00    +0.000 A 
ATOM     24  C   UNL     1       7.709   5.332  12.488  0.00  0.00    +0.000 C 
ATOM     25  O   UNL     1       7.858   4.931  14.873  0.00  0.00    +0.000 OA
ENDBRANCH  19  20
ENDBRANCH   1  19
TORSDOF 5
ENDMDL
MODEL 5
REMARK VINA RESULT:      -7.2      3.049      6.993
REMARK  Name = 
REMARK  7 active torsions:
REMARK  status: ('A' for Active; 'I' for Inactive)
REMARK    1  A    between atoms: C_1  and  O_2
REMARK    2  A    between atoms: O_2  and  C_3
REMARK    3  A    between atoms: C_3  and  C_4
REMARK    4  A    between atoms: C_4  and  N_5
REMARK    5  A    between atoms: N_5  and  C_6
REMARK    6  A    between atoms: C_6  and  C_7
REMARK    7  A    between atoms: C_10  and  C_11
REMARK                            x       y       z     vdW  Elec       q    Type
REMARK                         _______ _______ _______ _____ _____    ______ ____
ROOT
ATOM      1  N   UNL     1       2.075   5.245  20.264  0.00  0.00    +0.000 N 
ATOM      2  C   UNL     1       3.126   4.999  19.380  0.00  0.00    +0.000 C 
ATOM      3  O   UNL     1       2.982   4.256  18.413  0.00  0.00    +0.000 OA
ATOM      4  N   UNL     1       4.304   5.635  19.695  0.00  0.00    +0.000 N 
ATOM      5  C   UNL     1       5.466   5.325  19.012  0.00  0.00    +0.000 A 
ATOM      6  N   UNL     1       6.614   5.120  19.627  0.00  0.00    +0.000 NA
ATOM      7  N   UNL     1       7.550   4.747  18.693  0.00  0.00    +0.000 NA
ATOM      8  C   UNL     1       6.982   4.821  17.510  0.00  0.00    +0.000 A 
ATOM      9  C   UNL     1       7.486   4.610  16.197  0.00  0.00    +0.000 A 
ATOM     10  C   UNL     1       6.715   4.905  15.133  0.00  0.00    +0.000 A 
ATOM     11  C   UNL     1       5.366   5.426  15.296  0.00  0.00    +0.000 A 
ATOM     12  C   UNL     1       4.867   5.568  16.538  0.00  0.00    +0.000 A 
ATOM     13  N   UNL     1       5.662   5.247  17.641  0.00  0.00    +0.000 N 
ATOM     14  H   UNL     1       4.475   5.733  20.691  0.00  0.00    +0.000 HD
ENDROOT
BRANCH   1  15
ATOM     15  C   UNL     1       0.848   4.457  20.107  0.00  0.00    +0.000 C 
BRANCH  15  16
ATOM     16  C   UNL     1       0.960   3.044  20.690  0.00  0.00    +0.000 C 
BRANCH  16  18
ATOM     17  C   UNL     1       2.960   2.219  21.632  0.00  0.00    +0.000 C 
ATOM     18  O   UNL     1       1.832   3.066  21.822  0.00  0.00    +0.000 OA
ENDBRANCH  16  18
ENDBRANCH  15  16
ENDBRANCH   1  15
BRANCH   1  19
ATOM     19  C   UNL     1       2.072   6.305  21.273  0.00  0.00    +0.000 C 
BRANCH  19  20
ATOM     20  C   UNL     1       1.563   7.578  20.693  0.00  0.00    +0.000 A 
ATOM     21  C   UNL     1       0.642   8.515  21.115  0.00  0.00    +0.000 A 
ATOM     22  C   UNL     1       0.582   9.503  20.105  0.00  0.00    +0.000 A 
ATOM     23  C   UNL     1       1.451   9.102  19.114  0.00  0.00    +0.000 A 
ATOM     24  C   UNL     1       1.810   9.669  17.797  0.00  0.00    +0.000 C 
ATOM     25  O   UNL     1       2.058   7.933  19.469  0.00  0.00    +0.000 OA
ENDBRANCH  19  20
ENDBRANCH   1  19
TORSDOF 5
ENDMDL
MODEL 6
REMARK VINA RESULT:      -7.1      3.824      5.696
REMARK  Name = 
REMARK  7 active torsions:
REMARK  status: ('A' for Active; 'I' for Inactive)
REMARK    1  A    between atoms: C_1  and  O_2
REMARK    2  A    between atoms: O_2  and  C_3
REMARK    3  A    between atoms: C_3  and  C_4
REMARK    4  A    between atoms: C_4  and  N_5
REMARK    5  A    between atoms: N_5  and  C_6
REMARK    6  A    between atoms: C_6  and  C_7
REMARK    7  A    between atoms: C_10  and  C_11
REMARK                            x       y       z     vdW  Elec       q    Type
REMARK                         _______ _______ _______ _____ _____    ______ ____
ROOT
ATOM      1  N   UNL     1       3.535   4.356  19.144  0.00  0.00    +0.000 N 
ATOM      2  C   UNL     1       2.734   5.495  19.228  0.00  0.00    +0.000 C 
ATOM      3  O   UNL     1       1.607   5.444  19.715  0.00  0.00    +0.000 OA
ATOM      4  N   UNL     1       3.302   6.638  18.716  0.00  0.00    +0.000 N 
ATOM      5  C   UNL     1       2.544   7.785  18.567  0.00  0.00    +0.000 A 
ATOM      6  N   UNL     1       2.577   8.516  17.469  0.00  0.00    +0.000 NA
ATOM      7  N   UNL     1       1.656   9.527  17.590  0.00  0.00    +0.000 NA
ATOM      8  C   UNL     1       1.141   9.454  18.797  0.00  0.00    +0.000 A 
ATOM      9  C   UNL     1       0.198  10.270  19.481  0.00  0.00    +0.000 A 
ATOM     10  C   UNL     1      -0.045  10.052  20.787  0.00  0.00    +0.000 A 
ATOM     11  C   UNL     1       0.629   8.988  21.517  0.00  0.00    +0.000 A 
ATOM     12  C   UNL     1       1.475   8.178  20.856  0.00  0.00    +0.000 A 
ATOM     13  N   UNL     1       1.715   8.395  19.496  0.00  0.00    +0.000 N 
ATOM     14  H   UNL     1       3.903   6.484  17.913  0.00  0.00    +0.000 HD
ENDROOT
BRANCH   1  15
ATOM     15  C   UNL     1       2.930   3.065  19.491  0.00  0.00    +0.000 C 
BRANCH  15  16
ATOM     16  C   UNL     1       3.684   2.324  20.599  0.00  0.00    +0.000 C 
BRANCH  16  18
ATOM     17  C   UNL     1       1.577   2.564  21.635  0.00  0.00    +0.000 C 
ATOM     18  O   UNL     1       2.983   2.478  21.835  0.00  0.00    +0.000 OA
ENDBRANCH  16  18
ENDBRANCH  15  16
ENDBRANCH   1  15
BRANCH   1  19
ATOM     19  C   UNL     1       4.965   4.370  18.832  0.00  0.00    +0.000 C 
BRANCH  19  20
ATOM     20  C   UNL     1       5.179   4.323  17.360  0.00  0.00    +0.000 A 
ATOM     21  C   UNL     1       4.457   3.796  16.309  0.00  0.00    +0.000 A 
ATOM     22  C   UNL     1       5.201   4.062  15.136  0.00  0.00    +0.000 A 
ATOM     23  C   UNL     1       6.346   4.714  15.539  0.00  0.00    +0.000 A 
ATOM     24  C   UNL     1       7.529   5.218  14.810  0.00  0.00    +0.000 C 
ATOM     25  O   UNL     1       6.336   4.883  16.892  0.00  0.00    +0.000 OA
ENDBRANCH  19  20
ENDBRANCH   1  19
TORSDOF 5
ENDMDL
MODEL 7
REMARK VINA RESULT:      -7.1      3.617      5.786
REMARK  Name = 
REMARK  7 active torsions:
REMARK  status: ('A' for Active; 'I' for Inactive)
REMARK    1  A    between atoms: C_1  and  O_2
REMARK    2  A    between atoms: O_2  and  C_3
REMARK    3  A    between atoms: C_3  and  C_4
REMARK    4  A    between atoms: C_4  and  N_5
REMARK    5  A    between atoms: N_5  and  C_6
REMARK    6  A    between atoms: C_6  and  C_7
REMARK    7  A    between atoms: C_10  and  C_11
REMARK                            x       y       z     vdW  Elec       q    Type
REMARK                         _______ _______ _______ _____ _____    ______ ____
ROOT
ATOM      1  N   UNL     1       3.396   4.166  17.247  0.00  0.00    +0.000 N 
ATOM      2  C   UNL     1       2.737   5.265  17.799  0.00  0.00    +0.000 C 
ATOM      3  O   UNL     1       1.703   5.124  18.448  0.00  0.00    +0.000 OA
ATOM      4  N   UNL     1       3.327   6.480  17.543  0.00  0.00    +0.000 N 
ATOM      5  C   UNL     1       2.674   7.654  17.871  0.00  0.00    +0.000 A 
ATOM      6  N   UNL     1       2.604   8.678  17.043  0.00  0.00    +0.000 NA
ATOM      7  N   UNL     1       1.820   9.650  17.616  0.00  0.00    +0.000 NA
ATOM      8  C   UNL     1       1.499   9.242  18.823  0.00  0.00    +0.000 A 
ATOM      9  C   UNL     1       0.764   9.858  19.873  0.00  0.00    +0.000 A 
ATOM     10  C   UNL     1       0.712   9.270  21.082  0.00  0.00    +0.000 A 
ATOM     11  C   UNL     1       1.384   8.005  21.340  0.00  0.00    +0.000 A 
ATOM     12  C   UNL     1       2.029   7.391  20.331  0.00  0.00    +0.000 A 
ATOM     13  N   UNL     1       2.069   7.995  19.071  0.00  0.00    +0.000 N 
ATOM     14  H   UNL     1       3.775   6.546  16.634  0.00  0.00    +0.000 HD
ENDROOT
BRANCH   1  15
ATOM     15  C   UNL     1       2.729   2.862  17.312  0.00  0.00    +0.000 C 
BRANCH  15  16
ATOM     16  C   UNL     1       3.288   1.952  18.410  0.00  0.00    +0.000 C 
BRANCH  16  18
ATOM     17  C   UNL     1       3.113   2.785  20.612  0.00  0.00    +0.000 C 
ATOM     18  O   UNL     1       2.466   2.055  19.576  0.00  0.00    +0.000 OA
ENDBRANCH  16  18
ENDBRANCH  15  16
ENDBRANCH   1  15
BRANCH   1  19
ATOM     19  C   UNL     1       4.753   4.205  16.697  0.00  0.00    +0.000 C 
BRANCH  19  20
ATOM     20  C   UNL     1       5.686   4.861  17.654  0.00  0.00    +0.000 A 
ATOM     21  C   UNL     1       6.026   4.619  18.968  0.00  0.00    +0.000 A 
ATOM     22  C   UNL     1       6.968   5.611  19.330  0.00  0.00    +0.000 A 
ATOM     23  C   UNL     1       7.131   6.416  18.222  0.00  0.00    +0.000 A 
ATOM     24  C   UNL     1       7.934   7.631  17.968  0.00  0.00    +0.000 C 
ATOM     25  O   UNL     1       6.358   5.960  17.195  0.00  0.00    +0.000 OA
ENDBRANCH  19  20
ENDBRANCH   1  19
TORSDOF 5
ENDMDL
MODEL 8
REMARK VINA RESULT:      -7.1      4.217      6.209
REMARK  Name = 
REMARK  7 active torsions:
REMARK  status: ('A' for Active; 'I' for Inactive)
REMARK    1  A    between atoms: C_1  and  O_2
REMARK    2  A    between atoms: O_2  and  C_3
REMARK    3  A    between atoms: C_3  and  C_4
REMARK    4  A    between atoms: C_4  and  N_5
REMARK    5  A    between atoms: N_5  and  C_6
REMARK    6  A    between atoms: C_6  and  C_7
REMARK    7  A    between atoms: C_10  and  C_11
REMARK                            x       y       z     vdW  Elec       q    Type
REMARK                         _______ _______ _______ _____ _____    ______ ____
ROOT
ATOM      1  N   UNL     1       3.579   5.480  17.795  0.00  0.00    +0.000 N 
ATOM      2  C   UNL     1       2.718   6.346  18.470  0.00  0.00    +0.000 C 
ATOM      3  O   UNL     1       2.040   5.955  19.418  0.00  0.00    +0.000 OA
ATOM      4  N   UNL     1       2.691   7.630  17.980  0.00  0.00    +0.000 N 
ATOM      5  C   UNL     1       1.744   8.529  18.437  0.00  0.00    +0.000 A 
ATOM      6  N   UNL     1       1.057   9.306  17.623  0.00  0.00    +0.000 NA
ATOM      7  N   UNL     1       0.141  10.014  18.363  0.00  0.00    +0.000 NA
ATOM      8  C   UNL     1       0.347   9.727  19.629  0.00  0.00    +0.000 A 
ATOM      9  C   UNL     1      -0.256  10.206  20.825  0.00  0.00    +0.000 A 
ATOM     10  C   UNL     1       0.257   9.851  22.017  0.00  0.00    +0.000 A 
ATOM     11  C   UNL     1       1.414   8.973  22.114  0.00  0.00    +0.000 A 
ATOM     12  C   UNL     1       1.948   8.471  20.985  0.00  0.00    +0.000 A 
ATOM     13  N   UNL     1       1.405   8.828  19.748  0.00  0.00    +0.000 N 
ATOM     14  H   UNL     1       2.811   7.698  16.974  0.00  0.00    +0.000 HD
ENDROOT
BRANCH   1  15
ATOM     15  C   UNL     1       3.521   4.054  18.133  0.00  0.00    +0.000 C 
BRANCH  15  16
ATOM     16  C   UNL     1       2.626   3.246  17.188  0.00  0.00    +0.000 C 
BRANCH  16  18
ATOM     17  C   UNL     1       1.036   2.486  18.759  0.00  0.00    +0.000 C 
ATOM     18  O   UNL     1       1.270   3.327  17.635  0.00  0.00    +0.000 OA
ENDBRANCH  16  18
ENDBRANCH  15  16
ENDBRANCH   1  15
BRANCH   1  19
ATOM     19  C   UNL     1       4.607   5.909  16.845  0.00  0.00    +0.000 C 
BRANCH  19  20
ATOM     20  C   UNL     1       5.886   6.191  17.551  0.00  0.00    +0.000 A 
ATOM     21  C   UNL     1       6.659   5.476  18.442  0.00  0.00    +0.000 A 
ATOM     22  C   UNL     1       7.762   6.299  18.770  0.00  0.00    +0.000 A 
ATOM     23  C   UNL     1       7.587   7.479  18.077  0.00  0.00    +0.000 A 
ATOM     24  C   UNL     1       8.358   8.739  18.022  0.00  0.00    +0.000 C 
ATOM     25  O   UNL     1       6.450   7.417  17.327  0.00  0.00    +0.000 OA
ENDBRANCH  19  20
ENDBRANCH   1  19
TORSDOF 5
ENDMDL
MODEL 9
REMARK VINA RESULT:      -7.1      1.589      4.280
REMARK  Name = 
REMARK  7 active torsions:
REMARK  status: ('A' for Active; 'I' for Inactive)
REMARK    1  A    between atoms: C_1  and  O_2
REMARK    2  A    between atoms: O_2  and  C_3
REMARK    3  A    between atoms: C_3  and  C_4
REMARK    4  A    between atoms: C_4  and  N_5
REMARK    5  A    between atoms: N_5  and  C_6
REMARK    6  A    between atoms: C_6  and  C_7
REMARK    7  A    between atoms: C_10  and  C_11
REMARK                            x       y       z     vdW  Elec       q    Type
REMARK                         _______ _______ _______ _____ _____    ______ ____
ROOT
ATOM      1  N   UNL     1       6.820   4.867  17.533  0.00  0.00    +0.000 N 
ATOM      2  C   UNL     1       5.514   4.625  17.961  0.00  0.00    +0.000 C 
ATOM      3  O   UNL     1       4.768   3.881  17.329  0.00  0.00    +0.000 OA
ATOM      4  N   UNL     1       5.151   5.289  19.108  0.00  0.00    +0.000 N 
ATOM      5  C   UNL     1       3.833   5.284  19.527  0.00  0.00    +0.000 A 
ATOM      6  N   UNL     1       3.216   6.377  19.933  0.00  0.00    +0.000 NA
ATOM      7  N   UNL     1       1.904   6.066  20.194  0.00  0.00    +0.000 NA
ATOM      8  C   UNL     1       1.762   4.770  20.033  0.00  0.00    +0.000 A 
ATOM      9  C   UNL     1       0.651   3.902  20.224  0.00  0.00    +0.000 A 
ATOM     10  C   UNL     1       0.825   2.570  20.130  0.00  0.00    +0.000 A 
ATOM     11  C   UNL     1       2.126   1.994  19.824  0.00  0.00    +0.000 A 
ATOM     12  C   UNL     1       3.164   2.817  19.584  0.00  0.00    +0.000 A 
ATOM     13  N   UNL     1       2.979   4.200  19.666  0.00  0.00    +0.000 N 
ATOM     14  H   UNL     1       5.569   6.209  19.211  0.00  0.00    +0.000 HD
ENDROOT
BRANCH   1  15
ATOM     15  C   UNL     1       7.220   4.351  16.220  0.00  0.00    +0.000 C 
BRANCH  15  16
ATOM     16  C   UNL     1       6.731   5.219  15.056  0.00  0.00    +0.000 C 
BRANCH  16  18
ATOM     17  C   UNL     1       6.176   3.670  13.364  0.00  0.00    +0.000 C 
ATOM     18  O   UNL     1       5.675   4.542  14.371  0.00  0.00    +0.000 OA
ENDBRANCH  16  18
ENDBRANCH  15  16
ENDBRANCH   1  15
BRANCH   1  19
ATOM     19  C   UNL     1       7.852   5.513  18.347  0.00  0.00    +0.000 C 
BRANCH  19  20
ATOM     20  C   UNL     1       7.843   6.986  18.130  0.00  0.00    +0.000 A 
ATOM     21  C   UNL     1       7.179   7.814  17.249  0.00  0.00    +0.000 A 
ATOM     22  C   UNL     1       7.609   9.131  17.532  0.00  0.00    +0.000 A 
ATOM     23  C   UNL     1       8.528   9.030  18.555  0.00  0.00    +0.000 A 
ATOM     24  C   UNL     1       9.359  10.025  19.266  0.00  0.00    +0.000 C 
ATOM     25  O   UNL     1       8.670   7.726  18.929  0.00  0.00    +0.000 OA
ENDBRANCH  19  20
ENDBRANCH   1  19
TORSDOF 5
ENDMDL
