MODEL 1
REMARK VINA RESULT:      -8.3      0.000      0.000
REMARK  Name = 
REMARK  3 active torsions:
REMARK  status: ('A' for Active; 'I' for Inactive)
REMARK    1  A    between atoms: O_1  and  C_2
REMARK    2  A    between atoms: C_5  and  C_6
REMARK    3  A    between atoms: N_7  and  N_8
REMARK                            x       y       z     vdW  Elec       q    Type
REMARK                         _______ _______ _______ _____ _____    ______ ____
ROOT
ATOM      1  N   UNL     1       2.215   6.334  20.152  0.00  0.00    +0.000 N 
ATOM      2  C   UNL     1       1.614   7.567  20.384  0.00  0.00    +0.000 A 
ATOM      3  N   UNL     1       1.023   7.828  21.525  0.00  0.00    +0.000 NA
ATOM      4  C   UNL     1       0.433   9.107  21.739  0.00  0.00    +0.000 A 
ATOM      5  C   UNL     1      -0.151   9.396  22.974  0.00  0.00    +0.000 A 
ATOM      6  C   UNL     1      -0.768  10.634  23.198  0.00  0.00    +0.000 A 
ATOM      7  C   UNL     1      -0.809  11.597  22.187  0.00  0.00    +0.000 A 
ATOM      8  C   UNL     1      -0.216  11.333  20.954  0.00  0.00    +0.000 A 
ATOM      9  C   UNL     1       0.406  10.100  20.739  0.00  0.00    +0.000 A 
ATOM     10  C   UNL     1       1.051   9.764  19.494  0.00  0.00    +0.000 A 
ATOM     11  N   UNL     1       1.194  10.452  18.377  0.00  0.00    +0.000 NA
ATOM     12  N   UNL     1       1.872   9.652  17.487  0.00  0.00    +0.000 NA
ATOM     13  C   UNL     1       2.111   8.507  18.080  0.00  0.00    +0.000 A 
ATOM     14  N   UNL     1       1.630   8.531  19.362  0.00  0.00    +0.000 N 
ATOM     15  H   UNL     1       2.070   5.668  20.907  0.00  0.00    +0.000 HD
ENDROOT
BRANCH   1  17
ATOM     16  C   UNL     1       3.321   5.369  18.408  0.00  0.00    +0.000 C 
ATOM     17  N   UNL     1       3.329   6.221  19.378  0.00  0.00    +0.000 NA
BRANCH  16  21
ATOM     18  C   UNL     1       6.748   5.018  15.898  0.00  0.00    +0.000 A 
ATOM     19  C   UNL     1       6.644   6.109  16.755  0.00  0.00    +0.000 A 
ATOM     20  C   UNL     1       5.522   6.225  17.576  0.00  0.00    +0.000 A 
ATOM     21  C   UNL     1       4.511   5.250  17.535  0.00  0.00    +0.000 A 
ATOM     22  C   UNL     1       4.622   4.163  16.666  0.00  0.00    +0.000 A 
ATOM     23  C   UNL     1       5.747   4.052  15.845  0.00  0.00    +0.000 A 
BRANCH  18  24
ATOM     24  O   UNL     1       7.830   4.858  15.084  0.00  0.00    +0.000 OA
ATOM     25  H   UNL     1       7.550   4.978  14.163  0.00  0.00    +0.000 HD
ENDBRANCH  18  24
ENDBRANCH  16  21
ENDBRANCH   1  17
TORSDOF 3
ENDMDL
MODEL 2
REMARK VINA RESULT:      -8.3      0.763      1.181
REMARK  Name = 
REMARK  3 active torsions:
REMARK  status: ('A' for Active; 'I' for Inactive)
REMARK    1  A    between atoms: O_1  and  C_2
REMARK    2  A    between atoms: C_5  and  C_6
REMARK    3  A    between atoms: N_7  and  N_8
REMARK                            x       y       z     vdW  Elec       q    Type
REMARK                         _______ _______ _______ _____ _____    ______ ____
ROOT
ATOM      1  N   UNL     1       1.921   6.500  20.521  0.00  0.00    +0.000 N 
ATOM      2  C   UNL     1       1.352   7.764  20.641  0.00  0.00    +0.000 A 
ATOM      3  N   UNL     1       0.696   8.113  21.721  0.00  0.00    +0.000 NA
ATOM      4  C   UNL     1       0.141   9.421  21.820  0.00  0.00    +0.000 A 
ATOM      5  C   UNL     1      -0.513   9.803  22.993  0.00  0.00    +0.000 A 
ATOM      6  C   UNL     1      -1.097  11.072  23.102  0.00  0.00    +0.000 A 
ATOM      7  C   UNL     1      -1.033  11.973  22.037  0.00  0.00    +0.000 A 
ATOM      8  C   UNL     1      -0.369  11.617  20.865  0.00  0.00    +0.000 A 
ATOM      9  C   UNL     1       0.219  10.353  20.765  0.00  0.00    +0.000 A 
ATOM     10  C   UNL     1       0.933   9.921  19.589  0.00  0.00    +0.000 A 
ATOM     11  N   UNL     1       1.176  10.536  18.447  0.00  0.00    +0.000 NA
ATOM     12  N   UNL     1       1.882   9.662  17.653  0.00  0.00    +0.000 NA
ATOM     13  C   UNL     1       2.038   8.547  18.327  0.00  0.00    +0.000 A 
ATOM     14  N   UNL     1       1.473   8.664  19.569  0.00  0.00    +0.000 N 
ATOM     15  H   UNL     1       1.700   5.885  21.302  0.00  0.00    +0.000 HD
ENDROOT
BRANCH   1  17
ATOM     16  C   UNL     1       3.226   5.202  19.178  0.00  0.00    +0.000 C 
ATOM     17  N   UNL     1       3.080   6.304  19.835  0.00  0.00    +0.000 NA
BRANCH  16  21
ATOM     18  C   UNL     1       6.798   4.567  16.940  0.00  0.00    +0.000 A 
ATOM     19  C   UNL     1       5.574   4.222  16.376  0.00  0.00    +0.000 A 
ATOM     20  C   UNL     1       4.405   4.428  17.109  0.00  0.00    +0.000 A 
ATOM     21  C   UNL     1       4.466   4.979  18.400  0.00  0.00    +0.000 A 
ATOM     22  C   UNL     1       5.700   5.316  18.959  0.00  0.00    +0.000 A 
ATOM     23  C   UNL     1       6.868   5.106  18.222  0.00  0.00    +0.000 A 
BRANCH  18  24
ATOM     24  O   UNL     1       7.966   4.392  16.259  0.00  0.00    +0.000 OA
ATOM     25  H   UNL     1       8.464   3.669  16.672  0.00  0.00    +0.000 HD
ENDBRANCH  18  24
ENDBRANCH  16  21
ENDBRANCH   1  17
TORSDOF 3
ENDMDL
MODEL 3
REMARK VINA RESULT:      -7.6      1.985      3.675
REMARK  Name = 
REMARK  3 active torsions:
REMARK  status: ('A' for Active; 'I' for Inactive)
REMARK    1  A    between atoms: O_1  and  C_2
REMARK    2  A    between atoms: C_5  and  C_6
REMARK    3  A    between atoms: N_7  and  N_8
REMARK                            x       y       z     vdW  Elec       q    Type
REMARK                         _______ _______ _______ _____ _____    ______ ____
ROOT
ATOM      1  N   UNL     1       1.025  10.087  18.852  0.00  0.00    +0.000 N 
ATOM      2  C   UNL     1       0.196  10.551  19.868  0.00  0.00    +0.000 A 
ATOM      3  N   UNL     1      -0.793  11.373  19.612  0.00  0.00    +0.000 NA
ATOM      4  C   UNL     1      -1.636  11.817  20.672  0.00  0.00    +0.000 A 
ATOM      5  C   UNL     1      -2.718  12.652  20.386  0.00  0.00    +0.000 A 
ATOM      6  C   UNL     1      -3.541  13.129  21.415  0.00  0.00    +0.000 A 
ATOM      7  C   UNL     1      -3.289  12.776  22.742  0.00  0.00    +0.000 A 
ATOM      8  C   UNL     1      -2.226  11.929  23.046  0.00  0.00    +0.000 A 
ATOM      9  C   UNL     1      -1.413  11.449  22.015  0.00  0.00    +0.000 A 
ATOM     10  C   UNL     1      -0.304  10.559  22.252  0.00  0.00    +0.000 A 
ATOM     11  N   UNL     1       0.169  10.041  23.370  0.00  0.00    +0.000 NA
ATOM     12  N   UNL     1       1.261   9.275  23.037  0.00  0.00    +0.000 NA
ATOM     13  C   UNL     1       1.425   9.356  21.738  0.00  0.00    +0.000 A 
ATOM     14  N   UNL     1       0.448  10.141  21.188  0.00  0.00    +0.000 N 
ATOM     15  H   UNL     1       0.829  10.511  17.948  0.00  0.00    +0.000 HD
ENDROOT
BRANCH   1  17
ATOM     16  C   UNL     1       2.436   8.517  17.994  0.00  0.00    +0.000 C 
ATOM     17  N   UNL     1       1.565   8.838  18.891  0.00  0.00    +0.000 NA
BRANCH  16  21
ATOM     18  C   UNL     1       4.228   4.651  18.115  0.00  0.00    +0.000 A 
ATOM     19  C   UNL     1       4.786   5.632  17.301  0.00  0.00    +0.000 A 
ATOM     20  C   UNL     1       4.199   6.897  17.260  0.00  0.00    +0.000 A 
ATOM     21  C   UNL     1       3.059   7.174  18.033  0.00  0.00    +0.000 A 
ATOM     22  C   UNL     1       2.503   6.181  18.841  0.00  0.00    +0.000 A 
ATOM     23  C   UNL     1       3.094   4.915  18.878  0.00  0.00    +0.000 A 
BRANCH  18  24
ATOM     24  O   UNL     1       4.772   3.404  18.194  0.00  0.00    +0.000 OA
ATOM     25  H   UNL     1       4.103   2.753  17.929  0.00  0.00    +0.000 HD
ENDBRANCH  18  24
ENDBRANCH  16  21
ENDBRANCH   1  17
TORSDOF 3
ENDMDL
MODEL 4
REMARK VINA RESULT:      -7.6      1.948      3.714
REMARK  Name = 
REMARK  3 active torsions:
REMARK  status: ('A' for Active; 'I' for Inactive)
REMARK    1  A    between atoms: O_1  and  C_2
REMARK    2  A    between atoms: C_5  and  C_6
REMARK    3  A    between atoms: N_7  and  N_8
REMARK                            x       y       z     vdW  Elec       q    Type
REMARK                         _______ _______ _______ _____ _____    ______ ____
ROOT
ATOM      1  N   UNL     1       1.131  10.169  18.893  0.00  0.00    +0.000 N 
ATOM      2  C   UNL     1       0.281  10.598  19.907  0.00  0.00    +0.000 A 
ATOM      3  N   UNL     1      -0.706  11.425  19.658  0.00  0.00    +0.000 NA
ATOM      4  C   UNL     1      -1.570  11.832  20.715  0.00  0.00    +0.000 A 
ATOM      5  C   UNL     1      -2.650  12.673  20.435  0.00  0.00    +0.000 A 
ATOM      6  C   UNL     1      -3.494  13.116  21.462  0.00  0.00    +0.000 A 
ATOM      7  C   UNL     1      -3.266  12.722  22.782  0.00  0.00    +0.000 A 
ATOM      8  C   UNL     1      -2.205  11.869  23.079  0.00  0.00    +0.000 A 
ATOM      9  C   UNL     1      -1.371  11.424  22.050  0.00  0.00    +0.000 A 
ATOM     10  C   UNL     1      -0.264  10.530  22.281  0.00  0.00    +0.000 A 
ATOM     11  N   UNL     1       0.189   9.979  23.391  0.00  0.00    +0.000 NA
ATOM     12  N   UNL     1       1.291   9.227  23.054  0.00  0.00    +0.000 NA
ATOM     13  C   UNL     1       1.479   9.349  21.762  0.00  0.00    +0.000 A 
ATOM     14  N   UNL     1       0.509  10.148  21.218  0.00  0.00    +0.000 N 
ATOM     15  H   UNL     1       0.951  10.620  17.999  0.00  0.00    +0.000 HD
ENDROOT
BRANCH   1  17
ATOM     16  C   UNL     1       2.282   8.506  17.842  0.00  0.00    +0.000 C 
ATOM     17  N   UNL     1       1.675   8.921  18.903  0.00  0.00    +0.000 NA
BRANCH  16  21
ATOM     18  C   UNL     1       4.083   4.643  17.830  0.00  0.00    +0.000 A 
ATOM     19  C   UNL     1       2.774   4.779  18.278  0.00  0.00    +0.000 A 
ATOM     20  C   UNL     1       2.184   6.044  18.284  0.00  0.00    +0.000 A 
ATOM     21  C   UNL     1       2.907   7.163  17.840  0.00  0.00    +0.000 A 
ATOM     22  C   UNL     1       4.223   7.017  17.398  0.00  0.00    +0.000 A 
ATOM     23  C   UNL     1       4.809   5.748  17.396  0.00  0.00    +0.000 A 
BRANCH  18  24
ATOM     24  O   UNL     1       4.697   3.426  17.797  0.00  0.00    +0.000 OA
ATOM     25  H   UNL     1       4.033   2.736  17.957  0.00  0.00    +0.000 HD
ENDBRANCH  18  24
ENDBRANCH  16  21
ENDBRANCH   1  17
TORSDOF 3
ENDMDL
MODEL 5
REMARK VINA RESULT:      -7.5      3.412      8.490
REMARK  Name = 
REMARK  3 active torsions:
REMARK  status: ('A' for Active; 'I' for Inactive)
REMARK    1  A    between atoms: O_1  and  C_2
REMARK    2  A    between atoms: C_5  and  C_6
REMARK    3  A    between atoms: N_7  and  N_8
REMARK                            x       y       z     vdW  Elec       q    Type
REMARK                         _______ _______ _______ _____ _____    ______ ____
ROOT
ATOM      1  N   UNL     1       3.854   4.281  17.551  0.00  0.00    +0.000 N 
ATOM      2  C   UNL     1       4.794   4.510  16.553  0.00  0.00    +0.000 A 
ATOM      3  N   UNL     1       4.745   3.865  15.414  0.00  0.00    +0.000 NA
ATOM      4  C   UNL     1       5.713   4.136  14.404  0.00  0.00    +0.000 A 
ATOM      5  C   UNL     1       5.625   3.482  13.174  0.00  0.00    +0.000 A 
ATOM      6  C   UNL     1       6.585   3.706  12.177  0.00  0.00    +0.000 A 
ATOM      7  C   UNL     1       7.644   4.587  12.402  0.00  0.00    +0.000 A 
ATOM      8  C   UNL     1       7.739   5.263  13.616  0.00  0.00    +0.000 A 
ATOM      9  C   UNL     1       6.774   5.043  14.604  0.00  0.00    +0.000 A 
ATOM     10  C   UNL     1       6.801   5.717  15.878  0.00  0.00    +0.000 A 
ATOM     11  N   UNL     1       7.646   6.601  16.374  0.00  0.00    +0.000 NA
ATOM     12  N   UNL     1       7.221   6.903  17.647  0.00  0.00    +0.000 NA
ATOM     13  C   UNL     1       6.145   6.192  17.889  0.00  0.00    +0.000 A 
ATOM     14  N   UNL     1       5.823   5.438  16.793  0.00  0.00    +0.000 N 
ATOM     15  H   UNL     1       3.208   3.526  17.328  0.00  0.00    +0.000 HD
ENDROOT
BRANCH   1  17
ATOM     16  C   UNL     1       2.581   6.131  17.940  0.00  0.00    +0.000 C 
ATOM     17  N   UNL     1       3.441   5.276  18.383  0.00  0.00    +0.000 NA
BRANCH  16  21
ATOM     18  C   UNL     1       1.190   9.228  20.517  0.00  0.00    +0.000 A 
ATOM     19  C   UNL     1       1.490   7.981  21.056  0.00  0.00    +0.000 A 
ATOM     20  C   UNL     1       1.944   6.967  20.212  0.00  0.00    +0.000 A 
ATOM     21  C   UNL     1       2.096   7.205  18.836  0.00  0.00    +0.000 A 
ATOM     22  C   UNL     1       1.786   8.458  18.305  0.00  0.00    +0.000 A 
ATOM     23  C   UNL     1       1.330   9.470  19.154  0.00  0.00    +0.000 A 
BRANCH  18  24
ATOM     24  O   UNL     1       0.752  10.252  21.303  0.00  0.00    +0.000 OA
ATOM     25  H   UNL     1       0.024  10.706  20.850  0.00  0.00    +0.000 HD
ENDBRANCH  18  24
ENDBRANCH  16  21
ENDBRANCH   1  17
TORSDOF 3
ENDMDL
MODEL 6
REMARK VINA RESULT:      -7.4      3.394      8.467
REMARK  Name = 
REMARK  3 active torsions:
REMARK  status: ('A' for Active; 'I' for Inactive)
REMARK    1  A    between atoms: O_1  and  C_2
REMARK    2  A    between atoms: C_5  and  C_6
REMARK    3  A    between atoms: N_7  and  N_8
REMARK                            x       y       z     vdW  Elec       q    Type
REMARK                         _______ _______ _______ _____ _____    ______ ____
ROOT
ATOM      1  N   UNL     1       3.877   4.336  17.637  0.00  0.00    +0.000 N 
ATOM      2  C   UNL     1       4.809   4.554  16.627  0.00  0.00    +0.000 A 
ATOM      3  N   UNL     1       4.748   3.894  15.496  0.00  0.00    +0.000 NA
ATOM      4  C   UNL     1       5.707   4.153  14.474  0.00  0.00    +0.000 A 
ATOM      5  C   UNL     1       5.607   3.484  13.253  0.00  0.00    +0.000 A 
ATOM      6  C   UNL     1       6.558   3.695  12.245  0.00  0.00    +0.000 A 
ATOM      7  C   UNL     1       7.619   4.579  12.449  0.00  0.00    +0.000 A 
ATOM      8  C   UNL     1       7.726   5.269  13.654  0.00  0.00    +0.000 A 
ATOM      9  C   UNL     1       6.770   5.061  14.653  0.00  0.00    +0.000 A 
ATOM     10  C   UNL     1       6.809   5.750  15.919  0.00  0.00    +0.000 A 
ATOM     11  N   UNL     1       7.659   6.640  16.396  0.00  0.00    +0.000 NA
ATOM     12  N   UNL     1       7.247   6.957  17.670  0.00  0.00    +0.000 NA
ATOM     13  C   UNL     1       6.173   6.250  17.930  0.00  0.00    +0.000 A 
ATOM     14  N   UNL     1       5.840   5.483  16.846  0.00  0.00    +0.000 N 
ATOM     15  H   UNL     1       3.229   3.579  17.429  0.00  0.00    +0.000 HD
ENDROOT
BRANCH   1  17
ATOM     16  C   UNL     1       2.533   6.129  18.055  0.00  0.00    +0.000 C 
ATOM     17  N   UNL     1       3.473   5.342  18.460  0.00  0.00    +0.000 NA
BRANCH  16  21
ATOM     18  C   UNL     1       1.159   9.242  20.622  0.00  0.00    +0.000 A 
ATOM     19  C   UNL     1       1.416   9.529  19.286  0.00  0.00    +0.000 A 
ATOM     20  C   UNL     1       1.867   8.511  18.445  0.00  0.00    +0.000 A 
ATOM     21  C   UNL     1       2.058   7.212  18.946  0.00  0.00    +0.000 A 
ATOM     22  C   UNL     1       1.804   6.936  20.290  0.00  0.00    +0.000 A 
ATOM     23  C   UNL     1       1.353   7.960  21.128  0.00  0.00    +0.000 A 
BRANCH  18  24
ATOM     24  O   UNL     1       0.708  10.202  21.478  0.00  0.00    +0.000 OA
ATOM     25  H   UNL     1       1.470  10.684  21.837  0.00  0.00    +0.000 HD
ENDBRANCH  18  24
ENDBRANCH  16  21
ENDBRANCH   1  17
TORSDOF 3
ENDMDL
MODEL 7
REMARK VINA RESULT:      -7.2      3.582      7.472
REMARK  Name = 
REMARK  3 active torsions:
REMARK  status: ('A' for Active; 'I' for Inactive)
REMARK    1  A    between atoms: O_1  and  C_2
REMARK    2  A    between atoms: C_5  and  C_6
REMARK    3  A    between atoms: N_7  and  N_8
REMARK                            x       y       z     vdW  Elec       q    Type
REMARK                         _______ _______ _______ _____ _____    ______ ____
ROOT
ATOM      1  N   UNL     1       1.595   7.659  21.056  0.00  0.00    +0.000 N 
ATOM      2  C   UNL     1       1.845   6.546  20.262  0.00  0.00    +0.000 A 
ATOM      3  N   UNL     1       1.422   5.355  20.610  0.00  0.00    +0.000 NA
ATOM      4  C   UNL     1       1.678   4.237  19.765  0.00  0.00    +0.000 A 
ATOM      5  C   UNL     1       1.181   2.980  20.117  0.00  0.00    +0.000 A 
ATOM      6  C   UNL     1       1.449   1.859  19.320  0.00  0.00    +0.000 A 
ATOM      7  C   UNL     1       2.219   1.984  18.162  0.00  0.00    +0.000 A 
ATOM      8  C   UNL     1       2.708   3.232  17.784  0.00  0.00    +0.000 A 
ATOM      9  C   UNL     1       2.431   4.348  18.578  0.00  0.00    +0.000 A 
ATOM     10  C   UNL     1       2.893   5.672  18.242  0.00  0.00    +0.000 A 
ATOM     11  N   UNL     1       3.612   6.108  17.226  0.00  0.00    +0.000 NA
ATOM     12  N   UNL     1       3.790   7.461  17.401  0.00  0.00    +0.000 NA
ATOM     13  C   UNL     1       3.187   7.803  18.514  0.00  0.00    +0.000 A 
ATOM     14  N   UNL     1       2.584   6.711  19.078  0.00  0.00    +0.000 N 
ATOM     15  H   UNL     1       1.140   7.429  21.938  0.00  0.00    +0.000 HD
ENDROOT
BRANCH   1  17
ATOM     16  C   UNL     1       0.203   9.390  20.545  0.00  0.00    +0.000 C 
ATOM     17  N   UNL     1       1.393   8.890  20.512  0.00  0.00    +0.000 NA
BRANCH  16  21
ATOM     18  C   UNL     1      -0.478  13.280  18.941  0.00  0.00    +0.000 A 
ATOM     19  C   UNL     1      -1.304  12.231  18.550  0.00  0.00    +0.000 A 
ATOM     20  C   UNL     1      -1.081  10.957  19.074  0.00  0.00    +0.000 A 
ATOM     21  C   UNL     1      -0.034  10.740  19.986  0.00  0.00    +0.000 A 
ATOM     22  C   UNL     1       0.794  11.798  20.366  0.00  0.00    +0.000 A 
ATOM     23  C   UNL     1       0.566  13.072  19.837  0.00  0.00    +0.000 A 
BRANCH  18  24
ATOM     24  O   UNL     1      -0.664  14.543  18.463  0.00  0.00    +0.000 OA
ATOM     25  H   UNL     1      -1.209  14.497  17.661  0.00  0.00    +0.000 HD
ENDBRANCH  18  24
ENDBRANCH  16  21
ENDBRANCH   1  17
TORSDOF 3
ENDMDL
MODEL 8
REMARK VINA RESULT:      -7.2      3.490      7.466
REMARK  Name = 
REMARK  3 active torsions:
REMARK  status: ('A' for Active; 'I' for Inactive)
REMARK    1  A    between atoms: O_1  and  C_2
REMARK    2  A    between atoms: C_5  and  C_6
REMARK    3  A    between atoms: N_7  and  N_8
REMARK                            x       y       z     vdW  Elec       q    Type
REMARK                         _______ _______ _______ _____ _____    ______ ____
ROOT
ATOM      1  N   UNL     1       1.691   7.523  20.808  0.00  0.00    +0.000 N 
ATOM      2  C   UNL     1       2.036   6.394  20.072  0.00  0.00    +0.000 A 
ATOM      3  N   UNL     1       1.678   5.195  20.461  0.00  0.00    +0.000 NA
ATOM      4  C   UNL     1       2.031   4.061  19.676  0.00  0.00    +0.000 A 
ATOM      5  C   UNL     1       1.603   2.791  20.070  0.00  0.00    +0.000 A 
ATOM      6  C   UNL     1       1.968   1.656  19.333  0.00  0.00    +0.000 A 
ATOM      7  C   UNL     1       2.765   1.779  18.194  0.00  0.00    +0.000 A 
ATOM      8  C   UNL     1       3.187   3.039  17.775  0.00  0.00    +0.000 A 
ATOM      9  C   UNL     1       2.814   4.169  18.508  0.00  0.00    +0.000 A 
ATOM     10  C   UNL     1       3.203   5.504  18.127  0.00  0.00    +0.000 A 
ATOM     11  N   UNL     1       3.926   5.941  17.113  0.00  0.00    +0.000 NA
ATOM     12  N   UNL     1       4.013   7.309  17.232  0.00  0.00    +0.000 NA
ATOM     13  C   UNL     1       3.353   7.659  18.310  0.00  0.00    +0.000 A 
ATOM     14  N   UNL     1       2.802   6.556  18.905  0.00  0.00    +0.000 N 
ATOM     15  H   UNL     1       1.223   7.303  21.684  0.00  0.00    +0.000 HD
ENDROOT
BRANCH   1  17
ATOM     16  C   UNL     1       0.359   9.353  20.537  0.00  0.00    +0.000 C 
ATOM     17  N   UNL     1       1.430   8.714  20.202  0.00  0.00    +0.000 NA
BRANCH  16  21
ATOM     18  C   UNL     1      -0.474  13.125  18.736  0.00  0.00    +0.000 A 
ATOM     19  C   UNL     1       0.647  12.995  19.548  0.00  0.00    +0.000 A 
ATOM     20  C   UNL     1       0.920  11.760  20.139  0.00  0.00    +0.000 A 
ATOM     21  C   UNL     1       0.070  10.665  19.914  0.00  0.00    +0.000 A 
ATOM     22  C   UNL     1      -1.057  10.807  19.102  0.00  0.00    +0.000 A 
ATOM     23  C   UNL     1      -1.325  12.046  18.513  0.00  0.00    +0.000 A 
BRANCH  18  24
ATOM     24  O   UNL     1      -0.775  14.308  18.129  0.00  0.00    +0.000 OA
ATOM     25  H   UNL     1      -1.277  14.860  18.751  0.00  0.00    +0.000 HD
ENDBRANCH  18  24
ENDBRANCH  16  21
ENDBRANCH   1  17
TORSDOF 3
ENDMDL
MODEL 9
REMARK VINA RESULT:      -7.2      3.356      8.274
REMARK  Name = 
REMARK  3 active torsions:
REMARK  status: ('A' for Active; 'I' for Inactive)
REMARK    1  A    between atoms: O_1  and  C_2
REMARK    2  A    between atoms: C_5  and  C_6
REMARK    3  A    between atoms: N_7  and  N_8
REMARK                            x       y       z     vdW  Elec       q    Type
REMARK                         _______ _______ _______ _____ _____    ______ ____
ROOT
ATOM      1  N   UNL     1       1.915   8.515  18.097  0.00  0.00    +0.000 N 
ATOM      2  C   UNL     1       2.896   7.533  18.174  0.00  0.00    +0.000 A 
ATOM      3  N   UNL     1       3.901   7.511  17.333  0.00  0.00    +0.000 NA
ATOM      4  C   UNL     1       4.900   6.503  17.450  0.00  0.00    +0.000 A 
ATOM      5  C   UNL     1       5.995   6.515  16.583  0.00  0.00    +0.000 A 
ATOM      6  C   UNL     1       6.973   5.514  16.655  0.00  0.00    +0.000 A 
ATOM      7  C   UNL     1       6.865   4.488  17.596  0.00  0.00    +0.000 A 
ATOM      8  C   UNL     1       5.791   4.468  18.482  0.00  0.00    +0.000 A 
ATOM      9  C   UNL     1       4.822   5.474  18.411  0.00  0.00    +0.000 A 
ATOM     10  C   UNL     1       3.691   5.525  19.303  0.00  0.00    +0.000 A 
ATOM     11  N   UNL     1       3.327   4.726  20.289  0.00  0.00    +0.000 NA
ATOM     12  N   UNL     1       2.148   5.219  20.801  0.00  0.00    +0.000 NA
ATOM     13  C   UNL     1       1.829   6.288  20.111  0.00  0.00    +0.000 A 
ATOM     14  N   UNL     1       2.783   6.539  19.162  0.00  0.00    +0.000 N 
ATOM     15  H   UNL     1       2.025   9.131  17.295  0.00  0.00    +0.000 HD
ENDROOT
BRANCH   1  17
ATOM     16  C   UNL     1       0.546  10.036  19.102  0.00  0.00    +0.000 C 
ATOM     17  N   UNL     1       1.295   8.990  19.212  0.00  0.00    +0.000 NA
BRANCH  16  21
ATOM     18  C   UNL     1      -1.487  11.532  22.536  0.00  0.00    +0.000 A 
ATOM     19  C   UNL     1      -0.655  10.425  22.670  0.00  0.00    +0.000 A 
ATOM     20  C   UNL     1       0.010   9.934  21.545  0.00  0.00    +0.000 A 
ATOM     21  C   UNL     1      -0.161  10.553  20.296  0.00  0.00    +0.000 A 
ATOM     22  C   UNL     1      -1.003  11.659  20.171  0.00  0.00    +0.000 A 
ATOM     23  C   UNL     1      -1.667  12.147  21.301  0.00  0.00    +0.000 A 
BRANCH  18  24
ATOM     24  O   UNL     1      -2.149  12.052  23.608  0.00  0.00    +0.000 OA
ATOM     25  H   UNL     1      -2.729  11.368  23.981  0.00  0.00    +0.000 HD
ENDBRANCH  18  24
ENDBRANCH  16  21
ENDBRANCH   1  17
TORSDOF 3
ENDMDL
