MODEL 1
REMARK VINA RESULT:      -9.3      0.000      0.000
REMARK  Name = 
REMARK  9 active torsions:
REMARK  status: ('A' for Active; 'I' for Inactive)
REMARK    1  A    between atoms: C_1  and  N_2
REMARK    2  A    between atoms: N_2  and  C_3
REMARK    3  A    between atoms: C_3  and  C_4
REMARK    4  A    between atoms: C_9  and  C_11
REMARK    5  A    between atoms: C_11  and  C_12
REMARK    6  A    between atoms: N_18  and  C_19
REMARK    7  A    between atoms: C_19  and  C_20
REMARK    8  A    between atoms: C_20  and  C_21
REMARK    9  A    between atoms: C_20  and  C_27
REMARK                            x       y       z     vdW  Elec       q    Type
REMARK                         _______ _______ _______ _____ _____    ______ ____
ROOT
ATOM      1  C   UNL     1       2.514   5.353  18.441  0.00  0.00    +0.000 C 
ATOM      2  C   UNL     1       2.529   4.645  19.825  0.00  0.00    +0.000 C 
ATOM      3  O   UNL     1       1.791   5.001  20.741  0.00  0.00    +0.000 OA
ATOM      4  N   UNL     1       3.413   3.632  20.056  0.00  0.00    +0.000 N 
ATOM      5  C   UNL     1       4.263   3.099  19.031  0.00  0.00    +0.000 C 
ATOM      6  C   UNL     1       3.553   3.190  17.676  0.00  0.00    +0.000 C 
ATOM      7  N   UNL     1       3.177   4.563  17.286  0.00  0.00    +0.000 NA
ATOM      8  H   UNL     1       3.405   3.244  20.991  0.00  0.00    +0.000 HD
ENDROOT
BRANCH   1   9
ATOM      9  C   UNL     1       3.040   6.780  18.695  0.00  0.00    +0.000 C 
BRANCH   9  12
ATOM     10  C   UNL     1       0.593   9.745  19.194  0.00  0.00    +0.000 C 
ATOM     11  N   UNL     1       1.535   8.711  19.633  0.00  0.00    +0.000 N 
ATOM     12  C   UNL     1       2.241   8.095  18.613  0.00  0.00    +0.000 C 
ATOM     13  O   UNL     1       2.090   8.532  17.456  0.00  0.00    +0.000 OA
BRANCH  11  14
ATOM     14  C   UNL     1       1.397   8.311  21.033  0.00  0.00    +0.000 C 
BRANCH  14  15
ATOM     15  C   UNL     1       0.543   9.260  21.810  0.00  0.00    +0.000 A 
ATOM     16  C   UNL     1      -0.621   9.185  22.539  0.00  0.00    +0.000 A 
ATOM     17  C   UNL     1      -0.851  10.501  22.982  0.00  0.00    +0.000 A 
ATOM     18  N   UNL     1       0.109  11.335  22.578  0.00  0.00    +0.000 NA
ATOM     19  O   UNL     1       0.985  10.556  21.839  0.00  0.00    +0.000 OA
ENDBRANCH  14  15
ENDBRANCH  11  14
ENDBRANCH   9  12
ENDBRANCH   1   9
BRANCH   7  20
ATOM     20  C   UNL     1       4.258   5.277  16.555  0.00  0.00    +0.000 C 
BRANCH  20  21
ATOM     21  C   UNL     1       5.683   4.631  16.273  0.00  0.00    +0.000 C 
BRANCH  21  22
ATOM     22  C   UNL     1       6.171   4.369  14.840  0.00  0.00    +0.000 A 
ATOM     23  C   UNL     1       5.490   3.576  13.907  0.00  0.00    +0.000 A 
ATOM     24  C   UNL     1       5.911   3.505  12.563  0.00  0.00    +0.000 A 
ATOM     25  C   UNL     1       7.029   4.212  12.130  0.00  0.00    +0.000 A 
ATOM     26  C   UNL     1       7.733   4.987  13.041  0.00  0.00    +0.000 A 
ATOM     27  C   UNL     1       7.312   5.062  14.377  0.00  0.00    +0.000 A 
ENDBRANCH  21  22
BRANCH  21  28
ATOM     28  C   UNL     1       6.691   5.490  17.067  0.00  0.00    +0.000 A 
ATOM     29  C   UNL     1       7.378   4.922  18.153  0.00  0.00    +0.000 A 
ATOM     30  C   UNL     1       8.145   5.717  19.008  0.00  0.00    +0.000 A 
ATOM     31  C   UNL     1       8.244   7.089  18.786  0.00  0.00    +0.000 A 
ATOM     32  C   UNL     1       7.597   7.663  17.696  0.00  0.00    +0.000 A 
ATOM     33  C   UNL     1       6.830   6.871  16.838  0.00  0.00    +0.000 A 
ENDBRANCH  21  28
ENDBRANCH  20  21
ENDBRANCH   7  20
TORSDOF 8
ENDMDL
MODEL 2
REMARK VINA RESULT:      -9.0      0.340      1.248
REMARK  Name = 
REMARK  9 active torsions:
REMARK  status: ('A' for Active; 'I' for Inactive)
REMARK    1  A    between atoms: C_1  and  N_2
REMARK    2  A    between atoms: N_2  and  C_3
REMARK    3  A    between atoms: C_3  and  C_4
REMARK    4  A    between atoms: C_9  and  C_11
REMARK    5  A    between atoms: C_11  and  C_12
REMARK    6  A    between atoms: N_18  and  C_19
REMARK    7  A    between atoms: C_19  and  C_20
REMARK    8  A    between atoms: C_20  and  C_21
REMARK    9  A    between atoms: C_20  and  C_27
REMARK                            x       y       z     vdW  Elec       q    Type
REMARK                         _______ _______ _______ _____ _____    ______ ____
ROOT
ATOM      1  C   UNL     1       2.402   5.125  18.807  0.00  0.00    +0.000 C 
ATOM      2  C   UNL     1       2.579   4.317  20.123  0.00  0.00    +0.000 C 
ATOM      3  O   UNL     1       1.930   4.578  21.133  0.00  0.00    +0.000 OA
ATOM      4  N   UNL     1       3.508   3.321  20.184  0.00  0.00    +0.000 N 
ATOM      5  C   UNL     1       4.261   2.894  19.040  0.00  0.00    +0.000 C 
ATOM      6  C   UNL     1       3.412   3.061  17.774  0.00  0.00    +0.000 C 
ATOM      7  N   UNL     1       2.962   4.447  17.533  0.00  0.00    +0.000 NA
ATOM      8  H   UNL     1       3.607   2.864  21.082  0.00  0.00    +0.000 HD
ENDROOT
BRANCH   1   9
ATOM      9  C   UNL     1       2.913   6.546  19.116  0.00  0.00    +0.000 C 
BRANCH   9  12
ATOM     10  C   UNL     1       0.579   9.628  19.398  0.00  0.00    +0.000 C 
ATOM     11  N   UNL     1       1.508   8.614  19.905  0.00  0.00    +0.000 N 
ATOM     12  C   UNL     1       2.151   7.872  18.928  0.00  0.00    +0.000 C 
ATOM     13  O   UNL     1       1.963   8.192  17.739  0.00  0.00    +0.000 OA
BRANCH  11  14
ATOM     14  C   UNL     1       1.419   8.367  21.344  0.00  0.00    +0.000 C 
BRANCH  14  15
ATOM     15  C   UNL     1       0.508   9.333  22.029  0.00  0.00    +0.000 A 
ATOM     16  C   UNL     1      -0.663   9.263  22.747  0.00  0.00    +0.000 A 
ATOM     17  C   UNL     1      -0.962  10.597  23.076  0.00  0.00    +0.000 A 
ATOM     18  N   UNL     1      -0.037  11.441  22.616  0.00  0.00    +0.000 NA
ATOM     19  O   UNL     1       0.888  10.647  21.955  0.00  0.00    +0.000 OA
ENDBRANCH  14  15
ENDBRANCH  11  14
ENDBRANCH   9  12
ENDBRANCH   1   9
BRANCH   7  20
ATOM     20  C   UNL     1       3.942   5.249  16.754  0.00  0.00    +0.000 C 
BRANCH  20  21
ATOM     21  C   UNL     1       5.425   4.755  16.460  0.00  0.00    +0.000 C 
BRANCH  21  22
ATOM     22  C   UNL     1       5.957   4.637  15.024  0.00  0.00    +0.000 A 
ATOM     23  C   UNL     1       7.188   5.149  14.594  0.00  0.00    +0.000 A 
ATOM     24  C   UNL     1       7.686   4.869  13.304  0.00  0.00    +0.000 A 
ATOM     25  C   UNL     1       6.955   4.087  12.414  0.00  0.00    +0.000 A 
ATOM     26  C   UNL     1       5.721   3.588  12.810  0.00  0.00    +0.000 A 
ATOM     27  C   UNL     1       5.228   3.862  14.094  0.00  0.00    +0.000 A 
ENDBRANCH  21  22
BRANCH  21  28
ATOM     28  C   UNL     1       6.338   5.645  17.331  0.00  0.00    +0.000 A 
ATOM     29  C   UNL     1       6.503   7.000  16.999  0.00  0.00    +0.000 A 
ATOM     30  C   UNL     1       7.466   7.782  17.643  0.00  0.00    +0.000 A 
ATOM     31  C   UNL     1       8.271   7.224  18.633  0.00  0.00    +0.000 A 
ATOM     32  C   UNL     1       8.099   5.892  18.997  0.00  0.00    +0.000 A 
ATOM     33  C   UNL     1       7.136   5.107  18.356  0.00  0.00    +0.000 A 
ENDBRANCH  21  28
ENDBRANCH  20  21
ENDBRANCH   7  20
TORSDOF 8
ENDMDL
MODEL 3
REMARK VINA RESULT:      -8.8      1.035      3.500
REMARK  Name = 
REMARK  9 active torsions:
REMARK  status: ('A' for Active; 'I' for Inactive)
REMARK    1  A    between atoms: C_1  and  N_2
REMARK    2  A    between atoms: N_2  and  C_3
REMARK    3  A    between atoms: C_3  and  C_4
REMARK    4  A    between atoms: C_9  and  C_11
REMARK    5  A    between atoms: C_11  and  C_12
REMARK    6  A    between atoms: N_18  and  C_19
REMARK    7  A    between atoms: C_19  and  C_20
REMARK    8  A    between atoms: C_20  and  C_21
REMARK    9  A    between atoms: C_20  and  C_27
REMARK                            x       y       z     vdW  Elec       q    Type
REMARK                         _______ _______ _______ _____ _____    ______ ____
ROOT
ATOM      1  C   UNL     1       2.556   4.376  18.035  0.00  0.00    +0.000 C 
ATOM      2  C   UNL     1       1.719   3.687  19.148  0.00  0.00    +0.000 C 
ATOM      3  O   UNL     1       0.764   4.249  19.680  0.00  0.00    +0.000 OA
ATOM      4  N   UNL     1       2.070   2.445  19.587  0.00  0.00    +0.000 N 
ATOM      5  C   UNL     1       3.121   1.679  18.982  0.00  0.00    +0.000 C 
ATOM      6  C   UNL     1       3.195   2.002  17.485  0.00  0.00    +0.000 C 
ATOM      7  N   UNL     1       3.443   3.427  17.191  0.00  0.00    +0.000 NA
ATOM      8  H   UNL     1       1.513   2.071  20.346  0.00  0.00    +0.000 HD
ENDROOT
BRANCH   1   9
ATOM      9  C   UNL     1       3.267   5.561  18.718  0.00  0.00    +0.000 C 
BRANCH   9  12
ATOM     10  C   UNL     1       1.606   9.036  19.150  0.00  0.00    +0.000 C 
ATOM     11  N   UNL     1       2.145   7.755  19.614  0.00  0.00    +0.000 N 
ATOM     12  C   UNL     1       2.862   7.046  18.664  0.00  0.00    +0.000 C 
ATOM     13  O   UNL     1       3.063   7.593  17.563  0.00  0.00    +0.000 OA
BRANCH  11  14
ATOM     14  C   UNL     1       1.631   7.306  20.907  0.00  0.00    +0.000 C 
BRANCH  14  15
ATOM     15  C   UNL     1       0.819   8.359  21.589  0.00  0.00    +0.000 A 
ATOM     16  C   UNL     1      -0.490   8.780  21.564  0.00  0.00    +0.000 A 
ATOM     17  C   UNL     1      -0.538   9.854  22.472  0.00  0.00    +0.000 A 
ATOM     18  N   UNL     1       0.649  10.077  23.039  0.00  0.00    +0.000 NA
ATOM     19  O   UNL     1       1.504   9.138  22.483  0.00  0.00    +0.000 OA
ENDBRANCH  14  15
ENDBRANCH  11  14
ENDBRANCH   9  12
ENDBRANCH   1   9
BRANCH   7  20
ATOM     20  C   UNL     1       4.889   3.769  17.143  0.00  0.00    +0.000 C 
BRANCH  20  21
ATOM     21  C   UNL     1       5.446   5.070  16.418  0.00  0.00    +0.000 C 
BRANCH  21  22
ATOM     22  C   UNL     1       6.488   5.975  17.092  0.00  0.00    +0.000 A 
ATOM     23  C   UNL     1       6.654   7.336  16.806  0.00  0.00    +0.000 A 
ATOM     24  C   UNL     1       7.520   8.144  17.573  0.00  0.00    +0.000 A 
ATOM     25  C   UNL     1       8.248   7.603  18.628  0.00  0.00    +0.000 A 
ATOM     26  C   UNL     1       8.117   6.251  18.916  0.00  0.00    +0.000 A 
ATOM     27  C   UNL     1       7.253   5.449  18.157  0.00  0.00    +0.000 A 
ENDBRANCH  21  22
BRANCH  21  28
ATOM     28  C   UNL     1       5.922   4.596  15.027  0.00  0.00    +0.000 A 
ATOM     29  C   UNL     1       7.162   5.038  14.534  0.00  0.00    +0.000 A 
ATOM     30  C   UNL     1       7.534   4.790  13.210  0.00  0.00    +0.000 A 
ATOM     31  C   UNL     1       6.678   4.090  12.363  0.00  0.00    +0.000 A 
ATOM     32  C   UNL     1       5.461   3.617  12.844  0.00  0.00    +0.000 A 
ATOM     33  C   UNL     1       5.085   3.863  14.168  0.00  0.00    +0.000 A 
ENDBRANCH  21  28
ENDBRANCH  20  21
ENDBRANCH   7  20
TORSDOF 8
ENDMDL
MODEL 4
REMARK VINA RESULT:      -8.5      0.933      1.303
REMARK  Name = 
REMARK  9 active torsions:
REMARK  status: ('A' for Active; 'I' for Inactive)
REMARK    1  A    between atoms: C_1  and  N_2
REMARK    2  A    between atoms: N_2  and  C_3
REMARK    3  A    between atoms: C_3  and  C_4
REMARK    4  A    between atoms: C_9  and  C_11
REMARK    5  A    between atoms: C_11  and  C_12
REMARK    6  A    between atoms: N_18  and  C_19
REMARK    7  A    between atoms: C_19  and  C_20
REMARK    8  A    between atoms: C_20  and  C_21
REMARK    9  A    between atoms: C_20  and  C_27
REMARK                            x       y       z     vdW  Elec       q    Type
REMARK                         _______ _______ _______ _____ _____    ______ ____
ROOT
ATOM      1  C   UNL     1       2.434   5.284  18.522  0.00  0.00    +0.000 C 
ATOM      2  C   UNL     1       2.398   4.486  19.854  0.00  0.00    +0.000 C 
ATOM      3  O   UNL     1       1.589   4.747  20.742  0.00  0.00    +0.000 OA
ATOM      4  N   UNL     1       3.312   3.498  20.075  0.00  0.00    +0.000 N 
ATOM      5  C   UNL     1       4.247   3.072  19.075  0.00  0.00    +0.000 C 
ATOM      6  C   UNL     1       3.618   3.224  17.686  0.00  0.00    +0.000 C 
ATOM      7  N   UNL     1       3.203   4.603  17.362  0.00  0.00    +0.000 NA
ATOM      8  H   UNL     1       3.265   3.048  20.981  0.00  0.00    +0.000 HD
ENDROOT
BRANCH   1   9
ATOM      9  C   UNL     1       2.876   6.712  18.900  0.00  0.00    +0.000 C 
BRANCH   9  12
ATOM     10  C   UNL     1       0.883   9.927  18.057  0.00  0.00    +0.000 C 
ATOM     11  N   UNL     1       1.509   8.948  18.950  0.00  0.00    +0.000 N 
ATOM     12  C   UNL     1       2.341   8.036  18.323  0.00  0.00    +0.000 C 
ATOM     13  O   UNL     1       2.555   8.188  17.105  0.00  0.00    +0.000 OA
BRANCH  11  14
ATOM     14  C   UNL     1       0.964   8.921  20.307  0.00  0.00    +0.000 C 
BRANCH  14  15
ATOM     15  C   UNL     1       0.426  10.250  20.728  0.00  0.00    +0.000 A 
ATOM     16  C   UNL     1       0.942  11.416  21.242  0.00  0.00    +0.000 A 
ATOM     17  C   UNL     1      -0.174  12.255  21.414  0.00  0.00    +0.000 A 
ATOM     18  N   UNL     1      -1.304  11.666  21.019  0.00  0.00    +0.000 NA
ATOM     19  O   UNL     1      -0.928  10.403  20.589  0.00  0.00    +0.000 OA
ENDBRANCH  14  15
ENDBRANCH  11  14
ENDBRANCH   9  12
ENDBRANCH   1   9
BRANCH   7  20
ATOM     20  C   UNL     1       4.291   5.410  16.750  0.00  0.00    +0.000 C 
BRANCH  20  21
ATOM     21  C   UNL     1       5.702   4.796  16.349  0.00  0.00    +0.000 C 
BRANCH  21  22
ATOM     22  C   UNL     1       6.120   4.649  14.879  0.00  0.00    +0.000 A 
ATOM     23  C   UNL     1       7.289   5.193  14.332  0.00  0.00    +0.000 A 
ATOM     24  C   UNL     1       7.691   4.888  13.015  0.00  0.00    +0.000 A 
ATOM     25  C   UNL     1       6.924   4.047  12.215  0.00  0.00    +0.000 A 
ATOM     26  C   UNL     1       5.749   3.513  12.727  0.00  0.00    +0.000 A 
ATOM     27  C   UNL     1       5.351   3.813  14.037  0.00  0.00    +0.000 A 
ENDBRANCH  21  22
BRANCH  21  28
ATOM     28  C   UNL     1       6.747   5.596  17.158  0.00  0.00    +0.000 A 
ATOM     29  C   UNL     1       7.362   4.999  18.272  0.00  0.00    +0.000 A 
ATOM     30  C   UNL     1       8.160   5.753  19.136  0.00  0.00    +0.000 A 
ATOM     31  C   UNL     1       8.362   7.110  18.897  0.00  0.00    +0.000 A 
ATOM     32  C   UNL     1       7.786   7.709  17.780  0.00  0.00    +0.000 A 
ATOM     33  C   UNL     1       6.988   6.959  16.913  0.00  0.00    +0.000 A 
ENDBRANCH  21  28
ENDBRANCH  20  21
ENDBRANCH   7  20
TORSDOF 8
ENDMDL
MODEL 5
REMARK VINA RESULT:      -8.5      0.688      1.124
REMARK  Name = 
REMARK  9 active torsions:
REMARK  status: ('A' for Active; 'I' for Inactive)
REMARK    1  A    between atoms: C_1  and  N_2
REMARK    2  A    between atoms: N_2  and  C_3
REMARK    3  A    between atoms: C_3  and  C_4
REMARK    4  A    between atoms: C_9  and  C_11
REMARK    5  A    between atoms: C_11  and  C_12
REMARK    6  A    between atoms: N_18  and  C_19
REMARK    7  A    between atoms: C_19  and  C_20
REMARK    8  A    between atoms: C_20  and  C_21
REMARK    9  A    between atoms: C_20  and  C_27
REMARK                            x       y       z     vdW  Elec       q    Type
REMARK                         _______ _______ _______ _____ _____    ______ ____
ROOT
ATOM      1  C   UNL     1       2.365   5.159  18.802  0.00  0.00    +0.000 C 
ATOM      2  C   UNL     1       2.497   4.382  20.141  0.00  0.00    +0.000 C 
ATOM      3  O   UNL     1       1.849   4.696  21.137  0.00  0.00    +0.000 OA
ATOM      4  N   UNL     1       3.386   3.353  20.241  0.00  0.00    +0.000 N 
ATOM      5  C   UNL     1       4.134   2.866  19.119  0.00  0.00    +0.000 C 
ATOM      6  C   UNL     1       3.306   3.030  17.839  0.00  0.00    +0.000 C 
ATOM      7  N   UNL     1       2.913   4.424  17.554  0.00  0.00    +0.000 NA
ATOM      8  H   UNL     1       3.458   2.918  21.153  0.00  0.00    +0.000 HD
ENDROOT
BRANCH   1   9
ATOM      9  C   UNL     1       2.928   6.567  19.077  0.00  0.00    +0.000 C 
BRANCH   9  12
ATOM     10  C   UNL     1       0.661   9.711  19.034  0.00  0.00    +0.000 C 
ATOM     11  N   UNL     1       1.469   8.665  19.666  0.00  0.00    +0.000 N 
ATOM     12  C   UNL     1       2.241   7.917  18.793  0.00  0.00    +0.000 C 
ATOM     13  O   UNL     1       2.255   8.257  17.594  0.00  0.00    +0.000 OA
BRANCH  11  14
ATOM     14  C   UNL     1       1.143   8.402  21.068  0.00  0.00    +0.000 C 
BRANCH  14  15
ATOM     15  C   UNL     1       0.401   9.536  21.698  0.00  0.00    +0.000 A 
ATOM     16  C   UNL     1       0.397  10.907  21.590  0.00  0.00    +0.000 A 
ATOM     17  C   UNL     1      -0.568  11.336  22.520  0.00  0.00    +0.000 A 
ATOM     18  N   UNL     1      -1.141  10.308  23.150  0.00  0.00    +0.000 NA
ATOM     19  O   UNL     1      -0.531   9.175  22.635  0.00  0.00    +0.000 OA
ENDBRANCH  14  15
ENDBRANCH  11  14
ENDBRANCH   9  12
ENDBRANCH   1   9
BRANCH   7  20
ATOM     20  C   UNL     1       3.931   5.166  16.764  0.00  0.00    +0.000 C 
BRANCH  20  21
ATOM     21  C   UNL     1       5.415   4.636  16.553  0.00  0.00    +0.000 C 
BRANCH  21  22
ATOM     22  C   UNL     1       5.984   4.394  15.147  0.00  0.00    +0.000 A 
ATOM     23  C   UNL     1       5.327   3.671  14.144  0.00  0.00    +0.000 A 
ATOM     24  C   UNL     1       5.833   3.620  12.828  0.00  0.00    +0.000 A 
ATOM     25  C   UNL     1       7.013   4.277  12.495  0.00  0.00    +0.000 A 
ATOM     26  C   UNL     1       7.695   4.982  13.478  0.00  0.00    +0.000 A 
ATOM     27  C   UNL     1       7.189   5.037  14.785  0.00  0.00    +0.000 A 
ENDBRANCH  21  22
BRANCH  21  28
ATOM     28  C   UNL     1       6.315   5.589  17.372  0.00  0.00    +0.000 A 
ATOM     29  C   UNL     1       6.477   6.919  16.950  0.00  0.00    +0.000 A 
ATOM     30  C   UNL     1       7.429   7.748  17.549  0.00  0.00    +0.000 A 
ATOM     31  C   UNL     1       8.226   7.263  18.583  0.00  0.00    +0.000 A 
ATOM     32  C   UNL     1       8.055   5.958  19.036  0.00  0.00    +0.000 A 
ATOM     33  C   UNL     1       7.104   5.126  18.440  0.00  0.00    +0.000 A 
ENDBRANCH  21  28
ENDBRANCH  20  21
ENDBRANCH   7  20
TORSDOF 8
ENDMDL
MODEL 6
REMARK VINA RESULT:      -8.3      3.439      7.346
REMARK  Name = 
REMARK  9 active torsions:
REMARK  status: ('A' for Active; 'I' for Inactive)
REMARK    1  A    between atoms: C_1  and  N_2
REMARK    2  A    between atoms: N_2  and  C_3
REMARK    3  A    between atoms: C_3  and  C_4
REMARK    4  A    between atoms: C_9  and  C_11
REMARK    5  A    between atoms: C_11  and  C_12
REMARK    6  A    between atoms: N_18  and  C_19
REMARK    7  A    between atoms: C_19  and  C_20
REMARK    8  A    between atoms: C_20  and  C_21
REMARK    9  A    between atoms: C_20  and  C_27
REMARK                            x       y       z     vdW  Elec       q    Type
REMARK                         _______ _______ _______ _____ _____    ______ ____
ROOT
ATOM      1  C   UNL     1       6.422   4.902  18.254  0.00  0.00    +0.000 C 
ATOM      2  C   UNL     1       7.362   4.417  17.115  0.00  0.00    +0.000 C 
ATOM      3  O   UNL     1       8.542   4.142  17.324  0.00  0.00    +0.000 OA
ATOM      4  N   UNL     1       6.891   4.337  15.838  0.00  0.00    +0.000 N 
ATOM      5  C   UNL     1       5.515   4.568  15.505  0.00  0.00    +0.000 C 
ATOM      6  C   UNL     1       4.624   4.124  16.671  0.00  0.00    +0.000 C 
ATOM      7  N   UNL     1       4.908   4.819  17.942  0.00  0.00    +0.000 NA
ATOM      8  H   UNL     1       7.566   4.060  15.135  0.00  0.00    +0.000 HD
ENDROOT
BRANCH   1   9
ATOM      9  C   UNL     1       6.965   6.277  18.689  0.00  0.00    +0.000 C 
BRANCH   9  12
ATOM     10  C   UNL     1       7.941   9.715  17.188  0.00  0.00    +0.000 C 
ATOM     11  N   UNL     1       8.092   8.566  18.085  0.00  0.00    +0.000 N 
ATOM     12  C   UNL     1       7.287   7.480  17.782  0.00  0.00    +0.000 C 
ATOM     13  O   UNL     1       6.600   7.539  16.745  0.00  0.00    +0.000 OA
BRANCH  11  14
ATOM     14  C   UNL     1       8.864   8.834  19.298  0.00  0.00    +0.000 C 
BRANCH  14  15
ATOM     15  C   UNL     1       9.363  10.242  19.352  0.00  0.00    +0.000 A 
ATOM     16  C   UNL     1      10.192  11.035  18.595  0.00  0.00    +0.000 A 
ATOM     17  C   UNL     1      10.218  12.270  19.267  0.00  0.00    +0.000 A 
ATOM     18  N   UNL     1       9.445  12.259  20.355  0.00  0.00    +0.000 NA
ATOM     19  O   UNL     1       8.908  10.982  20.410  0.00  0.00    +0.000 OA
ENDBRANCH  14  15
ENDBRANCH  11  14
ENDBRANCH   9  12
ENDBRANCH   1   9
BRANCH   7  20
ATOM     20  C   UNL     1       4.149   6.089  18.092  0.00  0.00    +0.000 C 
BRANCH  20  21
ATOM     21  C   UNL     1       3.231   6.403  19.352  0.00  0.00    +0.000 C 
BRANCH  21  22
ATOM     22  C   UNL     1       2.231   7.570  19.340  0.00  0.00    +0.000 A 
ATOM     23  C   UNL     1       1.567   8.051  20.475  0.00  0.00    +0.000 A 
ATOM     24  C   UNL     1       0.785   9.224  20.422  0.00  0.00    +0.000 A 
ATOM     25  C   UNL     1       0.638   9.927  19.230  0.00  0.00    +0.000 A 
ATOM     26  C   UNL     1       1.269   9.456  18.086  0.00  0.00    +0.000 A 
ATOM     27  C   UNL     1       2.050   8.293  18.140  0.00  0.00    +0.000 A 
ENDBRANCH  21  22
BRANCH  21  28
ATOM     28  C   UNL     1       2.539   5.068  19.704  0.00  0.00    +0.000 A 
ATOM     29  C   UNL     1       1.652   4.485  18.783  0.00  0.00    +0.000 A 
ATOM     30  C   UNL     1       0.866   3.388  19.143  0.00  0.00    +0.000 A 
ATOM     31  C   UNL     1       0.959   2.852  20.425  0.00  0.00    +0.000 A 
ATOM     32  C   UNL     1       1.856   3.397  21.340  0.00  0.00    +0.000 A 
ATOM     33  C   UNL     1       2.645   4.493  20.983  0.00  0.00    +0.000 A 
ENDBRANCH  21  28
ENDBRANCH  20  21
ENDBRANCH   7  20
TORSDOF 8
ENDMDL
MODEL 7
REMARK VINA RESULT:      -8.2      1.462      2.070
REMARK  Name = 
REMARK  9 active torsions:
REMARK  status: ('A' for Active; 'I' for Inactive)
REMARK    1  A    between atoms: C_1  and  N_2
REMARK    2  A    between atoms: N_2  and  C_3
REMARK    3  A    between atoms: C_3  and  C_4
REMARK    4  A    between atoms: C_9  and  C_11
REMARK    5  A    between atoms: C_11  and  C_12
REMARK    6  A    between atoms: N_18  and  C_19
REMARK    7  A    between atoms: C_19  and  C_20
REMARK    8  A    between atoms: C_20  and  C_21
REMARK    9  A    between atoms: C_20  and  C_27
REMARK                            x       y       z     vdW  Elec       q    Type
REMARK                         _______ _______ _______ _____ _____    ______ ____
ROOT
ATOM      1  C   UNL     1       2.163   5.312  18.591  0.00  0.00    +0.000 C 
ATOM      2  C   UNL     1       1.938   4.349  19.790  0.00  0.00    +0.000 C 
ATOM      3  O   UNL     1       1.057   4.549  20.623  0.00  0.00    +0.000 OA
ATOM      4  N   UNL     1       2.764   3.277  19.960  0.00  0.00    +0.000 N 
ATOM      5  C   UNL     1       3.773   2.920  19.005  0.00  0.00    +0.000 C 
ATOM      6  C   UNL     1       3.305   3.299  17.596  0.00  0.00    +0.000 C 
ATOM      7  N   UNL     1       3.009   4.736  17.429  0.00  0.00    +0.000 NA
ATOM      8  H   UNL     1       2.594   2.715  20.785  0.00  0.00    +0.000 HD
ENDROOT
BRANCH   1   9
ATOM      9  C   UNL     1       2.645   6.641  19.205  0.00  0.00    +0.000 C 
BRANCH   9  12
ATOM     10  C   UNL     1       0.849   9.682  20.801  0.00  0.00    +0.000 C 
ATOM     11  N   UNL     1       1.251   8.806  19.697  0.00  0.00    +0.000 N 
ATOM     12  C   UNL     1       1.833   7.610  20.085  0.00  0.00    +0.000 C 
ATOM     13  O   UNL     1       1.868   7.350  21.302  0.00  0.00    +0.000 OA
BRANCH  11  14
ATOM     14  C   UNL     1       1.218   9.431  18.375  0.00  0.00    +0.000 C 
BRANCH  14  15
ATOM     15  C   UNL     1       0.004  10.282  18.182  0.00  0.00    +0.000 A 
ATOM     16  C   UNL     1      -1.300  10.084  17.793  0.00  0.00    +0.000 A 
ATOM     17  C   UNL     1      -1.881  11.365  17.824  0.00  0.00    +0.000 A 
ATOM     18  N   UNL     1      -1.011  12.295  18.223  0.00  0.00    +0.000 NA
ATOM     19  O   UNL     1       0.176  11.615  18.447  0.00  0.00    +0.000 OA
ENDBRANCH  14  15
ENDBRANCH  11  14
ENDBRANCH   9  12
ENDBRANCH   1   9
BRANCH   7  20
ATOM     20  C   UNL     1       4.202   5.535  17.043  0.00  0.00    +0.000 C 
BRANCH  20  21
ATOM     21  C   UNL     1       5.604   4.877  16.685  0.00  0.00    +0.000 C 
BRANCH  21  22
ATOM     22  C   UNL     1       5.968   4.510  15.239  0.00  0.00    +0.000 A 
ATOM     23  C   UNL     1       5.109   3.845  14.354  0.00  0.00    +0.000 A 
ATOM     24  C   UNL     1       5.446   3.679  12.994  0.00  0.00    +0.000 A 
ATOM     25  C   UNL     1       6.654   4.160  12.498  0.00  0.00    +0.000 A 
ATOM     26  C   UNL     1       7.532   4.802  13.361  0.00  0.00    +0.000 A 
ATOM     27  C   UNL     1       7.195   4.971  14.711  0.00  0.00    +0.000 A 
ENDBRANCH  21  22
BRANCH  21  28
ATOM     28  C   UNL     1       6.669   5.799  17.320  0.00  0.00    +0.000 A 
ATOM     29  C   UNL     1       7.401   5.347  18.430  0.00  0.00    +0.000 A 
ATOM     30  C   UNL     1       8.226   6.218  19.146  0.00  0.00    +0.000 A 
ATOM     31  C   UNL     1       8.338   7.551  18.758  0.00  0.00    +0.000 A 
ATOM     32  C   UNL     1       7.646   8.008  17.640  0.00  0.00    +0.000 A 
ATOM     33  C   UNL     1       6.820   7.139  16.922  0.00  0.00    +0.000 A 
ENDBRANCH  21  28
ENDBRANCH  20  21
ENDBRANCH   7  20
TORSDOF 8
ENDMDL
MODEL 8
REMARK VINA RESULT:      -8.0      1.441      2.404
REMARK  Name = 
REMARK  9 active torsions:
REMARK  status: ('A' for Active; 'I' for Inactive)
REMARK    1  A    between atoms: C_1  and  N_2
REMARK    2  A    between atoms: N_2  and  C_3
REMARK    3  A    between atoms: C_3  and  C_4
REMARK    4  A    between atoms: C_9  and  C_11
REMARK    5  A    between atoms: C_11  and  C_12
REMARK    6  A    between atoms: N_18  and  C_19
REMARK    7  A    between atoms: C_19  and  C_20
REMARK    8  A    between atoms: C_20  and  C_21
REMARK    9  A    between atoms: C_20  and  C_27
REMARK                            x       y       z     vdW  Elec       q    Type
REMARK                         _______ _______ _______ _____ _____    ______ ____
ROOT
ATOM      1  C   UNL     1       2.183   4.872  18.818  0.00  0.00    +0.000 C 
ATOM      2  C   UNL     1       2.239   3.902  20.030  0.00  0.00    +0.000 C 
ATOM      3  O   UNL     1       1.475   4.018  20.986  0.00  0.00    +0.000 OA
ATOM      4  N   UNL     1       3.185   2.921  20.068  0.00  0.00    +0.000 N 
ATOM      5  C   UNL     1       4.072   2.660  18.972  0.00  0.00    +0.000 C 
ATOM      6  C   UNL     1       3.364   2.978  17.650  0.00  0.00    +0.000 C 
ATOM      7  N   UNL     1       2.901   4.375  17.539  0.00  0.00    +0.000 NA
ATOM      8  H   UNL     1       3.198   2.352  20.905  0.00  0.00    +0.000 HD
ENDROOT
BRANCH   1   9
ATOM      9  C   UNL     1       2.614   6.249  19.362  0.00  0.00    +0.000 C 
BRANCH   9  12
ATOM     10  C   UNL     1       0.890   9.293  21.030  0.00  0.00    +0.000 C 
ATOM     11  N   UNL     1       1.354   8.484  19.899  0.00  0.00    +0.000 N 
ATOM     12  C   UNL     1       1.780   7.209  20.231  0.00  0.00    +0.000 C 
ATOM     13  O   UNL     1       1.640   6.840  21.413  0.00  0.00    +0.000 OA
BRANCH  11  14
ATOM     14  C   UNL     1       1.541   9.225  18.652  0.00  0.00    +0.000 C 
BRANCH  14  15
ATOM     15  C   UNL     1       0.584  10.366  18.523  0.00  0.00    +0.000 A 
ATOM     16  C   UNL     1       0.602  11.715  18.785  0.00  0.00    +0.000 A 
ATOM     17  C   UNL     1      -0.682  12.166  18.427  0.00  0.00    +0.000 A 
ATOM     18  N   UNL     1      -1.442  11.176  17.955  0.00  0.00    +0.000 NA
ATOM     19  O   UNL     1      -0.647  10.042  18.017  0.00  0.00    +0.000 OA
ENDBRANCH  14  15
ENDBRANCH  11  14
ENDBRANCH   9  12
ENDBRANCH   1   9
BRANCH   7  20
ATOM     20  C   UNL     1       3.936   5.288  16.985  0.00  0.00    +0.000 C 
BRANCH  20  21
ATOM     21  C   UNL     1       5.413   4.812  16.638  0.00  0.00    +0.000 C 
BRANCH  21  22
ATOM     22  C   UNL     1       5.882   4.664  15.183  0.00  0.00    +0.000 A 
ATOM     23  C   UNL     1       7.126   5.099  14.707  0.00  0.00    +0.000 A 
ATOM     24  C   UNL     1       7.557   4.791  13.400  0.00  0.00    +0.000 A 
ATOM     25  C   UNL     1       6.746   4.058  12.538  0.00  0.00    +0.000 A 
ATOM     26  C   UNL     1       5.499   3.636  12.980  0.00  0.00    +0.000 A 
ATOM     27  C   UNL     1       5.073   3.937  14.281  0.00  0.00    +0.000 A 
ENDBRANCH  21  22
BRANCH  21  28
ATOM     28  C   UNL     1       6.348   5.741  17.444  0.00  0.00    +0.000 A 
ATOM     29  C   UNL     1       6.526   7.071  17.027  0.00  0.00    +0.000 A 
ATOM     30  C   UNL     1       7.506   7.877  17.612  0.00  0.00    +0.000 A 
ATOM     31  C   UNL     1       8.316   7.370  18.625  0.00  0.00    +0.000 A 
ATOM     32  C   UNL     1       8.131   6.065  19.072  0.00  0.00    +0.000 A 
ATOM     33  C   UNL     1       7.151   5.255  18.490  0.00  0.00    +0.000 A 
ENDBRANCH  21  28
ENDBRANCH  20  21
ENDBRANCH   7  20
TORSDOF 8
ENDMDL
MODEL 9
REMARK VINA RESULT:      -7.9      3.629      7.368
REMARK  Name = 
REMARK  9 active torsions:
REMARK  status: ('A' for Active; 'I' for Inactive)
REMARK    1  A    between atoms: C_1  and  N_2
REMARK    2  A    between atoms: N_2  and  C_3
REMARK    3  A    between atoms: C_3  and  C_4
REMARK    4  A    between atoms: C_9  and  C_11
REMARK    5  A    between atoms: C_11  and  C_12
REMARK    6  A    between atoms: N_18  and  C_19
REMARK    7  A    between atoms: C_19  and  C_20
REMARK    8  A    between atoms: C_20  and  C_21
REMARK    9  A    between atoms: C_20  and  C_27
REMARK                            x       y       z     vdW  Elec       q    Type
REMARK                         _______ _______ _______ _____ _____    ______ ____
ROOT
ATOM      1  C   UNL     1       6.484   4.902  18.492  0.00  0.00    +0.000 C 
ATOM      2  C   UNL     1       7.499   4.349  17.452  0.00  0.00    +0.000 C 
ATOM      3  O   UNL     1       8.667   4.112  17.753  0.00  0.00    +0.000 OA
ATOM      4  N   UNL     1       7.107   4.162  16.159  0.00  0.00    +0.000 N 
ATOM      5  C   UNL     1       5.751   4.341  15.728  0.00  0.00    +0.000 C 
ATOM      6  C   UNL     1       4.796   3.972  16.869  0.00  0.00    +0.000 C 
ATOM      7  N   UNL     1       4.992   4.767  18.097  0.00  0.00    +0.000 NA
ATOM      8  H   UNL     1       7.827   3.845  15.522  0.00  0.00    +0.000 HD
ENDROOT
BRANCH   1   9
ATOM      9  C   UNL     1       6.980   6.316  18.851  0.00  0.00    +0.000 C 
BRANCH   9  12
ATOM     10  C   UNL     1       8.106   9.611  17.147  0.00  0.00    +0.000 C 
ATOM     11  N   UNL     1       8.190   8.528  18.131  0.00  0.00    +0.000 N 
ATOM     12  C   UNL     1       7.371   7.441  17.873  0.00  0.00    +0.000 C 
ATOM     13  O   UNL     1       6.730   7.439  16.805  0.00  0.00    +0.000 OA
BRANCH  11  14
ATOM     14  C   UNL     1       8.918   8.867  19.354  0.00  0.00    +0.000 C 
BRANCH  14  15
ATOM     15  C   UNL     1       9.331  10.303  19.387  0.00  0.00    +0.000 A 
ATOM     16  C   UNL     1       8.802  11.482  19.857  0.00  0.00    +0.000 A 
ATOM     17  C   UNL     1       9.753  12.461  19.517  0.00  0.00    +0.000 A 
ATOM     18  N   UNL     1      10.811  11.933  18.898  0.00  0.00    +0.000 NA
ATOM     19  O   UNL     1      10.545  10.574  18.814  0.00  0.00    +0.000 OA
ENDBRANCH  14  15
ENDBRANCH  11  14
ENDBRANCH   9  12
ENDBRANCH   1   9
BRANCH   7  20
ATOM     20  C   UNL     1       4.208   6.030  18.103  0.00  0.00    +0.000 C 
BRANCH  20  21
ATOM     21  C   UNL     1       3.159   6.391  19.242  0.00  0.00    +0.000 C 
BRANCH  21  22
ATOM     22  C   UNL     1       2.325   7.679  19.180  0.00  0.00    +0.000 A 
ATOM     23  C   UNL     1       2.062   8.393  18.003  0.00  0.00    +0.000 A 
ATOM     24  C   UNL     1       1.159   9.477  17.992  0.00  0.00    +0.000 A 
ATOM     25  C   UNL     1       0.516   9.878  19.159  0.00  0.00    +0.000 A 
ATOM     26  C   UNL     1       0.778   9.200  20.342  0.00  0.00    +0.000 A 
ATOM     27  C   UNL     1       1.671   8.120  20.353  0.00  0.00    +0.000 A 
ENDBRANCH  21  22
BRANCH  21  28
ATOM     28  C   UNL     1       2.263   5.142  19.391  0.00  0.00    +0.000 A 
ATOM     29  C   UNL     1       2.180   4.497  20.637  0.00  0.00    +0.000 A 
ATOM     30  C   UNL     1       1.539   3.261  20.760  0.00  0.00    +0.000 A 
ATOM     31  C   UNL     1       0.966   2.656  19.644  0.00  0.00    +0.000 A 
ATOM     32  C   UNL     1       1.011   3.297  18.409  0.00  0.00    +0.000 A 
ATOM     33  C   UNL     1       1.651   4.534  18.282  0.00  0.00    +0.000 A 
ENDBRANCH  21  28
ENDBRANCH  20  21
ENDBRANCH   7  20
TORSDOF 8
ENDMDL
