MODEL 1
REMARK VINA RESULT:      -6.9      0.000      0.000
REMARK  Name = 
REMARK  13 active torsions:
REMARK  status: ('A' for Active; 'I' for Inactive)
REMARK    1  A    between atoms: C_1  and  C_2
REMARK    2  A    between atoms: C_2  and  C_3
REMARK    3  A    between atoms: C_5  and  C_6
REMARK    4  A    between atoms: N_8  and  CA_9
REMARK    5  A    between atoms: CA_9  and  C_23
REMARK    6  A    between atoms: C_10  and  C_11
REMARK    7  A    between atoms: C_11  and  C_12
REMARK    8  A    between atoms: C_12  and  C_13
REMARK    9  A    between atoms: C_13  and  C_14
REMARK   10  A    between atoms: C_14  and  S_15
REMARK   11  A    between atoms: S_15  and  C_16
REMARK   12  A    between atoms: C_21  and  O_22
REMARK   13  A    between atoms: C_23  and  OXT_25
REMARK                            x       y       z     vdW  Elec       q    Type
REMARK                         _______ _______ _______ _____ _____    ______ ____
ROOT
ATOM      1  CA  UNL     1       4.451   5.194  16.982  0.00  0.00    +0.000 C 
ATOM      2  C   UNL     1       4.367   6.546  16.995  0.00  0.00    +0.000 C 
ENDROOT
BRANCH   1   5
ATOM      3  C   UNL     1       2.716   3.727  18.075  0.00  0.00    +0.000 C 
ATOM      4  O   UNL     1       1.813   3.836  17.255  0.00  0.00    +0.000 OA
ATOM      5  N   UNL     1       3.961   4.336  17.983  0.00  0.00    +0.000 N 
ATOM      6  H   UNL     1       4.681   4.004  18.622  0.00  0.00    +0.000 HD
BRANCH   3  11
ATOM      7  C   UNL     1       1.346   2.560  21.627  0.00  0.00    +0.000 C 
ATOM      8  C   UNL     1       2.168   3.398  20.678  0.00  0.00    +0.000 C 
ATOM      9  C   UNL     1       1.982   4.889  20.851  0.00  0.00    +0.000 C 
ATOM     10  C   UNL     1       3.545   2.871  20.357  0.00  0.00    +0.000 C 
ATOM     11  C   UNL     1       2.479   2.843  19.273  0.00  0.00    +0.000 C 
ENDBRANCH   3  11
ENDBRANCH   1   5
BRANCH   1  12
ATOM     12  C   UNL     1       5.199   4.491  15.884  0.00  0.00    +0.000 C 
ATOM     13  O   UNL     1       5.344   5.036  14.792  0.00  0.00    +0.000 OA
BRANCH  12  14
ATOM     14  OXT UNL     1       5.768   3.304  16.165  0.00  0.00    +0.000 OA
ATOM     15  HXT UNL     1       5.893   2.685  15.427  0.00  0.00    +0.000 HD
ENDBRANCH  12  14
ENDBRANCH   1  12
BRANCH   2  16
ATOM     16  C   UNL     1       3.703   7.310  18.079  0.00  0.00    +0.000 C 
BRANCH  16  17
ATOM     17  C   UNL     1       2.211   7.593  18.055  0.00  0.00    +0.000 C 
BRANCH  17  18
ATOM     18  C   UNL     1       2.095   9.099  17.759  0.00  0.00    +0.000 C 
BRANCH  18  19
ATOM     19  C   UNL     1       0.795   9.668  18.267  0.00  0.00    +0.000 C 
BRANCH  19  20
ATOM     20  S   UNL     1       1.113  11.241  19.119  0.00  0.00    +0.000 S 
BRANCH  20  21
ATOM     21  C   UNL     1       0.440  10.798  20.707  0.00  0.00    +0.000 A 
ATOM     22  N   UNL     1       0.797   9.590  21.188  0.00  0.00    +0.000 NA
ATOM     23  C   UNL     1       0.298   9.208  22.379  0.00  0.00    +0.000 A 
ATOM     24  C   UNL     1      -0.549   9.998  23.131  0.00  0.00    +0.000 A 
ATOM     25  C   UNL     1      -0.912  11.249  22.641  0.00  0.00    +0.000 A 
ATOM     26  C   UNL     1      -0.415  11.661  21.406  0.00  0.00    +0.000 A 
BRANCH  26  27
ATOM     27  O   UNL     1      -0.782  12.878  20.905  0.00  0.00    +0.000 OA
ATOM     28  H   UNL     1      -0.987  13.481  21.635  0.00  0.00    +0.000 HD
ENDBRANCH  26  27
ENDBRANCH  20  21
ENDBRANCH  19  20
ENDBRANCH  18  19
ENDBRANCH  17  18
ENDBRANCH  16  17
ENDBRANCH   2  16
TORSDOF 11
ENDMDL
MODEL 2
REMARK VINA RESULT:      -6.8      6.473      7.818
REMARK  Name = 
REMARK  13 active torsions:
REMARK  status: ('A' for Active; 'I' for Inactive)
REMARK    1  A    between atoms: C_1  and  C_2
REMARK    2  A    between atoms: C_2  and  C_3
REMARK    3  A    between atoms: C_5  and  C_6
REMARK    4  A    between atoms: N_8  and  CA_9
REMARK    5  A    between atoms: CA_9  and  C_23
REMARK    6  A    between atoms: C_10  and  C_11
REMARK    7  A    between atoms: C_11  and  C_12
REMARK    8  A    between atoms: C_12  and  C_13
REMARK    9  A    between atoms: C_13  and  C_14
REMARK   10  A    between atoms: C_14  and  S_15
REMARK   11  A    between atoms: S_15  and  C_16
REMARK   12  A    between atoms: C_21  and  O_22
REMARK   13  A    between atoms: C_23  and  OXT_25
REMARK                            x       y       z     vdW  Elec       q    Type
REMARK                         _______ _______ _______ _____ _____    ______ ____
ROOT
ATOM      1  CA  UNL     1       6.845   6.465  17.018  0.00  0.00    +0.000 C 
ATOM      2  C   UNL     1       7.817   7.402  17.132  0.00  0.00    +0.000 C 
ENDROOT
BRANCH   1   5
ATOM      3  C   UNL     1       5.371   5.355  18.737  0.00  0.00    +0.000 C 
ATOM      4  O   UNL     1       6.047   4.361  18.971  0.00  0.00    +0.000 OA
ATOM      5  N   UNL     1       5.709   6.362  17.841  0.00  0.00    +0.000 N 
ATOM      6  H   UNL     1       5.164   7.221  17.891  0.00  0.00    +0.000 HD
BRANCH   3  11
ATOM      7  C   UNL     1       1.673   4.601  20.005  0.00  0.00    +0.000 C 
ATOM      8  C   UNL     1       2.732   4.968  18.993  0.00  0.00    +0.000 C 
ATOM      9  C   UNL     1       2.712   4.116  17.743  0.00  0.00    +0.000 C 
ATOM     10  C   UNL     1       3.039   6.439  18.864  0.00  0.00    +0.000 C 
ATOM     11  C   UNL     1       4.079   5.526  19.495  0.00  0.00    +0.000 C 
ENDBRANCH   3  11
ENDBRANCH   1   5
BRANCH   1  12
ATOM     12  C   UNL     1       6.973   5.358  16.009  0.00  0.00    +0.000 C 
ATOM     13  O   UNL     1       6.404   5.447  14.923  0.00  0.00    +0.000 OA
BRANCH  12  14
ATOM     14  OXT UNL     1       7.789   4.329  16.300  0.00  0.00    +0.000 OA
ATOM     15  HXT UNL     1       7.575   3.467  15.906  0.00  0.00    +0.000 HD
ENDBRANCH  12  14
ENDBRANCH   1  12
BRANCH   2  16
ATOM     16  C   UNL     1       7.789   8.483  18.147  0.00  0.00    +0.000 C 
BRANCH  16  17
ATOM     17  C   UNL     1       8.676   9.710  18.027  0.00  0.00    +0.000 C 
BRANCH  17  18
ATOM     18  C   UNL     1       9.003  10.110  19.476  0.00  0.00    +0.000 C 
BRANCH  18  19
ATOM     19  C   UNL     1      10.248  10.956  19.553  0.00  0.00    +0.000 C 
BRANCH  19  20
ATOM     20  S   UNL     1      10.879  11.263  17.876  0.00  0.00    +0.000 S 
BRANCH  20  21
ATOM     21  C   UNL     1      10.839  13.042  17.923  0.00  0.00    +0.000 A 
ATOM     22  N   UNL     1      10.322  13.596  19.038  0.00  0.00    +0.000 NA
ATOM     23  C   UNL     1      10.258  14.940  19.108  0.00  0.00    +0.000 A 
ATOM     24  C   UNL     1      10.705  15.771  18.100  0.00  0.00    +0.000 A 
ATOM     25  C   UNL     1      11.248  15.201  16.952  0.00  0.00    +0.000 A 
ATOM     26  C   UNL     1      11.314  13.813  16.853  0.00  0.00    +0.000 A 
BRANCH  26  27
ATOM     27  O   UNL     1      11.824  13.242  15.721  0.00  0.00    +0.000 OA
ATOM     28  H   UNL     1      12.034  12.312  15.894  0.00  0.00    +0.000 HD
ENDBRANCH  26  27
ENDBRANCH  20  21
ENDBRANCH  19  20
ENDBRANCH  18  19
ENDBRANCH  17  18
ENDBRANCH  16  17
ENDBRANCH   2  16
TORSDOF 11
ENDMDL
MODEL 3
REMARK VINA RESULT:      -6.8      6.051      7.484
REMARK  Name = 
REMARK  13 active torsions:
REMARK  status: ('A' for Active; 'I' for Inactive)
REMARK    1  A    between atoms: C_1  and  C_2
REMARK    2  A    between atoms: C_2  and  C_3
REMARK    3  A    between atoms: C_5  and  C_6
REMARK    4  A    between atoms: N_8  and  CA_9
REMARK    5  A    between atoms: CA_9  and  C_23
REMARK    6  A    between atoms: C_10  and  C_11
REMARK    7  A    between atoms: C_11  and  C_12
REMARK    8  A    between atoms: C_12  and  C_13
REMARK    9  A    between atoms: C_13  and  C_14
REMARK   10  A    between atoms: C_14  and  S_15
REMARK   11  A    between atoms: S_15  and  C_16
REMARK   12  A    between atoms: C_21  and  O_22
REMARK   13  A    between atoms: C_23  and  OXT_25
REMARK                            x       y       z     vdW  Elec       q    Type
REMARK                         _______ _______ _______ _____ _____    ______ ____
ROOT
ATOM      1  CA  UNL     1       6.420   5.717  16.555  0.00  0.00    +0.000 C 
ATOM      2  C   UNL     1       7.434   6.570  16.835  0.00  0.00    +0.000 C 
ENDROOT
BRANCH   1   5
ATOM      3  C   UNL     1       4.917   4.893  18.405  0.00  0.00    +0.000 C 
ATOM      4  O   UNL     1       5.711   4.183  19.010  0.00  0.00    +0.000 OA
ATOM      5  N   UNL     1       5.208   5.630  17.264  0.00  0.00    +0.000 N 
ATOM      6  H   UNL     1       4.522   6.327  16.983  0.00  0.00    +0.000 HD
BRANCH   3  11
ATOM      7  C   UNL     1       1.214   3.823  19.405  0.00  0.00    +0.000 C 
ATOM      8  C   UNL     1       2.350   4.125  18.457  0.00  0.00    +0.000 C 
ATOM      9  C   UNL     1       2.637   3.020  17.465  0.00  0.00    +0.000 C 
ATOM     10  C   UNL     1       2.464   5.559  17.999  0.00  0.00    +0.000 C 
ATOM     11  C   UNL     1       3.515   5.007  18.949  0.00  0.00    +0.000 C 
ENDBRANCH   3  11
ENDBRANCH   1   5
BRANCH   1  12
ATOM     12  C   UNL     1       6.571   4.688  15.470  0.00  0.00    +0.000 C 
ATOM     13  O   UNL     1       7.017   5.014  14.372  0.00  0.00    +0.000 OA
BRANCH  12  14
ATOM     14  OXT UNL     1       6.290   3.407  15.770  0.00  0.00    +0.000 OA
ATOM     15  HXT UNL     1       5.795   2.894  15.109  0.00  0.00    +0.000 HD
ENDBRANCH  12  14
ENDBRANCH   1  12
BRANCH   2  16
ATOM     16  C   UNL     1       7.381   7.566  17.933  0.00  0.00    +0.000 C 
BRANCH  16  17
ATOM     17  C   UNL     1       8.086   8.907  17.826  0.00  0.00    +0.000 C 
BRANCH  17  18
ATOM     18  C   UNL     1       8.981   8.988  19.076  0.00  0.00    +0.000 C 
BRANCH  18  19
ATOM     19  C   UNL     1       9.319  10.414  19.428  0.00  0.00    +0.000 C 
BRANCH  19  20
ATOM     20  S   UNL     1       9.032  11.481  17.984  0.00  0.00    +0.000 S 
BRANCH  20  21
ATOM     21  C   UNL     1      10.140  12.799  18.431  0.00  0.00    +0.000 A 
ATOM     22  N   UNL     1       9.593  13.836  19.098  0.00  0.00    +0.000 NA
ATOM     23  C   UNL     1      10.393  14.863  19.442  0.00  0.00    +0.000 A 
ATOM     24  C   UNL     1      11.743  14.898  19.154  0.00  0.00    +0.000 A 
ATOM     25  C   UNL     1      12.312  13.825  18.474  0.00  0.00    +0.000 A 
ATOM     26  C   UNL     1      11.502  12.756  18.099  0.00  0.00    +0.000 A 
BRANCH  26  27
ATOM     27  O   UNL     1      12.044  11.708  17.411  0.00  0.00    +0.000 OA
ATOM     28  H   UNL     1      11.356  11.278  16.881  0.00  0.00    +0.000 HD
ENDBRANCH  26  27
ENDBRANCH  20  21
ENDBRANCH  19  20
ENDBRANCH  18  19
ENDBRANCH  17  18
ENDBRANCH  16  17
ENDBRANCH   2  16
TORSDOF 11
ENDMDL
MODEL 4
REMARK VINA RESULT:      -6.6      1.519      1.725
REMARK  Name = 
REMARK  13 active torsions:
REMARK  status: ('A' for Active; 'I' for Inactive)
REMARK    1  A    between atoms: C_1  and  C_2
REMARK    2  A    between atoms: C_2  and  C_3
REMARK    3  A    between atoms: C_5  and  C_6
REMARK    4  A    between atoms: N_8  and  CA_9
REMARK    5  A    between atoms: CA_9  and  C_23
REMARK    6  A    between atoms: C_10  and  C_11
REMARK    7  A    between atoms: C_11  and  C_12
REMARK    8  A    between atoms: C_12  and  C_13
REMARK    9  A    between atoms: C_13  and  C_14
REMARK   10  A    between atoms: C_14  and  S_15
REMARK   11  A    between atoms: S_15  and  C_16
REMARK   12  A    between atoms: C_21  and  O_22
REMARK   13  A    between atoms: C_23  and  OXT_25
REMARK                            x       y       z     vdW  Elec       q    Type
REMARK                         _______ _______ _______ _____ _____    ______ ____
ROOT
ATOM      1  CA  UNL     1       5.818   5.228  16.980  0.00  0.00    +0.000 C 
ATOM      2  C   UNL     1       5.675   6.571  16.879  0.00  0.00    +0.000 C 
ENDROOT
BRANCH   1   5
ATOM      3  C   UNL     1       4.584   3.588  18.444  0.00  0.00    +0.000 C 
ATOM      4  O   UNL     1       5.291   3.637  19.444  0.00  0.00    +0.000 OA
ATOM      5  N   UNL     1       4.790   4.316  17.279  0.00  0.00    +0.000 N 
ATOM      6  H   UNL     1       4.024   4.333  16.609  0.00  0.00    +0.000 HD
BRANCH   3  11
ATOM      7  C   UNL     1       0.771   2.486  18.762  0.00  0.00    +0.000 C 
ATOM      8  C   UNL     1       2.089   3.038  19.252  0.00  0.00    +0.000 C 
ATOM      9  C   UNL     1       1.981   4.392  19.919  0.00  0.00    +0.000 C 
ATOM     10  C   UNL     1       3.059   2.028  19.811  0.00  0.00    +0.000 C 
ATOM     11  C   UNL     1       3.375   2.687  18.478  0.00  0.00    +0.000 C 
ENDBRANCH   3  11
ENDBRANCH   1   5
BRANCH   1  12
ATOM     12  C   UNL     1       7.180   4.599  16.865  0.00  0.00    +0.000 C 
ATOM     13  O   UNL     1       7.685   4.427  15.757  0.00  0.00    +0.000 OA
BRANCH  12  14
ATOM     14  OXT UNL     1       7.846   4.321  18.000  0.00  0.00    +0.000 OA
ATOM     15  HXT UNL     1       7.656   4.876  18.774  0.00  0.00    +0.000 HD
ENDBRANCH  12  14
ENDBRANCH   1  12
BRANCH   2  16
ATOM     16  C   UNL     1       4.375   7.265  17.048  0.00  0.00    +0.000 C 
BRANCH  16  17
ATOM     17  C   UNL     1       3.421   6.905  18.174  0.00  0.00    +0.000 C 
BRANCH  17  18
ATOM     18  C   UNL     1       2.206   7.829  17.978  0.00  0.00    +0.000 C 
BRANCH  18  19
ATOM     19  C   UNL     1       1.829   8.534  19.256  0.00  0.00    +0.000 C 
BRANCH  19  20
ATOM     20  S   UNL     1       0.747   9.944  18.876  0.00  0.00    +0.000 S 
BRANCH  20  21
ATOM     21  C   UNL     1       0.081  10.186  20.509  0.00  0.00    +0.000 A 
ATOM     22  N   UNL     1       0.315   9.200  21.399  0.00  0.00    +0.000 NA
ATOM     23  C   UNL     1      -0.185   9.335  22.642  0.00  0.00    +0.000 A 
ATOM     24  C   UNL     1      -0.913  10.437  23.048  0.00  0.00    +0.000 A 
ATOM     25  C   UNL     1      -1.147  11.460  22.134  0.00  0.00    +0.000 A 
ATOM     26  C   UNL     1      -0.648  11.337  20.839  0.00  0.00    +0.000 A 
BRANCH  26  27
ATOM     27  O   UNL     1      -0.892  12.324  19.927  0.00  0.00    +0.000 OA
ATOM     28  H   UNL     1      -1.583  12.914  20.265  0.00  0.00    +0.000 HD
ENDBRANCH  26  27
ENDBRANCH  20  21
ENDBRANCH  19  20
ENDBRANCH  18  19
ENDBRANCH  17  18
ENDBRANCH  16  17
ENDBRANCH   2  16
TORSDOF 11
ENDMDL
MODEL 5
REMARK VINA RESULT:      -6.6      6.259      6.936
REMARK  Name = 
REMARK  13 active torsions:
REMARK  status: ('A' for Active; 'I' for Inactive)
REMARK    1  A    between atoms: C_1  and  C_2
REMARK    2  A    between atoms: C_2  and  C_3
REMARK    3  A    between atoms: C_5  and  C_6
REMARK    4  A    between atoms: N_8  and  CA_9
REMARK    5  A    between atoms: CA_9  and  C_23
REMARK    6  A    between atoms: C_10  and  C_11
REMARK    7  A    between atoms: C_11  and  C_12
REMARK    8  A    between atoms: C_12  and  C_13
REMARK    9  A    between atoms: C_13  and  C_14
REMARK   10  A    between atoms: C_14  and  S_15
REMARK   11  A    between atoms: S_15  and  C_16
REMARK   12  A    between atoms: C_21  and  O_22
REMARK   13  A    between atoms: C_23  and  OXT_25
REMARK                            x       y       z     vdW  Elec       q    Type
REMARK                         _______ _______ _______ _____ _____    ______ ____
ROOT
ATOM      1  CA  UNL     1       7.002   6.167  17.253  0.00  0.00    +0.000 C 
ATOM      2  C   UNL     1       7.837   7.230  17.335  0.00  0.00    +0.000 C 
ENDROOT
BRANCH   1   5
ATOM      3  C   UNL     1       5.248   5.276  18.831  0.00  0.00    +0.000 C 
ATOM      4  O   UNL     1       5.923   4.457  19.443  0.00  0.00    +0.000 OA
ATOM      5  N   UNL     1       5.712   6.097  17.810  0.00  0.00    +0.000 N 
ATOM      6  H   UNL     1       5.105   6.864  17.529  0.00  0.00    +0.000 HD
BRANCH   3  11
ATOM      7  C   UNL     1       1.399   4.372  19.309  0.00  0.00    +0.000 C 
ATOM      8  C   UNL     1       2.653   4.681  18.525  0.00  0.00    +0.000 C 
ATOM      9  C   UNL     1       2.989   3.651  17.469  0.00  0.00    +0.000 C 
ATOM     10  C   UNL     1       2.899   6.138  18.223  0.00  0.00    +0.000 C 
ATOM     11  C   UNL     1       3.801   5.434  19.225  0.00  0.00    +0.000 C 
ENDBRANCH   3  11
ENDBRANCH   1   5
BRANCH   1  12
ATOM     12  C   UNL     1       7.461   4.888  16.609  0.00  0.00    +0.000 C 
ATOM     13  O   UNL     1       7.285   4.709  15.405  0.00  0.00    +0.000 OA
BRANCH  12  14
ATOM     14  OXT UNL     1       8.137   4.006  17.366  0.00  0.00    +0.000 OA
ATOM     15  HXT UNL     1       7.658   3.595  18.105  0.00  0.00    +0.000 HD
ENDBRANCH  12  14
ENDBRANCH   1  12
BRANCH   2  16
ATOM     16  C   UNL     1       7.475   8.498  18.014  0.00  0.00    +0.000 C 
BRANCH  16  17
ATOM     17  C   UNL     1       8.126   9.817  17.635  0.00  0.00    +0.000 C 
BRANCH  17  18
ATOM     18  C   UNL     1       9.084  10.138  18.795  0.00  0.00    +0.000 C 
BRANCH  18  19
ATOM     19  C   UNL     1       9.775  11.463  18.598  0.00  0.00    +0.000 C 
BRANCH  19  20
ATOM     20  S   UNL     1      11.139  11.621  19.790  0.00  0.00    +0.000 S 
BRANCH  20  21
ATOM     21  C   UNL     1      10.395  12.841  20.851  0.00  0.00    +0.000 A 
ATOM     22  N   UNL     1      10.766  14.120  20.637  0.00  0.00    +0.000 NA
ATOM     23  C   UNL     1      10.239  15.075  21.428  0.00  0.00    +0.000 A 
ATOM     24  C   UNL     1       9.333  14.805  22.435  0.00  0.00    +0.000 A 
ATOM     25  C   UNL     1       8.942  13.488  22.652  0.00  0.00    +0.000 A 
ATOM     26  C   UNL     1       9.482  12.482  21.852  0.00  0.00    +0.000 A 
BRANCH  26  27
ATOM     27  O   UNL     1       9.123  11.183  22.070  0.00  0.00    +0.000 OA
ATOM     28  H   UNL     1       9.248  10.671  21.257  0.00  0.00    +0.000 HD
ENDBRANCH  26  27
ENDBRANCH  20  21
ENDBRANCH  19  20
ENDBRANCH  18  19
ENDBRANCH  17  18
ENDBRANCH  16  17
ENDBRANCH   2  16
TORSDOF 11
ENDMDL
MODEL 6
REMARK VINA RESULT:      -6.6      2.951      3.611
REMARK  Name = 
REMARK  13 active torsions:
REMARK  status: ('A' for Active; 'I' for Inactive)
REMARK    1  A    between atoms: C_1  and  C_2
REMARK    2  A    between atoms: C_2  and  C_3
REMARK    3  A    between atoms: C_5  and  C_6
REMARK    4  A    between atoms: N_8  and  CA_9
REMARK    5  A    between atoms: CA_9  and  C_23
REMARK    6  A    between atoms: C_10  and  C_11
REMARK    7  A    between atoms: C_11  and  C_12
REMARK    8  A    between atoms: C_12  and  C_13
REMARK    9  A    between atoms: C_13  and  C_14
REMARK   10  A    between atoms: C_14  and  S_15
REMARK   11  A    between atoms: S_15  and  C_16
REMARK   12  A    between atoms: C_21  and  O_22
REMARK   13  A    between atoms: C_23  and  OXT_25
REMARK                            x       y       z     vdW  Elec       q    Type
REMARK                         _______ _______ _______ _____ _____    ______ ____
ROOT
ATOM      1  CA  UNL     1       3.451   6.533  17.928  0.00  0.00    +0.000 C 
ATOM      2  C   UNL     1       3.069   7.771  17.529  0.00  0.00    +0.000 C 
ENDROOT
BRANCH   1   5
ATOM      3  C   UNL     1       1.827   4.672  18.433  0.00  0.00    +0.000 C 
ATOM      4  O   UNL     1       1.543   4.335  17.291  0.00  0.00    +0.000 OA
ATOM      5  N   UNL     1       2.715   5.685  18.774  0.00  0.00    +0.000 N 
ATOM      6  H   UNL     1       3.011   5.726  19.747  0.00  0.00    +0.000 HD
BRANCH   3  11
ATOM      7  C   UNL     1       1.529   2.542  21.784  0.00  0.00    +0.000 C 
ATOM      8  C   UNL     1       1.910   2.796  20.346  0.00  0.00    +0.000 C 
ATOM      9  C   UNL     1       3.362   2.507  20.031  0.00  0.00    +0.000 C 
ATOM     10  C   UNL     1       0.862   2.454  19.316  0.00  0.00    +0.000 C 
ATOM     11  C   UNL     1       1.188   3.917  19.572  0.00  0.00    +0.000 C 
ENDBRANCH   3  11
ENDBRANCH   1   5
BRANCH   1  12
ATOM     12  C   UNL     1       4.803   5.998  17.547  0.00  0.00    +0.000 C 
ATOM     13  O   UNL     1       5.266   5.022  18.135  0.00  0.00    +0.000 OA
BRANCH  12  14
ATOM     14  OXT UNL     1       5.435   6.560  16.501  0.00  0.00    +0.000 OA
ATOM     15  HXT UNL     1       6.379   6.357  16.390  0.00  0.00    +0.000 HD
ENDBRANCH  12  14
ENDBRANCH   1  12
BRANCH   2  16
ATOM     16  C   UNL     1       1.779   8.389  17.921  0.00  0.00    +0.000 C 
BRANCH  16  17
ATOM     17  C   UNL     1       1.659   9.881  18.182  0.00  0.00    +0.000 C 
BRANCH  17  18
ATOM     18  C   UNL     1       0.945   9.992  19.541  0.00  0.00    +0.000 C 
BRANCH  18  19
ATOM     19  C   UNL     1      -0.534  10.229  19.375  0.00  0.00    +0.000 C 
BRANCH  19  20
ATOM     20  S   UNL     1      -0.811  11.894  18.700  0.00  0.00    +0.000 S 
BRANCH  20  21
ATOM     21  C   UNL     1      -2.526  11.698  18.265  0.00  0.00    +0.000 A 
ATOM     22  N   UNL     1      -3.423  12.089  19.194  0.00  0.00    +0.000 NA
ATOM     23  C   UNL     1      -4.732  11.944  18.912  0.00  0.00    +0.000 A 
ATOM     24  C   UNL     1      -5.195  11.426  17.718  0.00  0.00    +0.000 A 
ATOM     25  C   UNL     1      -4.271  11.031  16.755  0.00  0.00    +0.000 A 
ATOM     26  C   UNL     1      -2.911  11.162  17.029  0.00  0.00    +0.000 A 
BRANCH  26  27
ATOM     27  O   UNL     1      -1.996  10.756  16.100  0.00  0.00    +0.000 OA
ATOM     28  H   UNL     1      -1.182  11.274  16.199  0.00  0.00    +0.000 HD
ENDBRANCH  26  27
ENDBRANCH  20  21
ENDBRANCH  19  20
ENDBRANCH  18  19
ENDBRANCH  17  18
ENDBRANCH  16  17
ENDBRANCH   2  16
TORSDOF 11
ENDMDL
MODEL 7
REMARK VINA RESULT:      -6.6      5.700      7.149
REMARK  Name = 
REMARK  13 active torsions:
REMARK  status: ('A' for Active; 'I' for Inactive)
REMARK    1  A    between atoms: C_1  and  C_2
REMARK    2  A    between atoms: C_2  and  C_3
REMARK    3  A    between atoms: C_5  and  C_6
REMARK    4  A    between atoms: N_8  and  CA_9
REMARK    5  A    between atoms: CA_9  and  C_23
REMARK    6  A    between atoms: C_10  and  C_11
REMARK    7  A    between atoms: C_11  and  C_12
REMARK    8  A    between atoms: C_12  and  C_13
REMARK    9  A    between atoms: C_13  and  C_14
REMARK   10  A    between atoms: C_14  and  S_15
REMARK   11  A    between atoms: S_15  and  C_16
REMARK   12  A    between atoms: C_21  and  O_22
REMARK   13  A    between atoms: C_23  and  OXT_25
REMARK                            x       y       z     vdW  Elec       q    Type
REMARK                         _______ _______ _______ _____ _____    ______ ____
ROOT
ATOM      1  CA  UNL     1       6.131   5.702  17.124  0.00  0.00    +0.000 C 
ATOM      2  C   UNL     1       7.407   6.086  17.368  0.00  0.00    +0.000 C 
ENDROOT
BRANCH   1   5
ATOM      3  C   UNL     1       4.744   4.680  18.965  0.00  0.00    +0.000 C 
ATOM      4  O   UNL     1       5.327   3.610  19.087  0.00  0.00    +0.000 OA
ATOM      5  N   UNL     1       5.089   5.684  18.069  0.00  0.00    +0.000 N 
ATOM      6  H   UNL     1       4.652   6.592  18.209  0.00  0.00    +0.000 HD
BRANCH   3  11
ATOM      7  C   UNL     1       1.083   4.391  20.504  0.00  0.00    +0.000 C 
ATOM      8  C   UNL     1       2.107   4.720  19.445  0.00  0.00    +0.000 C 
ATOM      9  C   UNL     1       1.829   4.087  18.099  0.00  0.00    +0.000 C 
ATOM     10  C   UNL     1       2.673   6.118  19.487  0.00  0.00    +0.000 C 
ATOM     11  C   UNL     1       3.571   4.952  19.872  0.00  0.00    +0.000 C 
ENDBRANCH   3  11
ENDBRANCH   1   5
BRANCH   1  12
ATOM     12  C   UNL     1       5.747   5.151  15.779  0.00  0.00    +0.000 C 
ATOM     13  O   UNL     1       6.178   5.677  14.754  0.00  0.00    +0.000 OA
BRANCH  12  14
ATOM     14  OXT UNL     1       5.003   4.031  15.742  0.00  0.00    +0.000 OA
ATOM     15  HXT UNL     1       5.464   3.187  15.880  0.00  0.00    +0.000 HD
ENDBRANCH  12  14
ENDBRANCH   1  12
BRANCH   2  16
ATOM     16  C   UNL     1       7.871   6.576  18.688  0.00  0.00    +0.000 C 
BRANCH  16  17
ATOM     17  C   UNL     1       8.540   7.930  18.844  0.00  0.00    +0.000 C 
BRANCH  17  18
ATOM     18  C   UNL     1       7.833   8.844  17.827  0.00  0.00    +0.000 C 
BRANCH  18  19
ATOM     19  C   UNL     1       8.571  10.144  17.638  0.00  0.00    +0.000 C 
BRANCH  19  20
ATOM     20  S   UNL     1       9.446  10.574  19.172  0.00  0.00    +0.000 S 
BRANCH  20  21
ATOM     21  C   UNL     1       9.924  12.229  18.724  0.00  0.00    +0.000 A 
ATOM     22  N   UNL     1       9.093  13.216  19.117  0.00  0.00    +0.000 NA
ATOM     23  C   UNL     1       9.409  14.482  18.784  0.00  0.00    +0.000 A 
ATOM     24  C   UNL     1      10.545  14.815  18.073  0.00  0.00    +0.000 A 
ATOM     25  C   UNL     1      11.409  13.800  17.674  0.00  0.00    +0.000 A 
ATOM     26  C   UNL     1      11.097  12.481  17.998  0.00  0.00    +0.000 A 
BRANCH  26  27
ATOM     27  O   UNL     1      11.925  11.474  17.592  0.00  0.00    +0.000 OA
ATOM     28  H   UNL     1      12.603  11.831  16.998  0.00  0.00    +0.000 HD
ENDBRANCH  26  27
ENDBRANCH  20  21
ENDBRANCH  19  20
ENDBRANCH  18  19
ENDBRANCH  17  18
ENDBRANCH  16  17
ENDBRANCH   2  16
TORSDOF 11
ENDMDL
MODEL 8
REMARK VINA RESULT:      -6.5      6.595      7.811
REMARK  Name = 
REMARK  13 active torsions:
REMARK  status: ('A' for Active; 'I' for Inactive)
REMARK    1  A    between atoms: C_1  and  C_2
REMARK    2  A    between atoms: C_2  and  C_3
REMARK    3  A    between atoms: C_5  and  C_6
REMARK    4  A    between atoms: N_8  and  CA_9
REMARK    5  A    between atoms: CA_9  and  C_23
REMARK    6  A    between atoms: C_10  and  C_11
REMARK    7  A    between atoms: C_11  and  C_12
REMARK    8  A    between atoms: C_12  and  C_13
REMARK    9  A    between atoms: C_13  and  C_14
REMARK   10  A    between atoms: C_14  and  S_15
REMARK   11  A    between atoms: S_15  and  C_16
REMARK   12  A    between atoms: C_21  and  O_22
REMARK   13  A    between atoms: C_23  and  OXT_25
REMARK                            x       y       z     vdW  Elec       q    Type
REMARK                         _______ _______ _______ _____ _____    ______ ____
ROOT
ATOM      1  CA  UNL     1       6.464   6.075  16.950  0.00  0.00    +0.000 C 
ATOM      2  C   UNL     1       7.584   6.828  17.070  0.00  0.00    +0.000 C 
ENDROOT
BRANCH   1   5
ATOM      3  C   UNL     1       5.064   5.187  18.849  0.00  0.00    +0.000 C 
ATOM      4  O   UNL     1       5.731   4.205  19.150  0.00  0.00    +0.000 OA
ATOM      5  N   UNL     1       5.373   6.087  17.837  0.00  0.00    +0.000 N 
ATOM      6  H   UNL     1       4.850   6.961  17.826  0.00  0.00    +0.000 HD
BRANCH   3  11
ATOM      7  C   UNL     1       1.432   4.658  20.393  0.00  0.00    +0.000 C 
ATOM      8  C   UNL     1       2.438   4.886  19.290  0.00  0.00    +0.000 C 
ATOM      9  C   UNL     1       2.335   3.900  18.148  0.00  0.00    +0.000 C 
ATOM     10  C   UNL     1       2.759   6.327  18.979  0.00  0.00    +0.000 C 
ATOM     11  C   UNL     1       3.819   5.468  19.652  0.00  0.00    +0.000 C 
ENDBRANCH   3  11
ENDBRANCH   1   5
BRANCH   1  12
ATOM     12  C   UNL     1       6.351   5.053  15.853  0.00  0.00    +0.000 C 
ATOM     13  O   UNL     1       5.249   4.602  15.545  0.00  0.00    +0.000 OA
BRANCH  12  14
ATOM     14  OXT UNL     1       7.466   4.726  15.175  0.00  0.00    +0.000 OA
ATOM     15  HXT UNL     1       7.356   4.413  14.262  0.00  0.00    +0.000 HD
ENDBRANCH  12  14
ENDBRANCH   1  12
BRANCH   2  16
ATOM     16  C   UNL     1       7.793   7.807  18.164  0.00  0.00    +0.000 C 
BRANCH  16  17
ATOM     17  C   UNL     1       7.996   9.285  17.882  0.00  0.00    +0.000 C 
BRANCH  17  18
ATOM     18  C   UNL     1       9.157   9.711  18.797  0.00  0.00    +0.000 C 
BRANCH  18  19
ATOM     19  C   UNL     1       9.130  11.191  19.080  0.00  0.00    +0.000 C 
BRANCH  19  20
ATOM     20  S   UNL     1      10.581  11.646  20.077  0.00  0.00    +0.000 S 
BRANCH  20  21
ATOM     21  C   UNL     1      11.256  12.873  18.977  0.00  0.00    +0.000 A 
ATOM     22  N   UNL     1      11.682  12.427  17.778  0.00  0.00    +0.000 NA
ATOM     23  C   UNL     1      12.214  13.319  16.921  0.00  0.00    +0.000 A 
ATOM     24  C   UNL     1      12.333  14.665  17.210  0.00  0.00    +0.000 A 
ATOM     25  C   UNL     1      11.886  15.129  18.443  0.00  0.00    +0.000 A 
ATOM     26  C   UNL     1      11.341  14.222  19.350  0.00  0.00    +0.000 A 
BRANCH  26  27
ATOM     27  O   UNL     1      10.920  14.662  20.572  0.00  0.00    +0.000 OA
ATOM     28  H   UNL     1       9.954  14.745  20.571  0.00  0.00    +0.000 HD
ENDBRANCH  26  27
ENDBRANCH  20  21
ENDBRANCH  19  20
ENDBRANCH  18  19
ENDBRANCH  17  18
ENDBRANCH  16  17
ENDBRANCH   2  16
TORSDOF 11
ENDMDL
MODEL 9
REMARK VINA RESULT:      -6.5      1.649      1.902
REMARK  Name = 
REMARK  13 active torsions:
REMARK  status: ('A' for Active; 'I' for Inactive)
REMARK    1  A    between atoms: C_1  and  C_2
REMARK    2  A    between atoms: C_2  and  C_3
REMARK    3  A    between atoms: C_5  and  C_6
REMARK    4  A    between atoms: N_8  and  CA_9
REMARK    5  A    between atoms: CA_9  and  C_23
REMARK    6  A    between atoms: C_10  and  C_11
REMARK    7  A    between atoms: C_11  and  C_12
REMARK    8  A    between atoms: C_12  and  C_13
REMARK    9  A    between atoms: C_13  and  C_14
REMARK   10  A    between atoms: C_14  and  S_15
REMARK   11  A    between atoms: S_15  and  C_16
REMARK   12  A    between atoms: C_21  and  O_22
REMARK   13  A    between atoms: C_23  and  OXT_25
REMARK                            x       y       z     vdW  Elec       q    Type
REMARK                         _______ _______ _______ _____ _____    ______ ____
ROOT
ATOM      1  CA  UNL     1       5.855   5.547  18.142  0.00  0.00    +0.000 C 
ATOM      2  C   UNL     1       5.513   6.458  17.199  0.00  0.00    +0.000 C 
ENDROOT
BRANCH   1   5
ATOM      3  C   UNL     1       4.296   3.814  19.103  0.00  0.00    +0.000 C 
ATOM      4  O   UNL     1       4.340   2.982  18.205  0.00  0.00    +0.000 OA
ATOM      5  N   UNL     1       4.991   5.017  19.117  0.00  0.00    +0.000 N 
ATOM      6  H   UNL     1       5.023   5.517  20.003  0.00  0.00    +0.000 HD
BRANCH   3  11
ATOM      7  C   UNL     1       1.150   2.617  21.230  0.00  0.00    +0.000 C 
ATOM      8  C   UNL     1       1.902   3.504  20.268  0.00  0.00    +0.000 C 
ATOM      9  C   UNL     1       1.204   3.706  18.940  0.00  0.00    +0.000 C 
ATOM     10  C   UNL     1       2.643   4.666  20.883  0.00  0.00    +0.000 C 
ATOM     11  C   UNL     1       3.443   3.508  20.309  0.00  0.00    +0.000 C 
ENDBRANCH   3  11
ENDBRANCH   1   5
BRANCH   1  12
ATOM     12  C   UNL     1       7.282   5.090  18.273  0.00  0.00    +0.000 C 
ATOM     13  O   UNL     1       7.858   4.589  17.309  0.00  0.00    +0.000 OA
BRANCH  12  14
ATOM     14  OXT UNL     1       7.917   5.327  19.435  0.00  0.00    +0.000 OA
ATOM     15  HXT UNL     1       7.388   5.688  20.165  0.00  0.00    +0.000 HD
ENDBRANCH  12  14
ENDBRANCH   1  12
BRANCH   2  16
ATOM     16  C   UNL     1       4.141   7.003  17.055  0.00  0.00    +0.000 C 
BRANCH  16  17
ATOM     17  C   UNL     1       3.262   7.277  18.262  0.00  0.00    +0.000 C 
BRANCH  17  18
ATOM     18  C   UNL     1       2.048   8.044  17.707  0.00  0.00    +0.000 C 
BRANCH  18  19
ATOM     19  C   UNL     1       2.055   9.487  18.140  0.00  0.00    +0.000 C 
BRANCH  19  20
ATOM     20  S   UNL     1       0.346  10.053  18.394  0.00  0.00    +0.000 S 
BRANCH  20  21
ATOM     21  C   UNL     1       0.298   9.895  20.166  0.00  0.00    +0.000 A 
ATOM     22  N   UNL     1       1.112   8.963  20.703  0.00  0.00    +0.000 NA
ATOM     23  C   UNL     1       1.095   8.800  22.039  0.00  0.00    +0.000 A 
ATOM     24  C   UNL     1       0.294   9.546  22.881  0.00  0.00    +0.000 A 
ATOM     25  C   UNL     1      -0.540  10.514  22.331  0.00  0.00    +0.000 A 
ATOM     26  C   UNL     1      -0.547  10.694  20.949  0.00  0.00    +0.000 A 
BRANCH  26  27
ATOM     27  O   UNL     1      -1.378  11.626  20.396  0.00  0.00    +0.000 OA
ATOM     28  H   UNL     1      -0.989  11.959  19.573  0.00  0.00    +0.000 HD
ENDBRANCH  26  27
ENDBRANCH  20  21
ENDBRANCH  19  20
ENDBRANCH  18  19
ENDBRANCH  17  18
ENDBRANCH  16  17
ENDBRANCH   2  16
TORSDOF 11
ENDMDL
