MODEL 1
REMARK VINA RESULT:      -7.8      0.000      0.000
REMARK  Name = 
REMARK  7 active torsions:
REMARK  status: ('A' for Active; 'I' for Inactive)
REMARK    1  A    between atoms: C_1  and  C_2
REMARK    2  A    between atoms: C_2  and  C_3
REMARK    3  A    between atoms: C_2  and  C_5
REMARK    4  A    between atoms: C_3  and  O_4
REMARK    5  A    between atoms: C_6  and  O_7
REMARK    6  A    between atoms: C_19  and  C_20
REMARK    7  A    between atoms: C_19  and  C_21
REMARK                            x       y       z     vdW  Elec       q    Type
REMARK                         _______ _______ _______ _____ _____    ______ ____
ROOT
ATOM      1  C   UNL     1       4.711   5.321  17.955  0.00  0.00    +0.000 C 
ATOM      2  C   UNL     1       4.158   4.956  19.125  0.00  0.00    +0.000 C 
ATOM      3  C   UNL     1       2.998   5.698  19.713  0.00  0.00    +0.000 C 
ATOM      4  O   UNL     1       2.364   5.190  20.631  0.00  0.00    +0.000 OA
ATOM      5  C   UNL     1       2.646   7.025  19.154  0.00  0.00    +0.000 A 
ATOM      6  C   UNL     1       3.205   7.388  17.931  0.00  0.00    +0.000 A 
ATOM      7  C   UNL     1       2.843   8.590  17.316  0.00  0.00    +0.000 A 
ATOM      8  C   UNL     1       1.924   9.436  17.925  0.00  0.00    +0.000 A 
ATOM      9  C   UNL     1       1.352   9.114  19.171  0.00  0.00    +0.000 A 
ATOM     10  C   UNL     1       1.747   7.912  19.812  0.00  0.00    +0.000 A 
ATOM     11  C   UNL     1       1.208   7.558  21.184  0.00  0.00    +0.000 C 
ATOM     12  C   UNL     1       0.493   8.681  21.920  0.00  0.00    +0.000 C 
ATOM     13  C   UNL     1      -0.425   9.419  20.966  0.00  0.00    +0.000 C 
ATOM     14  C   UNL     1       0.362  10.094  19.821  0.00  0.00    +0.000 C 
ATOM     15  C   UNL     1       1.162  11.299  20.360  0.00  0.00    +0.000 C 
ATOM     16  C   UNL     1      -0.691  10.606  18.812  0.00  0.00    +0.000 C 
ATOM     17  C   UNL     1       4.221   6.551  17.271  0.00  0.00    +0.000 C 
ATOM     18  O   UNL     1       4.696   6.916  16.199  0.00  0.00    +0.000 OA
ENDROOT
BRANCH   1  20
ATOM     19  C   UNL     1       5.457   4.057  15.879  0.00  0.00    +0.000 C 
ATOM     20  C   UNL     1       5.844   4.564  17.271  0.00  0.00    +0.000 C 
BRANCH  20  21
ATOM     21  C   UNL     1       7.150   5.371  17.274  0.00  0.00    +0.000 C 
BRANCH  21  22
ATOM     22  O   UNL     1       7.441   5.812  15.943  0.00  0.00    +0.000 OA
ATOM     23  H   UNL     1       8.407   5.765  15.830  0.00  0.00    +0.000 HD
ENDBRANCH  21  22
ENDBRANCH  20  21
ENDBRANCH   1  20
BRANCH   2  24
ATOM     24  O   UNL     1       4.586   3.863  19.862  0.00  0.00    +0.000 OA
ATOM     25  H   UNL     1       3.830   3.354  20.194  0.00  0.00    +0.000 HD
ENDBRANCH   2  24
TORSDOF 4
ENDMDL
MODEL 2
REMARK VINA RESULT:      -7.4      1.278      1.691
REMARK  Name = 
REMARK  7 active torsions:
REMARK  status: ('A' for Active; 'I' for Inactive)
REMARK    1  A    between atoms: C_1  and  C_2
REMARK    2  A    between atoms: C_2  and  C_3
REMARK    3  A    between atoms: C_2  and  C_5
REMARK    4  A    between atoms: C_3  and  O_4
REMARK    5  A    between atoms: C_6  and  O_7
REMARK    6  A    between atoms: C_19  and  C_20
REMARK    7  A    between atoms: C_19  and  C_21
REMARK                            x       y       z     vdW  Elec       q    Type
REMARK                         _______ _______ _______ _____ _____    ______ ____
ROOT
ATOM      1  C   UNL     1       3.782   5.652  18.303  0.00  0.00    +0.000 C 
ATOM      2  C   UNL     1       3.209   5.383  19.489  0.00  0.00    +0.000 C 
ATOM      3  C   UNL     1       2.180   6.290  20.090  0.00  0.00    +0.000 C 
ATOM      4  O   UNL     1       1.501   5.887  21.027  0.00  0.00    +0.000 OA
ATOM      5  C   UNL     1       2.009   7.647  19.519  0.00  0.00    +0.000 A 
ATOM      6  C   UNL     1       2.587   7.913  18.281  0.00  0.00    +0.000 A 
ATOM      7  C   UNL     1       2.385   9.147  17.656  0.00  0.00    +0.000 A 
ATOM      8  C   UNL     1       1.610  10.122  18.272  0.00  0.00    +0.000 A 
ATOM      9  C   UNL     1       1.026   9.900  19.533  0.00  0.00    +0.000 A 
ATOM     10  C   UNL     1       1.260   8.660  20.183  0.00  0.00    +0.000 A 
ATOM     11  C   UNL     1       0.706   8.402  21.571  0.00  0.00    +0.000 C 
ATOM     12  C   UNL     1       0.176   9.624  22.305  0.00  0.00    +0.000 C 
ATOM     13  C   UNL     1      -0.649  10.475  21.360  0.00  0.00    +0.000 C 
ATOM     14  C   UNL     1       0.201  11.018  20.189  0.00  0.00    +0.000 C 
ATOM     15  C   UNL     1       1.176  12.103  20.695  0.00  0.00    +0.000 C 
ATOM     16  C   UNL     1      -0.791  11.664  19.194  0.00  0.00    +0.000 C 
ATOM     17  C   UNL     1       3.458   6.932  17.612  0.00  0.00    +0.000 C 
ATOM     18  O   UNL     1       3.956   7.214  16.525  0.00  0.00    +0.000 OA
ENDROOT
BRANCH   1  20
ATOM     19  C   UNL     1       6.092   4.592  18.387  0.00  0.00    +0.000 C 
ATOM     20  C   UNL     1       4.781   4.733  17.607  0.00  0.00    +0.000 C 
BRANCH  20  21
ATOM     21  C   UNL     1       4.151   3.381  17.243  0.00  0.00    +0.000 C 
BRANCH  21  22
ATOM     22  O   UNL     1       4.543   2.398  18.206  0.00  0.00    +0.000 OA
ATOM     23  H   UNL     1       3.748   1.880  18.427  0.00  0.00    +0.000 HD
ENDBRANCH  21  22
ENDBRANCH  20  21
ENDBRANCH   1  20
BRANCH   2  24
ATOM     24  O   UNL     1       3.493   4.248  20.232  0.00  0.00    +0.000 OA
ATOM     25  H   UNL     1       3.616   3.479  19.654  0.00  0.00    +0.000 HD
ENDBRANCH   2  24
TORSDOF 4
ENDMDL
MODEL 3
REMARK VINA RESULT:      -7.2      0.681      1.015
REMARK  Name = 
REMARK  7 active torsions:
REMARK  status: ('A' for Active; 'I' for Inactive)
REMARK    1  A    between atoms: C_1  and  C_2
REMARK    2  A    between atoms: C_2  and  C_3
REMARK    3  A    between atoms: C_2  and  C_5
REMARK    4  A    between atoms: C_3  and  O_4
REMARK    5  A    between atoms: C_6  and  O_7
REMARK    6  A    between atoms: C_19  and  C_20
REMARK    7  A    between atoms: C_19  and  C_21
REMARK                            x       y       z     vdW  Elec       q    Type
REMARK                         _______ _______ _______ _____ _____    ______ ____
ROOT
ATOM      1  C   UNL     1       4.884   5.550  17.680  0.00  0.00    +0.000 C 
ATOM      2  C   UNL     1       4.419   5.106  18.861  0.00  0.00    +0.000 C 
ATOM      3  C   UNL     1       3.244   5.746  19.535  0.00  0.00    +0.000 C 
ATOM      4  O   UNL     1       2.695   5.164  20.462  0.00  0.00    +0.000 OA
ATOM      5  C   UNL     1       2.776   7.065  19.045  0.00  0.00    +0.000 A 
ATOM      6  C   UNL     1       3.244   7.508  17.811  0.00  0.00    +0.000 A 
ATOM      7  C   UNL     1       2.770   8.703  17.261  0.00  0.00    +0.000 A 
ATOM      8  C   UNL     1       1.829   9.461  17.948  0.00  0.00    +0.000 A 
ATOM      9  C   UNL     1       1.346   9.058  19.208  0.00  0.00    +0.000 A 
ATOM     10  C   UNL     1       1.854   7.864  19.781  0.00  0.00    +0.000 A 
ATOM     11  C   UNL     1       1.413   7.426  21.164  0.00  0.00    +0.000 C 
ATOM     12  C   UNL     1       0.665   8.471  21.977  0.00  0.00    +0.000 C 
ATOM     13  C   UNL     1      -0.350   9.176  21.100  0.00  0.00    +0.000 C 
ATOM     14  C   UNL     1       0.329   9.943  19.943  0.00  0.00    +0.000 C 
ATOM     15  C   UNL     1       1.074  11.182  20.488  0.00  0.00    +0.000 C 
ATOM     16  C   UNL     1      -0.808  10.417  19.009  0.00  0.00    +0.000 C 
ATOM     17  C   UNL     1       4.278   6.767  17.069  0.00  0.00    +0.000 C 
ATOM     18  O   UNL     1       4.670   7.201  15.989  0.00  0.00    +0.000 OA
ENDROOT
BRANCH   1  20
ATOM     19  C   UNL     1       7.284   4.716  17.769  0.00  0.00    +0.000 C 
ATOM     20  C   UNL     1       6.028   4.897  16.912  0.00  0.00    +0.000 C 
BRANCH  20  21
ATOM     21  C   UNL     1       5.582   3.600  16.220  0.00  0.00    +0.000 C 
BRANCH  21  22
ATOM     22  O   UNL     1       6.258   3.472  14.965  0.00  0.00    +0.000 OA
ATOM     23  H   UNL     1       5.956   4.207  14.401  0.00  0.00    +0.000 HD
ENDBRANCH  21  22
ENDBRANCH  20  21
ENDBRANCH   1  20
BRANCH   2  24
ATOM     24  O   UNL     1       4.957   4.020  19.533  0.00  0.00    +0.000 OA
ATOM     25  H   UNL     1       4.884   4.139  20.492  0.00  0.00    +0.000 HD
ENDBRANCH   2  24
TORSDOF 4
ENDMDL
MODEL 4
REMARK VINA RESULT:      -7.2      2.686      6.391
REMARK  Name = 
REMARK  7 active torsions:
REMARK  status: ('A' for Active; 'I' for Inactive)
REMARK    1  A    between atoms: C_1  and  C_2
REMARK    2  A    between atoms: C_2  and  C_3
REMARK    3  A    between atoms: C_2  and  C_5
REMARK    4  A    between atoms: C_3  and  O_4
REMARK    5  A    between atoms: C_6  and  O_7
REMARK    6  A    between atoms: C_19  and  C_20
REMARK    7  A    between atoms: C_19  and  C_21
REMARK                            x       y       z     vdW  Elec       q    Type
REMARK                         _______ _______ _______ _____ _____    ______ ____
ROOT
ATOM      1  C   UNL     1       1.017  10.412  19.316  0.00  0.00    +0.000 C 
ATOM      2  C   UNL     1       0.634   9.692  20.386  0.00  0.00    +0.000 C 
ATOM      3  C   UNL     1       1.189   8.327  20.655  0.00  0.00    +0.000 C 
ATOM      4  O   UNL     1       1.019   7.818  21.756  0.00  0.00    +0.000 OA
ATOM      5  C   UNL     1       1.940   7.640  19.577  0.00  0.00    +0.000 A 
ATOM      6  C   UNL     1       2.352   8.396  18.483  0.00  0.00    +0.000 A 
ATOM      7  C   UNL     1       3.137   7.820  17.480  0.00  0.00    +0.000 A 
ATOM      8  C   UNL     1       3.506   6.483  17.564  0.00  0.00    +0.000 A 
ATOM      9  C   UNL     1       3.092   5.680  18.644  0.00  0.00    +0.000 A 
ATOM     10  C   UNL     1       2.267   6.255  19.644  0.00  0.00    +0.000 A 
ATOM     11  C   UNL     1       1.742   5.411  20.790  0.00  0.00    +0.000 C 
ATOM     12  C   UNL     1       1.901   3.907  20.625  0.00  0.00    +0.000 C 
ATOM     13  C   UNL     1       3.282   3.592  20.085  0.00  0.00    +0.000 C 
ATOM     14  C   UNL     1       3.501   4.199  18.681  0.00  0.00    +0.000 C 
ATOM     15  C   UNL     1       2.657   3.440  17.634  0.00  0.00    +0.000 C 
ATOM     16  C   UNL     1       4.998   4.004  18.351  0.00  0.00    +0.000 C 
ATOM     17  C   UNL     1       1.944   9.802  18.321  0.00  0.00    +0.000 C 
ATOM     18  O   UNL     1       2.321  10.428  17.335  0.00  0.00    +0.000 OA
ENDROOT
BRANCH   1  20
ATOM     19  C   UNL     1      -0.958  11.902  18.730  0.00  0.00    +0.000 C 
ATOM     20  C   UNL     1       0.543  11.832  19.028  0.00  0.00    +0.000 C 
BRANCH  20  21
ATOM     21  C   UNL     1       0.982  12.812  20.125  0.00  0.00    +0.000 C 
BRANCH  21  22
ATOM     22  O   UNL     1      -0.136  13.120  20.965  0.00  0.00    +0.000 OA
ATOM     23  H   UNL     1      -0.484  13.982  20.674  0.00  0.00    +0.000 HD
ENDBRANCH  21  22
ENDBRANCH  20  21
ENDBRANCH   1  20
BRANCH   2  24
ATOM     24  O   UNL     1      -0.269  10.152  21.331  0.00  0.00    +0.000 OA
ATOM     25  H   UNL     1      -0.012  11.030  21.654  0.00  0.00    +0.000 HD
ENDBRANCH   2  24
TORSDOF 4
ENDMDL
MODEL 5
REMARK VINA RESULT:      -7.2      2.696      6.359
REMARK  Name = 
REMARK  7 active torsions:
REMARK  status: ('A' for Active; 'I' for Inactive)
REMARK    1  A    between atoms: C_1  and  C_2
REMARK    2  A    between atoms: C_2  and  C_3
REMARK    3  A    between atoms: C_2  and  C_5
REMARK    4  A    between atoms: C_3  and  O_4
REMARK    5  A    between atoms: C_6  and  O_7
REMARK    6  A    between atoms: C_19  and  C_20
REMARK    7  A    between atoms: C_19  and  C_21
REMARK                            x       y       z     vdW  Elec       q    Type
REMARK                         _______ _______ _______ _____ _____    ______ ____
ROOT
ATOM      1  C   UNL     1       0.808  10.365  19.480  0.00  0.00    +0.000 C 
ATOM      2  C   UNL     1       0.510   9.598  20.542  0.00  0.00    +0.000 C 
ATOM      3  C   UNL     1       1.149   8.259  20.751  0.00  0.00    +0.000 C 
ATOM      4  O   UNL     1       1.053   7.713  21.844  0.00  0.00    +0.000 OA
ATOM      5  C   UNL     1       1.892   7.644  19.626  0.00  0.00    +0.000 A 
ATOM      6  C   UNL     1       2.218   8.450  18.538  0.00  0.00    +0.000 A 
ATOM      7  C   UNL     1       2.991   7.945  17.489  0.00  0.00    +0.000 A 
ATOM      8  C   UNL     1       3.437   6.629  17.521  0.00  0.00    +0.000 A 
ATOM      9  C   UNL     1       3.112   5.776  18.594  0.00  0.00    +0.000 A 
ATOM     10  C   UNL     1       2.297   6.278  19.641  0.00  0.00    +0.000 A 
ATOM     11  C   UNL     1       1.867   5.376  20.782  0.00  0.00    +0.000 C 
ATOM     12  C   UNL     1       2.101   3.889  20.568  0.00  0.00    +0.000 C 
ATOM     13  C   UNL     1       3.474   3.665  19.966  0.00  0.00    +0.000 C 
ATOM     14  C   UNL     1       3.602   4.320  18.573  0.00  0.00    +0.000 C 
ATOM     15  C   UNL     1       2.760   3.543  17.538  0.00  0.00    +0.000 C 
ATOM     16  C   UNL     1       5.093   4.217  18.179  0.00  0.00    +0.000 C 
ATOM     17  C   UNL     1       1.727   9.834  18.432  0.00  0.00    +0.000 C 
ATOM     18  O   UNL     1       2.028  10.506  17.449  0.00  0.00    +0.000 OA
ENDROOT
BRANCH   1  20
ATOM     19  C   UNL     1       1.325  12.772  18.843  0.00  0.00    +0.000 C 
ATOM     20  C   UNL     1       0.246  11.764  19.250  0.00  0.00    +0.000 C 
BRANCH  20  21
ATOM     21  C   UNL     1      -0.951  11.744  18.288  0.00  0.00    +0.000 C 
BRANCH  21  22
ATOM     22  O   UNL     1      -0.957  12.947  17.511  0.00  0.00    +0.000 OA
ATOM     23  H   UNL     1      -0.411  13.598  17.987  0.00  0.00    +0.000 HD
ENDBRANCH  21  22
ENDBRANCH  20  21
ENDBRANCH   1  20
BRANCH   2  24
ATOM     24  O   UNL     1      -0.378   9.982  21.535  0.00  0.00    +0.000 OA
ATOM     25  H   UNL     1      -0.727   9.208  22.003  0.00  0.00    +0.000 HD
ENDBRANCH   2  24
TORSDOF 4
ENDMDL
MODEL 6
REMARK VINA RESULT:      -7.1      1.747      3.473
REMARK  Name = 
REMARK  7 active torsions:
REMARK  status: ('A' for Active; 'I' for Inactive)
REMARK    1  A    between atoms: C_1  and  C_2
REMARK    2  A    between atoms: C_2  and  C_3
REMARK    3  A    between atoms: C_2  and  C_5
REMARK    4  A    between atoms: C_3  and  O_4
REMARK    5  A    between atoms: C_6  and  O_7
REMARK    6  A    between atoms: C_19  and  C_20
REMARK    7  A    between atoms: C_19  and  C_21
REMARK                            x       y       z     vdW  Elec       q    Type
REMARK                         _______ _______ _______ _____ _____    ______ ____
ROOT
ATOM      1  C   UNL     1       2.924   4.245  19.199  0.00  0.00    +0.000 C 
ATOM      2  C   UNL     1       3.372   5.002  18.183  0.00  0.00    +0.000 C 
ATOM      3  C   UNL     1       3.213   6.491  18.182  0.00  0.00    +0.000 C 
ATOM      4  O   UNL     1       3.853   7.162  17.379  0.00  0.00    +0.000 OA
ATOM      5  C   UNL     1       2.293   7.109  19.166  0.00  0.00    +0.000 A 
ATOM      6  C   UNL     1       1.851   6.325  20.229  0.00  0.00    +0.000 A 
ATOM      7  C   UNL     1       1.052   6.880  21.233  0.00  0.00    +0.000 A 
ATOM      8  C   UNL     1       0.686   8.219  21.173  0.00  0.00    +0.000 A 
ATOM      9  C   UNL     1       1.095   9.039  20.104  0.00  0.00    +0.000 A 
ATOM     10  C   UNL     1       1.877   8.467  19.068  0.00  0.00    +0.000 A 
ATOM     11  C   UNL     1       2.284   9.296  17.864  0.00  0.00    +0.000 C 
ATOM     12  C   UNL     1       1.564  10.626  17.708  0.00  0.00    +0.000 C 
ATOM     13  C   UNL     1       1.474  11.324  19.051  0.00  0.00    +0.000 C 
ATOM     14  C   UNL     1       0.642  10.507  20.065  0.00  0.00    +0.000 C 
ATOM     15  C   UNL     1      -0.852  10.540  19.680  0.00  0.00    +0.000 C 
ATOM     16  C   UNL     1       0.819  11.203  21.434  0.00  0.00    +0.000 C 
ATOM     17  C   UNL     1       2.168   4.889  20.310  0.00  0.00    +0.000 C 
ATOM     18  O   UNL     1       1.748   4.234  21.260  0.00  0.00    +0.000 OA
ENDROOT
BRANCH   1  20
ATOM     19  C   UNL     1       2.874   2.029  17.954  0.00  0.00    +0.000 C 
ATOM     20  C   UNL     1       3.119   2.735  19.291  0.00  0.00    +0.000 C 
BRANCH  20  21
ATOM     21  C   UNL     1       4.471   2.373  19.921  0.00  0.00    +0.000 C 
BRANCH  21  22
ATOM     22  O   UNL     1       5.514   3.098  19.261  0.00  0.00    +0.000 OA
ATOM     23  H   UNL     1       6.357   2.681  19.513  0.00  0.00    +0.000 HD
ENDBRANCH  21  22
ENDBRANCH  20  21
ENDBRANCH   1  20
BRANCH   2  24
ATOM     24  O   UNL     1       4.031   4.485  17.079  0.00  0.00    +0.000 OA
ATOM     25  H   UNL     1       4.349   3.586  17.258  0.00  0.00    +0.000 HD
ENDBRANCH   2  24
TORSDOF 4
ENDMDL
MODEL 7
REMARK VINA RESULT:      -7.0      2.676      7.045
REMARK  Name = 
REMARK  7 active torsions:
REMARK  status: ('A' for Active; 'I' for Inactive)
REMARK    1  A    between atoms: C_1  and  C_2
REMARK    2  A    between atoms: C_2  and  C_3
REMARK    3  A    between atoms: C_2  and  C_5
REMARK    4  A    between atoms: C_3  and  O_4
REMARK    5  A    between atoms: C_6  and  O_7
REMARK    6  A    between atoms: C_19  and  C_20
REMARK    7  A    between atoms: C_19  and  C_21
REMARK                            x       y       z     vdW  Elec       q    Type
REMARK                         _______ _______ _______ _____ _____    ______ ____
ROOT
ATOM      1  C   UNL     1       0.640  10.141  20.169  0.00  0.00    +0.000 C 
ATOM      2  C   UNL     1       1.232  10.337  18.978  0.00  0.00    +0.000 C 
ATOM      3  C   UNL     1       1.896   9.219  18.235  0.00  0.00    +0.000 C 
ATOM      4  O   UNL     1       2.190   9.375  17.056  0.00  0.00    +0.000 OA
ATOM      5  C   UNL     1       2.164   7.950  18.953  0.00  0.00    +0.000 A 
ATOM      6  C   UNL     1       1.531   7.743  20.175  0.00  0.00    +0.000 A 
ATOM      7  C   UNL     1       1.680   6.531  20.854  0.00  0.00    +0.000 A 
ATOM      8  C   UNL     1       2.469   5.522  20.314  0.00  0.00    +0.000 A 
ATOM      9  C   UNL     1       3.143   5.699  19.091  0.00  0.00    +0.000 A 
ATOM     10  C   UNL     1       3.020   6.944  18.420  0.00  0.00    +0.000 A 
ATOM     11  C   UNL     1       3.780   7.203  17.134  0.00  0.00    +0.000 C 
ATOM     12  C   UNL     1       4.873   6.198  16.801  0.00  0.00    +0.000 C 
ATOM     13  C   UNL     1       4.372   4.791  17.057  0.00  0.00    +0.000 C 
ATOM     14  C   UNL     1       4.028   4.567  18.547  0.00  0.00    +0.000 C 
ATOM     15  C   UNL     1       5.319   4.517  19.392  0.00  0.00    +0.000 C 
ATOM     16  C   UNL     1       3.325   3.193  18.630  0.00  0.00    +0.000 C 
ATOM     17  C   UNL     1       0.727   8.799  20.813  0.00  0.00    +0.000 C 
ATOM     18  O   UNL     1       0.195   8.578  21.898  0.00  0.00    +0.000 OA
ENDROOT
BRANCH   1  20
ATOM     19  C   UNL     1       0.769  12.430  21.267  0.00  0.00    +0.000 C 
ATOM     20  C   UNL     1      -0.112  11.221  20.939  0.00  0.00    +0.000 C 
BRANCH  20  21
ATOM     21  C   UNL     1      -1.424  11.608  20.240  0.00  0.00    +0.000 C 
BRANCH  21  22
ATOM     22  O   UNL     1      -1.223  12.801  19.475  0.00  0.00    +0.000 OA
ATOM     23  H   UNL     1      -1.426  13.554  20.058  0.00  0.00    +0.000 HD
ENDBRANCH  21  22
ENDBRANCH  20  21
ENDBRANCH   1  20
BRANCH   2  24
ATOM     24  O   UNL     1       1.256  11.563  18.331  0.00  0.00    +0.000 OA
ATOM     25  H   UNL     1       1.597  11.469  17.428  0.00  0.00    +0.000 HD
ENDBRANCH   2  24
TORSDOF 4
ENDMDL
MODEL 8
REMARK VINA RESULT:      -7.0      1.654      3.693
REMARK  Name = 
REMARK  7 active torsions:
REMARK  status: ('A' for Active; 'I' for Inactive)
REMARK    1  A    between atoms: C_1  and  C_2
REMARK    2  A    between atoms: C_2  and  C_3
REMARK    3  A    between atoms: C_2  and  C_5
REMARK    4  A    between atoms: C_3  and  O_4
REMARK    5  A    between atoms: C_6  and  O_7
REMARK    6  A    between atoms: C_19  and  C_20
REMARK    7  A    between atoms: C_19  and  C_21
REMARK                            x       y       z     vdW  Elec       q    Type
REMARK                         _______ _______ _______ _____ _____    ______ ____
ROOT
ATOM      1  C   UNL     1       3.515   4.226  18.594  0.00  0.00    +0.000 C 
ATOM      2  C   UNL     1       3.858   5.124  17.654  0.00  0.00    +0.000 C 
ATOM      3  C   UNL     1       3.555   6.582  17.810  0.00  0.00    +0.000 C 
ATOM      4  O   UNL     1       4.104   7.391  17.072  0.00  0.00    +0.000 OA
ATOM      5  C   UNL     1       2.606   7.001  18.869  0.00  0.00    +0.000 A 
ATOM      6  C   UNL     1       2.272   6.073  19.852  0.00  0.00    +0.000 A 
ATOM      7  C   UNL     1       1.449   6.440  20.921  0.00  0.00    +0.000 A 
ATOM      8  C   UNL     1       0.953   7.735  21.008  0.00  0.00    +0.000 A 
ATOM      9  C   UNL     1       1.251   8.697  20.023  0.00  0.00    +0.000 A 
ATOM     10  C   UNL     1       2.057   8.314  18.919  0.00  0.00    +0.000 A 
ATOM     11  C   UNL     1       2.348   9.297  17.802  0.00  0.00    +0.000 C 
ATOM     12  C   UNL     1       1.498  10.558  17.797  0.00  0.00    +0.000 C 
ATOM     13  C   UNL     1       1.376  11.103  19.206  0.00  0.00    +0.000 C 
ATOM     14  C   UNL     1       0.656  10.108  20.144  0.00  0.00    +0.000 C 
ATOM     15  C   UNL     1      -0.845  10.030  19.789  0.00  0.00    +0.000 C 
ATOM     16  C   UNL     1       0.801  10.676  21.575  0.00  0.00    +0.000 C 
ATOM     17  C   UNL     1       2.730   4.676  19.778  0.00  0.00    +0.000 C 
ATOM     18  O   UNL     1       2.401   3.888  20.662  0.00  0.00    +0.000 OA
ENDROOT
BRANCH   1  20
ATOM     19  C   UNL     1       4.343   2.187  19.867  0.00  0.00    +0.000 C 
ATOM     20  C   UNL     1       3.858   2.742  18.525  0.00  0.00    +0.000 C 
BRANCH  20  21
ATOM     21  C   UNL     1       2.712   1.921  17.915  0.00  0.00    +0.000 C 
BRANCH  21  22
ATOM     22  O   UNL     1       1.863   1.439  18.963  0.00  0.00    +0.000 OA
ATOM     23  H   UNL     1       1.385   2.208  19.321  0.00  0.00    +0.000 HD
ENDBRANCH  21  22
ENDBRANCH  20  21
ENDBRANCH   1  20
BRANCH   2  24
ATOM     24  O   UNL     1       4.535   4.790  16.492  0.00  0.00    +0.000 OA
ATOM     25  H   UNL     1       4.265   3.914  16.175  0.00  0.00    +0.000 HD
ENDBRANCH   2  24
TORSDOF 4
ENDMDL
MODEL 9
REMARK VINA RESULT:      -6.9      3.347      7.112
REMARK  Name = 
REMARK  7 active torsions:
REMARK  status: ('A' for Active; 'I' for Inactive)
REMARK    1  A    between atoms: C_1  and  C_2
REMARK    2  A    between atoms: C_2  and  C_3
REMARK    3  A    between atoms: C_2  and  C_5
REMARK    4  A    between atoms: C_3  and  O_4
REMARK    5  A    between atoms: C_6  and  O_7
REMARK    6  A    between atoms: C_19  and  C_20
REMARK    7  A    between atoms: C_19  and  C_21
REMARK                            x       y       z     vdW  Elec       q    Type
REMARK                         _______ _______ _______ _____ _____    ______ ____
ROOT
ATOM      1  C   UNL     1      -0.142  11.491  20.863  0.00  0.00    +0.000 C 
ATOM      2  C   UNL     1       0.064  10.628  21.872  0.00  0.00    +0.000 C 
ATOM      3  C   UNL     1       0.898   9.396  21.697  0.00  0.00    +0.000 C 
ATOM      4  O   UNL     1       1.274   8.780  22.687  0.00  0.00    +0.000 OA
ATOM      5  C   UNL     1       1.254   8.969  20.323  0.00  0.00    +0.000 A 
ATOM      6  C   UNL     1       1.059   9.876  19.285  0.00  0.00    +0.000 A 
ATOM      7  C   UNL     1       1.456   9.558  17.983  0.00  0.00    +0.000 A 
ATOM      8  C   UNL     1       2.044   8.329  17.713  0.00  0.00    +0.000 A 
ATOM      9  C   UNL     1       2.240   7.376  18.731  0.00  0.00    +0.000 A 
ATOM     10  C   UNL     1       1.804   7.684  20.046  0.00  0.00    +0.000 A 
ATOM     11  C   UNL     1       1.934   6.663  21.160  0.00  0.00    +0.000 C 
ATOM     12  C   UNL     1       2.259   5.245  20.717  0.00  0.00    +0.000 C 
ATOM     13  C   UNL     1       3.337   5.273  19.652  0.00  0.00    +0.000 C 
ATOM     14  C   UNL     1       2.868   6.018  18.382  0.00  0.00    +0.000 C 
ATOM     15  C   UNL     1       1.812   5.178  17.630  0.00  0.00    +0.000 C 
ATOM     16  C   UNL     1       4.115   6.172  17.481  0.00  0.00    +0.000 C 
ATOM     17  C   UNL     1       0.393  11.170  19.509  0.00  0.00    +0.000 C 
ATOM     18  O   UNL     1       0.231  11.935  18.562  0.00  0.00    +0.000 OA
ENDROOT
BRANCH   1  20
ATOM     19  C   UNL     1      -2.417  12.566  21.226  0.00  0.00    +0.000 C 
ATOM     20  C   UNL     1      -0.920  12.796  20.999  0.00  0.00    +0.000 C 
BRANCH  20  21
ATOM     21  C   UNL     1      -0.291  13.727  22.045  0.00  0.00    +0.000 C 
BRANCH  21  22
ATOM     22  O   UNL     1      -1.071  13.691  23.246  0.00  0.00    +0.000 OA
ATOM     23  H   UNL     1      -0.835  14.480  23.765  0.00  0.00    +0.000 HD
ENDBRANCH  21  22
ENDBRANCH  20  21
ENDBRANCH   1  20
BRANCH   2  24
ATOM     24  O   UNL     1      -0.443  10.811  23.148  0.00  0.00    +0.000 OA
ATOM     25  H   UNL     1      -0.122  10.122  23.750  0.00  0.00    +0.000 HD
ENDBRANCH   2  24
TORSDOF 4
ENDMDL
