MODEL 1
REMARK VINA RESULT:      -7.7      0.000      0.000
REMARK  Name = 
REMARK  12 active torsions:
REMARK  status: ('A' for Active; 'I' for Inactive)
REMARK    1  A    between atoms: C_1  and  C_2
REMARK    2  A    between atoms: C_2  and  C_3
REMARK    3  A    between atoms: C_2  and  C_4
REMARK    4  A    between atoms: C_4  and  C_5
REMARK    5  A    between atoms: C_5  and  C_7
REMARK    6  A    between atoms: N_12  and  C_13
REMARK    7  A    between atoms: C_16  and  C_17
REMARK    8  A    between atoms: C_24  and  C_25
REMARK    9  A    between atoms: C_30  and  O_31
REMARK   10  A    between atoms: O_31  and  C_32
REMARK   11  A    between atoms: C_32  and  C_33
REMARK   12  A    between atoms: C_33  and  O_34
REMARK                            x       y       z     vdW  Elec       q    Type
REMARK                         _______ _______ _______ _____ _____    ______ ____
ROOT
ATOM      1  C   UNL     1       3.917   3.016  18.347  0.00  0.00    +0.000 C 
ATOM      2  C   UNL     1       2.616   2.964  17.628  0.00  0.00    +0.000 C 
ATOM      3  O   UNL     1       2.123   1.996  17.076  0.00  0.00    +0.000 OA
ATOM      4  C   UNL     1       1.986   4.334  17.591  0.00  0.00    +0.000 C 
ATOM      5  O   UNL     1       0.919   4.554  17.054  0.00  0.00    +0.000 OA
ATOM      6  N   UNL     1       2.826   5.161  18.307  0.00  0.00    +0.000 N 
ATOM      7  C   UNL     1       3.990   4.474  18.884  0.00  0.00    +0.000 C 
ENDROOT
BRANCH   6   8
ATOM      8  C   UNL     1       2.521   6.519  18.523  0.00  0.00    +0.000 A 
ATOM      9  C   UNL     1       2.107   6.970  19.773  0.00  0.00    +0.000 A 
ATOM     10  C   UNL     1       1.740   8.311  19.949  0.00  0.00    +0.000 A 
ATOM     11  C   UNL     1       1.838   9.235  18.898  0.00  0.00    +0.000 A 
ATOM     12  C   UNL     1       2.287   8.778  17.653  0.00  0.00    +0.000 A 
ATOM     13  C   UNL     1       2.596   7.428  17.460  0.00  0.00    +0.000 A 
BRANCH  11  14
ATOM     14  C   UNL     1       1.487  10.641  19.113  0.00  0.00    +0.000 A 
ATOM     15  C   UNL     1       2.006  11.780  18.410  0.00  0.00    +0.000 A 
ATOM     16  C   UNL     1       1.473  12.971  18.850  0.00  0.00    +0.000 A 
ATOM     17  S   UNL     1       0.348  12.740  20.113  0.00  0.00    +0.000 S 
ATOM     18  C   UNL     1       0.577  11.043  20.075  0.00  0.00    +0.000 A 
ENDBRANCH  11  14
ENDBRANCH   6   8
BRANCH   7  19
ATOM     19  C   UNL     1       5.320   5.103  18.442  0.00  0.00    +0.000 A 
ATOM     20  C   UNL     1       6.258   5.412  19.462  0.00  0.00    +0.000 A 
ATOM     21  C   UNL     1       7.422   6.133  19.208  0.00  0.00    +0.000 A 
ATOM     22  C   UNL     1       7.674   6.585  17.928  0.00  0.00    +0.000 A 
ATOM     23  C   UNL     1       6.789   6.266  16.899  0.00  0.00    +0.000 A 
ATOM     24  C   UNL     1       5.637   5.476  17.117  0.00  0.00    +0.000 A 
BRANCH  24  25
ATOM     25  O   UNL     1       4.841   5.048  16.063  0.00  0.00    +0.000 OA
BRANCH  25  26
ATOM     26  C   UNL     1       5.415   3.936  15.327  0.00  0.00    +0.000 C 
BRANCH  26  27
ATOM     27  C   UNL     1       5.748   4.266  13.876  0.00  0.00    +0.000 C 
BRANCH  27  28
ATOM     28  O   UNL     1       6.335   3.161  13.203  0.00  0.00    +0.000 OA
ATOM     29  H   UNL     1       7.163   2.946  13.678  0.00  0.00    +0.000 HD
ENDBRANCH  27  28
ENDBRANCH  26  27
ENDBRANCH  25  26
ENDBRANCH  24  25
ENDBRANCH   7  19
BRANCH   1  30
ATOM     30  C   UNL     1       4.152   2.010  19.434  0.00  0.00    +0.000 C 
ATOM     31  O   UNL     1       4.459   0.855  19.127  0.00  0.00    +0.000 OA
BRANCH  30  32
ATOM     32  C   UNL     1       4.101   2.415  20.893  0.00  0.00    +0.000 C 
BRANCH  32  34
ATOM     33  C   UNL     1       2.290   3.993  21.746  0.00  0.00    +0.000 C 
ATOM     34  C   UNL     1       2.675   2.543  21.448  0.00  0.00    +0.000 C 
ATOM     35  C   UNL     1       1.678   1.921  20.471  0.00  0.00    +0.000 C 
ENDBRANCH  32  34
ENDBRANCH  30  32
ENDBRANCH   1  30
TORSDOF 10
ENDMDL
MODEL 2
REMARK VINA RESULT:      -7.6      0.460      1.083
REMARK  Name = 
REMARK  12 active torsions:
REMARK  status: ('A' for Active; 'I' for Inactive)
REMARK    1  A    between atoms: C_1  and  C_2
REMARK    2  A    between atoms: C_2  and  C_3
REMARK    3  A    between atoms: C_2  and  C_4
REMARK    4  A    between atoms: C_4  and  C_5
REMARK    5  A    between atoms: C_5  and  C_7
REMARK    6  A    between atoms: N_12  and  C_13
REMARK    7  A    between atoms: C_16  and  C_17
REMARK    8  A    between atoms: C_24  and  C_25
REMARK    9  A    between atoms: C_30  and  O_31
REMARK   10  A    between atoms: O_31  and  C_32
REMARK   11  A    between atoms: C_32  and  C_33
REMARK   12  A    between atoms: C_33  and  O_34
REMARK                            x       y       z     vdW  Elec       q    Type
REMARK                         _______ _______ _______ _____ _____    ______ ____
ROOT
ATOM      1  C   UNL     1       4.029   3.064  18.586  0.00  0.00    +0.000 C 
ATOM      2  C   UNL     1       2.728   2.925  17.880  0.00  0.00    +0.000 C 
ATOM      3  O   UNL     1       2.242   1.899  17.435  0.00  0.00    +0.000 OA
ATOM      4  C   UNL     1       2.085   4.278  17.700  0.00  0.00    +0.000 C 
ATOM      5  O   UNL     1       1.015   4.430  17.145  0.00  0.00    +0.000 OA
ATOM      6  N   UNL     1       2.919   5.183  18.322  0.00  0.00    +0.000 N 
ATOM      7  C   UNL     1       4.090   4.570  18.966  0.00  0.00    +0.000 C 
ENDROOT
BRANCH   6   8
ATOM      8  C   UNL     1       2.602   6.553  18.394  0.00  0.00    +0.000 A 
ATOM      9  C   UNL     1       2.870   7.407  17.328  0.00  0.00    +0.000 A 
ATOM     10  C   UNL     1       2.611   8.780  17.446  0.00  0.00    +0.000 A 
ATOM     11  C   UNL     1       2.025   9.311  18.605  0.00  0.00    +0.000 A 
ATOM     12  C   UNL     1       1.728   8.438  19.658  0.00  0.00    +0.000 A 
ATOM     13  C   UNL     1       2.042   7.079  19.565  0.00  0.00    +0.000 A 
BRANCH  11  14
ATOM     14  C   UNL     1       1.726  10.742  18.693  0.00  0.00    +0.000 A 
ATOM     15  C   UNL     1       2.419  11.813  18.033  0.00  0.00    +0.000 A 
ATOM     16  C   UNL     1       1.892  13.052  18.322  0.00  0.00    +0.000 A 
ATOM     17  S   UNL     1       0.563  12.949  19.388  0.00  0.00    +0.000 S 
ATOM     18  C   UNL     1       0.695  11.243  19.468  0.00  0.00    +0.000 A 
ENDBRANCH  11  14
ENDBRANCH   6   8
BRANCH   7  19
ATOM     19  C   UNL     1       5.413   5.161  18.457  0.00  0.00    +0.000 A 
ATOM     20  C   UNL     1       6.363   5.556  19.436  0.00  0.00    +0.000 A 
ATOM     21  C   UNL     1       7.522   6.254  19.108  0.00  0.00    +0.000 A 
ATOM     22  C   UNL     1       7.759   6.596  17.792  0.00  0.00    +0.000 A 
ATOM     23  C   UNL     1       6.862   6.190  16.804  0.00  0.00    +0.000 A 
ATOM     24  C   UNL     1       5.715   5.421  17.102  0.00  0.00    +0.000 A 
BRANCH  24  25
ATOM     25  O   UNL     1       4.907   4.905  16.097  0.00  0.00    +0.000 OA
BRANCH  25  26
ATOM     26  C   UNL     1       5.540   3.834  15.348  0.00  0.00    +0.000 C 
BRANCH  26  27
ATOM     27  C   UNL     1       5.924   4.224  13.924  0.00  0.00    +0.000 C 
BRANCH  27  28
ATOM     28  O   UNL     1       6.284   3.092  13.144  0.00  0.00    +0.000 OA
ATOM     29  H   UNL     1       7.259   3.026  13.173  0.00  0.00    +0.000 HD
ENDBRANCH  27  28
ENDBRANCH  26  27
ENDBRANCH  25  26
ENDBRANCH  24  25
ENDBRANCH   7  19
BRANCH   1  30
ATOM     30  C   UNL     1       4.275   2.180  19.773  0.00  0.00    +0.000 C 
ATOM     31  O   UNL     1       4.989   1.182  19.641  0.00  0.00    +0.000 OA
BRANCH  30  32
ATOM     32  C   UNL     1       3.729   2.543  21.140  0.00  0.00    +0.000 C 
BRANCH  32  34
ATOM     33  C   UNL     1       1.371   2.091  21.995  0.00  0.00    +0.000 C 
ATOM     34  C   UNL     1       2.258   2.980  21.121  0.00  0.00    +0.000 C 
ATOM     35  C   UNL     1       2.141   4.439  21.562  0.00  0.00    +0.000 C 
ENDBRANCH  32  34
ENDBRANCH  30  32
ENDBRANCH   1  30
TORSDOF 10
ENDMDL
MODEL 3
REMARK VINA RESULT:      -7.5      0.779      1.086
REMARK  Name = 
REMARK  12 active torsions:
REMARK  status: ('A' for Active; 'I' for Inactive)
REMARK    1  A    between atoms: C_1  and  C_2
REMARK    2  A    between atoms: C_2  and  C_3
REMARK    3  A    between atoms: C_2  and  C_4
REMARK    4  A    between atoms: C_4  and  C_5
REMARK    5  A    between atoms: C_5  and  C_7
REMARK    6  A    between atoms: N_12  and  C_13
REMARK    7  A    between atoms: C_16  and  C_17
REMARK    8  A    between atoms: C_24  and  C_25
REMARK    9  A    between atoms: C_30  and  O_31
REMARK   10  A    between atoms: O_31  and  C_32
REMARK   11  A    between atoms: C_32  and  C_33
REMARK   12  A    between atoms: C_33  and  O_34
REMARK                            x       y       z     vdW  Elec       q    Type
REMARK                         _______ _______ _______ _____ _____    ______ ____
ROOT
ATOM      1  C   UNL     1       4.040   3.151  18.561  0.00  0.00    +0.000 C 
ATOM      2  C   UNL     1       2.742   3.025  17.847  0.00  0.00    +0.000 C 
ATOM      3  O   UNL     1       2.264   2.010  17.371  0.00  0.00    +0.000 OA
ATOM      4  C   UNL     1       2.091   4.378  17.704  0.00  0.00    +0.000 C 
ATOM      5  O   UNL     1       1.022   4.539  17.151  0.00  0.00    +0.000 OA
ATOM      6  N   UNL     1       2.918   5.270  18.355  0.00  0.00    +0.000 N 
ATOM      7  C   UNL     1       4.091   4.647  18.984  0.00  0.00    +0.000 C 
ENDROOT
BRANCH   6   8
ATOM      8  C   UNL     1       2.591   6.636  18.465  0.00  0.00    +0.000 A 
ATOM      9  C   UNL     1       2.148   7.171  19.672  0.00  0.00    +0.000 A 
ATOM     10  C   UNL     1       1.761   8.517  19.742  0.00  0.00    +0.000 A 
ATOM     11  C   UNL     1       1.869   9.363  18.628  0.00  0.00    +0.000 A 
ATOM     12  C   UNL     1       2.347   8.822  17.428  0.00  0.00    +0.000 A 
ATOM     13  C   UNL     1       2.676   7.466  17.341  0.00  0.00    +0.000 A 
BRANCH  11  14
ATOM     14  C   UNL     1       1.496  10.775  18.734  0.00  0.00    +0.000 A 
ATOM     15  C   UNL     1       0.282  11.312  19.281  0.00  0.00    +0.000 A 
ATOM     16  C   UNL     1       0.234  12.687  19.235  0.00  0.00    +0.000 A 
ATOM     17  S   UNL     1       1.640  13.353  18.534  0.00  0.00    +0.000 S 
ATOM     18  C   UNL     1       2.314  11.798  18.286  0.00  0.00    +0.000 A 
ENDBRANCH  11  14
ENDBRANCH   6   8
BRANCH   7  19
ATOM     19  C   UNL     1       5.412   5.260  18.496  0.00  0.00    +0.000 A 
ATOM     20  C   UNL     1       6.396   5.542  19.480  0.00  0.00    +0.000 A 
ATOM     21  C   UNL     1       7.560   6.246  19.188  0.00  0.00    +0.000 A 
ATOM     22  C   UNL     1       7.768   6.710  17.905  0.00  0.00    +0.000 A 
ATOM     23  C   UNL     1       6.836   6.419  16.909  0.00  0.00    +0.000 A 
ATOM     24  C   UNL     1       5.681   5.645  17.164  0.00  0.00    +0.000 A 
BRANCH  24  25
ATOM     25  O   UNL     1       4.835   5.244  16.138  0.00  0.00    +0.000 OA
BRANCH  25  26
ATOM     26  C   UNL     1       5.488   5.209  14.841  0.00  0.00    +0.000 C 
BRANCH  26  27
ATOM     27  C   UNL     1       6.187   3.887  14.540  0.00  0.00    +0.000 C 
BRANCH  27  28
ATOM     28  O   UNL     1       6.001   2.941  15.584  0.00  0.00    +0.000 OA
ATOM     29  H   UNL     1       6.239   3.390  16.420  0.00  0.00    +0.000 HD
ENDBRANCH  27  28
ENDBRANCH  26  27
ENDBRANCH  25  26
ENDBRANCH  24  25
ENDBRANCH   7  19
BRANCH   1  30
ATOM     30  C   UNL     1       4.289   2.236  19.723  0.00  0.00    +0.000 C 
ATOM     31  O   UNL     1       5.006   1.244  19.562  0.00  0.00    +0.000 OA
BRANCH  30  32
ATOM     32  C   UNL     1       3.743   2.559  21.099  0.00  0.00    +0.000 C 
BRANCH  32  34
ATOM     33  C   UNL     1       1.415   2.056  22.008  0.00  0.00    +0.000 C 
ATOM     34  C   UNL     1       2.258   2.951  21.097  0.00  0.00    +0.000 C 
ATOM     35  C   UNL     1       2.106   4.415  21.508  0.00  0.00    +0.000 C 
ENDBRANCH  32  34
ENDBRANCH  30  32
ENDBRANCH   1  30
TORSDOF 10
ENDMDL
MODEL 4
REMARK VINA RESULT:      -7.3      2.000      5.312
REMARK  Name = 
REMARK  12 active torsions:
REMARK  status: ('A' for Active; 'I' for Inactive)
REMARK    1  A    between atoms: C_1  and  C_2
REMARK    2  A    between atoms: C_2  and  C_3
REMARK    3  A    between atoms: C_2  and  C_4
REMARK    4  A    between atoms: C_4  and  C_5
REMARK    5  A    between atoms: C_5  and  C_7
REMARK    6  A    between atoms: N_12  and  C_13
REMARK    7  A    between atoms: C_16  and  C_17
REMARK    8  A    between atoms: C_24  and  C_25
REMARK    9  A    between atoms: C_30  and  O_31
REMARK   10  A    between atoms: O_31  and  C_32
REMARK   11  A    between atoms: C_32  and  C_33
REMARK   12  A    between atoms: C_33  and  O_34
REMARK                            x       y       z     vdW  Elec       q    Type
REMARK                         _______ _______ _______ _____ _____    ______ ____
ROOT
ATOM      1  C   UNL     1       5.701   4.617  15.722  0.00  0.00    +0.000 C 
ATOM      2  C   UNL     1       6.582   5.804  15.884  0.00  0.00    +0.000 C 
ATOM      3  O   UNL     1       7.717   5.936  15.460  0.00  0.00    +0.000 OA
ATOM      4  C   UNL     1       5.904   6.843  16.742  0.00  0.00    +0.000 C 
ATOM      5  O   UNL     1       6.424   7.904  17.024  0.00  0.00    +0.000 OA
ATOM      6  N   UNL     1       4.652   6.343  17.031  0.00  0.00    +0.000 N 
ATOM      7  C   UNL     1       4.372   5.040  16.411  0.00  0.00    +0.000 C 
ENDROOT
BRANCH   6   8
ATOM      8  C   UNL     1       3.716   7.081  17.782  0.00  0.00    +0.000 A 
ATOM      9  C   UNL     1       3.315   6.654  19.045  0.00  0.00    +0.000 A 
ATOM     10  C   UNL     1       2.331   7.364  19.746  0.00  0.00    +0.000 A 
ATOM     11  C   UNL     1       1.776   8.543  19.225  0.00  0.00    +0.000 A 
ATOM     12  C   UNL     1       2.211   8.982  17.968  0.00  0.00    +0.000 A 
ATOM     13  C   UNL     1       3.149   8.241  17.242  0.00  0.00    +0.000 A 
BRANCH  11  14
ATOM     14  C   UNL     1       0.778   9.292  19.991  0.00  0.00    +0.000 A 
ATOM     15  C   UNL     1       0.266   8.970  21.294  0.00  0.00    +0.000 A 
ATOM     16  C   UNL     1      -0.668   9.877  21.743  0.00  0.00    +0.000 A 
ATOM     17  S   UNL     1      -0.946  11.123  20.610  0.00  0.00    +0.000 S 
ATOM     18  C   UNL     1       0.181  10.446  19.513  0.00  0.00    +0.000 A 
ENDBRANCH  11  14
ENDBRANCH   6   8
BRANCH   7  19
ATOM     19  C   UNL     1       3.983   3.972  17.444  0.00  0.00    +0.000 A 
ATOM     20  C   UNL     1       2.681   3.416  17.339  0.00  0.00    +0.000 A 
ATOM     21  C   UNL     1       2.153   2.568  18.308  0.00  0.00    +0.000 A 
ATOM     22  C   UNL     1       2.905   2.264  19.425  0.00  0.00    +0.000 A 
ATOM     23  C   UNL     1       4.200   2.767  19.540  0.00  0.00    +0.000 A 
ATOM     24  C   UNL     1       4.785   3.573  18.536  0.00  0.00    +0.000 A 
BRANCH  24  25
ATOM     25  O   UNL     1       6.120   3.950  18.595  0.00  0.00    +0.000 OA
BRANCH  25  26
ATOM     26  C   UNL     1       6.361   5.057  19.504  0.00  0.00    +0.000 C 
BRANCH  26  27
ATOM     27  C   UNL     1       7.838   5.395  19.682  0.00  0.00    +0.000 C 
BRANCH  27  28
ATOM     28  O   UNL     1       8.179   6.621  19.050  0.00  0.00    +0.000 OA
ATOM     29  H   UNL     1       8.761   6.399  18.295  0.00  0.00    +0.000 HD
ENDBRANCH  27  28
ENDBRANCH  26  27
ENDBRANCH  25  26
ENDBRANCH  24  25
ENDBRANCH   7  19
BRANCH   1  30
ATOM     30  C   UNL     1       5.468   4.106  14.332  0.00  0.00    +0.000 C 
ATOM     31  O   UNL     1       4.429   4.418  13.743  0.00  0.00    +0.000 OA
BRANCH  30  32
ATOM     32  C   UNL     1       6.524   3.287  13.617  0.00  0.00    +0.000 C 
BRANCH  32  34
ATOM     33  C   UNL     1       7.367   4.736  11.698  0.00  0.00    +0.000 C 
ATOM     34  C   UNL     1       6.552   3.506  12.098  0.00  0.00    +0.000 C 
ATOM     35  C   UNL     1       7.100   2.260  11.402  0.00  0.00    +0.000 C 
ENDBRANCH  32  34
ENDBRANCH  30  32
ENDBRANCH   1  30
TORSDOF 10
ENDMDL
MODEL 5
REMARK VINA RESULT:      -7.3      1.960      5.111
REMARK  Name = 
REMARK  12 active torsions:
REMARK  status: ('A' for Active; 'I' for Inactive)
REMARK    1  A    between atoms: C_1  and  C_2
REMARK    2  A    between atoms: C_2  and  C_3
REMARK    3  A    between atoms: C_2  and  C_4
REMARK    4  A    between atoms: C_4  and  C_5
REMARK    5  A    between atoms: C_5  and  C_7
REMARK    6  A    between atoms: N_12  and  C_13
REMARK    7  A    between atoms: C_16  and  C_17
REMARK    8  A    between atoms: C_24  and  C_25
REMARK    9  A    between atoms: C_30  and  O_31
REMARK   10  A    between atoms: O_31  and  C_32
REMARK   11  A    between atoms: C_32  and  C_33
REMARK   12  A    between atoms: C_33  and  O_34
REMARK                            x       y       z     vdW  Elec       q    Type
REMARK                         _______ _______ _______ _____ _____    ______ ____
ROOT
ATOM      1  C   UNL     1       5.660   4.399  16.387  0.00  0.00    +0.000 C 
ATOM      2  C   UNL     1       6.535   5.601  16.385  0.00  0.00    +0.000 C 
ATOM      3  O   UNL     1       7.695   5.662  16.016  0.00  0.00    +0.000 OA
ATOM      4  C   UNL     1       5.810   6.775  16.995  0.00  0.00    +0.000 C 
ATOM      5  O   UNL     1       6.316   7.873  17.111  0.00  0.00    +0.000 OA
ATOM      6  N   UNL     1       4.539   6.328  17.291  0.00  0.00    +0.000 N 
ATOM      7  C   UNL     1       4.293   4.932  16.902  0.00  0.00    +0.000 C 
ENDROOT
BRANCH   6   8
ATOM      8  C   UNL     1       3.562   7.183  17.834  0.00  0.00    +0.000 A 
ATOM      9  C   UNL     1       3.022   6.945  19.095  0.00  0.00    +0.000 A 
ATOM     10  C   UNL     1       2.000   7.768  19.588  0.00  0.00    +0.000 A 
ATOM     11  C   UNL     1       1.544   8.876  18.857  0.00  0.00    +0.000 A 
ATOM     12  C   UNL     1       2.116   9.126  17.605  0.00  0.00    +0.000 A 
ATOM     13  C   UNL     1       3.093   8.271  17.086  0.00  0.00    +0.000 A 
BRANCH  11  14
ATOM     14  C   UNL     1       0.502   9.746  19.408  0.00  0.00    +0.000 A 
ATOM     15  C   UNL     1       0.336  10.136  20.780  0.00  0.00    +0.000 A 
ATOM     16  C   UNL     1      -0.746  10.966  20.975  0.00  0.00    +0.000 A 
ATOM     17  S   UNL     1      -1.577  11.286  19.519  0.00  0.00    +0.000 S 
ATOM     18  C   UNL     1      -0.491  10.309  18.625  0.00  0.00    +0.000 A 
ENDBRANCH  11  14
ENDBRANCH   6   8
BRANCH   7  19
ATOM     19  C   UNL     1       3.834   4.067  18.086  0.00  0.00    +0.000 A 
ATOM     20  C   UNL     1       2.479   3.640  18.087  0.00  0.00    +0.000 A 
ATOM     21  C   UNL     1       1.903   2.998  19.179  0.00  0.00    +0.000 A 
ATOM     22  C   UNL     1       2.658   2.779  20.314  0.00  0.00    +0.000 A 
ATOM     23  C   UNL     1       4.001   3.155  20.329  0.00  0.00    +0.000 A 
ATOM     24  C   UNL     1       4.628   3.745  19.209  0.00  0.00    +0.000 A 
BRANCH  24  25
ATOM     25  O   UNL     1       5.996   3.986  19.187  0.00  0.00    +0.000 OA
BRANCH  25  26
ATOM     26  C   UNL     1       6.369   5.223  19.851  0.00  0.00    +0.000 C 
BRANCH  26  27
ATOM     27  C   UNL     1       7.870   5.494  19.846  0.00  0.00    +0.000 C 
BRANCH  27  28
ATOM     28  O   UNL     1       8.476   5.136  21.079  0.00  0.00    +0.000 OA
ATOM     29  H   UNL     1       7.941   5.545  21.788  0.00  0.00    +0.000 HD
ENDBRANCH  27  28
ENDBRANCH  26  27
ENDBRANCH  25  26
ENDBRANCH  24  25
ENDBRANCH   7  19
BRANCH   1  30
ATOM     30  C   UNL     1       5.513   3.641  15.101  0.00  0.00    +0.000 C 
ATOM     31  O   UNL     1       5.367   2.416  15.140  0.00  0.00    +0.000 OA
BRANCH  30  32
ATOM     32  C   UNL     1       5.459   4.367  13.772  0.00  0.00    +0.000 C 
BRANCH  32  34
ATOM     33  C   UNL     1       4.595   3.376  11.589  0.00  0.00    +0.000 C 
ATOM     34  C   UNL     1       5.768   3.470  12.565  0.00  0.00    +0.000 C 
ATOM     35  C   UNL     1       7.016   3.980  11.844  0.00  0.00    +0.000 C 
ENDBRANCH  32  34
ENDBRANCH  30  32
ENDBRANCH   1  30
TORSDOF 10
ENDMDL
MODEL 6
REMARK VINA RESULT:      -7.2      1.993      5.260
REMARK  Name = 
REMARK  12 active torsions:
REMARK  status: ('A' for Active; 'I' for Inactive)
REMARK    1  A    between atoms: C_1  and  C_2
REMARK    2  A    between atoms: C_2  and  C_3
REMARK    3  A    between atoms: C_2  and  C_4
REMARK    4  A    between atoms: C_4  and  C_5
REMARK    5  A    between atoms: C_5  and  C_7
REMARK    6  A    between atoms: N_12  and  C_13
REMARK    7  A    between atoms: C_16  and  C_17
REMARK    8  A    between atoms: C_24  and  C_25
REMARK    9  A    between atoms: C_30  and  O_31
REMARK   10  A    between atoms: O_31  and  C_32
REMARK   11  A    between atoms: C_32  and  C_33
REMARK   12  A    between atoms: C_33  and  O_34
REMARK                            x       y       z     vdW  Elec       q    Type
REMARK                         _______ _______ _______ _____ _____    ______ ____
ROOT
ATOM      1  C   UNL     1       5.500   4.478  15.929  0.00  0.00    +0.000 C 
ATOM      2  C   UNL     1       6.375   5.678  16.009  0.00  0.00    +0.000 C 
ATOM      3  O   UNL     1       7.505   5.791  15.568  0.00  0.00    +0.000 OA
ATOM      4  C   UNL     1       5.697   6.765  16.807  0.00  0.00    +0.000 C 
ATOM      5  O   UNL     1       6.212   7.844  17.019  0.00  0.00    +0.000 OA
ATOM      6  N   UNL     1       4.451   6.275  17.138  0.00  0.00    +0.000 N 
ATOM      7  C   UNL     1       4.175   4.935  16.602  0.00  0.00    +0.000 C 
ENDROOT
BRANCH   6   8
ATOM      8  C   UNL     1       3.516   7.052  17.849  0.00  0.00    +0.000 A 
ATOM      9  C   UNL     1       3.001   8.227  17.308  0.00  0.00    +0.000 A 
ATOM     10  C   UNL     1       2.126   9.022  18.060  0.00  0.00    +0.000 A 
ATOM     11  C   UNL     1       1.705   8.628  19.339  0.00  0.00    +0.000 A 
ATOM     12  C   UNL     1       2.204   7.428  19.861  0.00  0.00    +0.000 A 
ATOM     13  C   UNL     1       3.123   6.665  19.136  0.00  0.00    +0.000 A 
BRANCH  11  14
ATOM     14  C   UNL     1       0.759   9.454  20.094  0.00  0.00    +0.000 A 
ATOM     15  C   UNL     1      -0.215  10.363  19.558  0.00  0.00    +0.000 A 
ATOM     16  C   UNL     1      -0.955  10.993  20.533  0.00  0.00    +0.000 A 
ATOM     17  S   UNL     1      -0.491  10.507  22.102  0.00  0.00    +0.000 S 
ATOM     18  C   UNL     1       0.707   9.455  21.477  0.00  0.00    +0.000 A 
ENDBRANCH  11  14
ENDBRANCH   6   8
BRANCH   7  19
ATOM     19  C   UNL     1       3.801   3.931  17.703  0.00  0.00    +0.000 A 
ATOM     20  C   UNL     1       2.491   3.384  17.660  0.00  0.00    +0.000 A 
ATOM     21  C   UNL     1       1.980   2.597  18.688  0.00  0.00    +0.000 A 
ATOM     22  C   UNL     1       2.756   2.348  19.802  0.00  0.00    +0.000 A 
ATOM     23  C   UNL     1       4.059   2.843  19.856  0.00  0.00    +0.000 A 
ATOM     24  C   UNL     1       4.625   3.584  18.796  0.00  0.00    +0.000 A 
BRANCH  24  25
ATOM     25  O   UNL     1       5.965   3.950  18.801  0.00  0.00    +0.000 OA
BRANCH  25  26
ATOM     26  C   UNL     1       6.239   5.105  19.638  0.00  0.00    +0.000 C 
BRANCH  26  27
ATOM     27  C   UNL     1       7.691   5.568  19.589  0.00  0.00    +0.000 C 
BRANCH  27  28
ATOM     28  O   UNL     1       8.381   5.276  20.796  0.00  0.00    +0.000 OA
ATOM     29  H   UNL     1       8.635   4.332  20.757  0.00  0.00    +0.000 HD
ENDBRANCH  27  28
ENDBRANCH  26  27
ENDBRANCH  25  26
ENDBRANCH  24  25
ENDBRANCH   7  19
BRANCH   1  30
ATOM     30  C   UNL     1       5.259   3.880  14.575  0.00  0.00    +0.000 C 
ATOM     31  O   UNL     1       4.167   3.359  14.334  0.00  0.00    +0.000 OA
BRANCH  30  32
ATOM     32  C   UNL     1       6.304   3.983  13.483  0.00  0.00    +0.000 C 
BRANCH  32  34
ATOM     33  C   UNL     1       4.876   3.505  11.426  0.00  0.00    +0.000 C 
ATOM     34  C   UNL     1       6.049   3.045  12.294  0.00  0.00    +0.000 C 
ATOM     35  C   UNL     1       7.315   2.921  11.447  0.00  0.00    +0.000 C 
ENDBRANCH  32  34
ENDBRANCH  30  32
ENDBRANCH   1  30
TORSDOF 10
ENDMDL
MODEL 7
REMARK VINA RESULT:      -7.1      5.430     10.333
REMARK  Name = 
REMARK  12 active torsions:
REMARK  status: ('A' for Active; 'I' for Inactive)
REMARK    1  A    between atoms: C_1  and  C_2
REMARK    2  A    between atoms: C_2  and  C_3
REMARK    3  A    between atoms: C_2  and  C_4
REMARK    4  A    between atoms: C_4  and  C_5
REMARK    5  A    between atoms: C_5  and  C_7
REMARK    6  A    between atoms: N_12  and  C_13
REMARK    7  A    between atoms: C_16  and  C_17
REMARK    8  A    between atoms: C_24  and  C_25
REMARK    9  A    between atoms: C_30  and  O_31
REMARK   10  A    between atoms: O_31  and  C_32
REMARK   11  A    between atoms: C_32  and  C_33
REMARK   12  A    between atoms: C_33  and  O_34
REMARK                            x       y       z     vdW  Elec       q    Type
REMARK                         _______ _______ _______ _____ _____    ______ ____
ROOT
ATOM      1  C   UNL     1      -0.725  13.522  19.348  0.00  0.00    +0.000 C 
ATOM      2  C   UNL     1       0.662  13.878  18.952  0.00  0.00    +0.000 C 
ATOM      3  O   UNL     1       1.099  14.995  18.736  0.00  0.00    +0.000 OA
ATOM      4  C   UNL     1       1.487  12.629  18.762  0.00  0.00    +0.000 C 
ATOM      5  O   UNL     1       2.656  12.655  18.432  0.00  0.00    +0.000 OA
ATOM      6  N   UNL     1       0.662  11.573  19.090  0.00  0.00    +0.000 N 
ATOM      7  C   UNL     1      -0.678  11.979  19.537  0.00  0.00    +0.000 C 
ENDROOT
BRANCH   6   8
ATOM      8  C   UNL     1       1.123  10.242  19.074  0.00  0.00    +0.000 A 
ATOM      9  C   UNL     1       1.085   9.457  20.224  0.00  0.00    +0.000 A 
ATOM     10  C   UNL     1       1.613   8.159  20.205  0.00  0.00    +0.000 A 
ATOM     11  C   UNL     1       2.130   7.603  19.025  0.00  0.00    +0.000 A 
ATOM     12  C   UNL     1       2.133   8.389  17.867  0.00  0.00    +0.000 A 
ATOM     13  C   UNL     1       1.662   9.705  17.899  0.00  0.00    +0.000 A 
BRANCH  11  14
ATOM     14  C   UNL     1       2.641   6.230  19.017  0.00  0.00    +0.000 A 
ATOM     15  C   UNL     1       3.386   5.589  17.970  0.00  0.00    +0.000 A 
ATOM     16  C   UNL     1       3.721   4.288  18.268  0.00  0.00    +0.000 A 
ATOM     17  S   UNL     1       3.146   3.815  19.805  0.00  0.00    +0.000 S 
ATOM     18  C   UNL     1       2.442   5.354  20.070  0.00  0.00    +0.000 A 
ENDBRANCH  11  14
ENDBRANCH   6   8
BRANCH   7  19
ATOM     19  C   UNL     1      -1.793  11.338  18.698  0.00  0.00    +0.000 A 
ATOM     20  C   UNL     1      -1.394  10.525  17.604  0.00  0.00    +0.000 A 
ATOM     21  C   UNL     1      -2.303  10.028  16.675  0.00  0.00    +0.000 A 
ATOM     22  C   UNL     1      -3.641  10.346  16.798  0.00  0.00    +0.000 A 
ATOM     23  C   UNL     1      -4.068  11.113  17.882  0.00  0.00    +0.000 A 
ATOM     24  C   UNL     1      -3.175  11.570  18.877  0.00  0.00    +0.000 A 
BRANCH  24  25
ATOM     25  O   UNL     1      -3.631  12.212  20.021  0.00  0.00    +0.000 OA
BRANCH  25  26
ATOM     26  C   UNL     1      -4.972  12.751  19.878  0.00  0.00    +0.000 C 
BRANCH  26  27
ATOM     27  C   UNL     1      -5.218  14.013  20.698  0.00  0.00    +0.000 C 
BRANCH  27  28
ATOM     28  O   UNL     1      -5.092  15.189  19.911  0.00  0.00    +0.000 OA
ATOM     29  H   UNL     1      -4.431  15.758  20.354  0.00  0.00    +0.000 HD
ENDBRANCH  27  28
ENDBRANCH  26  27
ENDBRANCH  25  26
ENDBRANCH  24  25
ENDBRANCH   7  19
BRANCH   1  30
ATOM     30  C   UNL     1      -1.306  14.211  20.547  0.00  0.00    +0.000 C 
ATOM     31  O   UNL     1      -2.076  15.162  20.379  0.00  0.00    +0.000 OA
BRANCH  30  32
ATOM     32  C   UNL     1      -1.027  13.703  21.947  0.00  0.00    +0.000 C 
BRANCH  32  34
ATOM     33  C   UNL     1      -2.606  12.172  23.234  0.00  0.00    +0.000 C 
ATOM     34  C   UNL     1      -2.279  13.611  22.832  0.00  0.00    +0.000 C 
ATOM     35  C   UNL     1      -2.103  14.481  24.076  0.00  0.00    +0.000 C 
ENDBRANCH  32  34
ENDBRANCH  30  32
ENDBRANCH   1  30
TORSDOF 10
ENDMDL
MODEL 8
REMARK VINA RESULT:      -7.0      5.067      9.639
REMARK  Name = 
REMARK  12 active torsions:
REMARK  status: ('A' for Active; 'I' for Inactive)
REMARK    1  A    between atoms: C_1  and  C_2
REMARK    2  A    between atoms: C_2  and  C_3
REMARK    3  A    between atoms: C_2  and  C_4
REMARK    4  A    between atoms: C_4  and  C_5
REMARK    5  A    between atoms: C_5  and  C_7
REMARK    6  A    between atoms: N_12  and  C_13
REMARK    7  A    between atoms: C_16  and  C_17
REMARK    8  A    between atoms: C_24  and  C_25
REMARK    9  A    between atoms: C_30  and  O_31
REMARK   10  A    between atoms: O_31  and  C_32
REMARK   11  A    between atoms: C_32  and  C_33
REMARK   12  A    between atoms: C_33  and  O_34
REMARK                            x       y       z     vdW  Elec       q    Type
REMARK                         _______ _______ _______ _____ _____    ______ ____
ROOT
ATOM      1  C   UNL     1      -1.383  12.303  21.159  0.00  0.00    +0.000 C 
ATOM      2  C   UNL     1      -0.034  12.755  21.589  0.00  0.00    +0.000 C 
ATOM      3  O   UNL     1       0.233  13.756  22.231  0.00  0.00    +0.000 OA
ATOM      4  C   UNL     1       1.025  11.828  21.046  0.00  0.00    +0.000 C 
ATOM      5  O   UNL     1       2.210  11.988  21.256  0.00  0.00    +0.000 OA
ATOM      6  N   UNL     1       0.350  10.828  20.376  0.00  0.00    +0.000 N 
ATOM      7  C   UNL     1      -1.113  10.954  20.435  0.00  0.00    +0.000 C 
ENDROOT
BRANCH   6   8
ATOM      8  C   UNL     1       1.030   9.750  19.778  0.00  0.00    +0.000 A 
ATOM      9  C   UNL     1       1.303   8.588  20.496  0.00  0.00    +0.000 A 
ATOM     10  C   UNL     1       2.042   7.555  19.904  0.00  0.00    +0.000 A 
ATOM     11  C   UNL     1       2.467   7.639  18.569  0.00  0.00    +0.000 A 
ATOM     12  C   UNL     1       2.159   8.797  17.846  0.00  0.00    +0.000 A 
ATOM     13  C   UNL     1       1.474   9.854  18.454  0.00  0.00    +0.000 A 
BRANCH  11  14
ATOM     14  C   UNL     1       3.205   6.531  17.957  0.00  0.00    +0.000 A 
ATOM     15  C   UNL     1       4.398   6.619  17.163  0.00  0.00    +0.000 A 
ATOM     16  C   UNL     1       4.848   5.391  16.732  0.00  0.00    +0.000 A 
ATOM     17  S   UNL     1       3.846   4.118  17.270  0.00  0.00    +0.000 S 
ATOM     18  C   UNL     1       2.804   5.212  18.078  0.00  0.00    +0.000 A 
ENDBRANCH  11  14
ENDBRANCH   6   8
BRANCH   7  19
ATOM     19  C   UNL     1      -1.752  10.998  19.039  0.00  0.00    +0.000 A 
ATOM     20  C   UNL     1      -2.484   9.853  18.626  0.00  0.00    +0.000 A 
ATOM     21  C   UNL     1      -2.966   9.706  17.329  0.00  0.00    +0.000 A 
ATOM     22  C   UNL     1      -2.714  10.692  16.395  0.00  0.00    +0.000 A 
ATOM     23  C   UNL     1      -2.028  11.844  16.781  0.00  0.00    +0.000 A 
ATOM     24  C   UNL     1      -1.591  12.049  18.108  0.00  0.00    +0.000 A 
BRANCH  24  25
ATOM     25  O   UNL     1      -1.036  13.257  18.511  0.00  0.00    +0.000 OA
BRANCH  25  26
ATOM     26  C   UNL     1       0.306  13.468  17.997  0.00  0.00    +0.000 C 
BRANCH  26  27
ATOM     27  C   UNL     1       1.063  14.590  18.700  0.00  0.00    +0.000 C 
BRANCH  27  28
ATOM     28  O   UNL     1       2.445  14.584  18.368  0.00  0.00    +0.000 OA
ATOM     29  H   UNL     1       2.931  14.857  19.172  0.00  0.00    +0.000 HD
ENDBRANCH  27  28
ENDBRANCH  26  27
ENDBRANCH  25  26
ENDBRANCH  24  25
ENDBRANCH   7  19
BRANCH   1  30
ATOM     30  C   UNL     1      -2.442  12.167  22.212  0.00  0.00    +0.000 C 
ATOM     31  O   UNL     1      -2.215  11.470  23.206  0.00  0.00    +0.000 OA
BRANCH  30  32
ATOM     32  C   UNL     1      -3.744  12.936  22.110  0.00  0.00    +0.000 C 
BRANCH  32  34
ATOM     33  C   UNL     1      -4.971  12.497  19.920  0.00  0.00    +0.000 C 
ATOM     34  C   UNL     1      -4.052  13.443  20.694  0.00  0.00    +0.000 C 
ATOM     35  C   UNL     1      -4.670  14.840  20.765  0.00  0.00    +0.000 C 
ENDBRANCH  32  34
ENDBRANCH  30  32
ENDBRANCH   1  30
TORSDOF 10
ENDMDL
MODEL 9
REMARK VINA RESULT:      -7.0      5.115      9.646
REMARK  Name = 
REMARK  12 active torsions:
REMARK  status: ('A' for Active; 'I' for Inactive)
REMARK    1  A    between atoms: C_1  and  C_2
REMARK    2  A    between atoms: C_2  and  C_3
REMARK    3  A    between atoms: C_2  and  C_4
REMARK    4  A    between atoms: C_4  and  C_5
REMARK    5  A    between atoms: C_5  and  C_7
REMARK    6  A    between atoms: N_12  and  C_13
REMARK    7  A    between atoms: C_16  and  C_17
REMARK    8  A    between atoms: C_24  and  C_25
REMARK    9  A    between atoms: C_30  and  O_31
REMARK   10  A    between atoms: O_31  and  C_32
REMARK   11  A    between atoms: C_32  and  C_33
REMARK   12  A    between atoms: C_33  and  O_34
REMARK                            x       y       z     vdW  Elec       q    Type
REMARK                         _______ _______ _______ _____ _____    ______ ____
ROOT
ATOM      1  C   UNL     1      -1.381  12.416  21.146  0.00  0.00    +0.000 C 
ATOM      2  C   UNL     1      -0.038  12.894  21.566  0.00  0.00    +0.000 C 
ATOM      3  O   UNL     1       0.217  13.913  22.185  0.00  0.00    +0.000 OA
ATOM      4  C   UNL     1       1.032  11.967  21.045  0.00  0.00    +0.000 C 
ATOM      5  O   UNL     1       2.216  12.145  21.251  0.00  0.00    +0.000 OA
ATOM      6  N   UNL     1       0.370  10.944  20.398  0.00  0.00    +0.000 N 
ATOM      7  C   UNL     1      -1.095  11.054  20.453  0.00  0.00    +0.000 C 
ENDROOT
BRANCH   6   8
ATOM      8  C   UNL     1       1.062   9.860  19.825  0.00  0.00    +0.000 A 
ATOM      9  C   UNL     1       1.509   9.911  18.507  0.00  0.00    +0.000 A 
ATOM     10  C   UNL     1       2.134   8.795  17.934  0.00  0.00    +0.000 A 
ATOM     11  C   UNL     1       2.378   7.635  18.685  0.00  0.00    +0.000 A 
ATOM     12  C   UNL     1       1.955   7.606  20.019  0.00  0.00    +0.000 A 
ATOM     13  C   UNL     1       1.277   8.696  20.573  0.00  0.00    +0.000 A 
BRANCH  11  14
ATOM     14  C   UNL     1       3.068   6.494  18.078  0.00  0.00    +0.000 A 
ATOM     15  C   UNL     1       4.263   6.529  17.283  0.00  0.00    +0.000 A 
ATOM     16  C   UNL     1       4.662   5.281  16.858  0.00  0.00    +0.000 A 
ATOM     17  S   UNL     1       3.608   4.053  17.403  0.00  0.00    +0.000 S 
ATOM     18  C   UNL     1       2.613   5.193  18.205  0.00  0.00    +0.000 A 
ENDBRANCH  11  14
ENDBRANCH   6   8
BRANCH   7  19
ATOM     19  C   UNL     1      -1.734  11.059  19.056  0.00  0.00    +0.000 A 
ATOM     20  C   UNL     1      -2.479   9.909  18.683  0.00  0.00    +0.000 A 
ATOM     21  C   UNL     1      -2.963   9.724  17.391  0.00  0.00    +0.000 A 
ATOM     22  C   UNL     1      -2.699  10.674  16.425  0.00  0.00    +0.000 A 
ATOM     23  C   UNL     1      -2.001  11.830  16.771  0.00  0.00    +0.000 A 
ATOM     24  C   UNL     1      -1.560  12.075  18.091  0.00  0.00    +0.000 A 
BRANCH  24  25
ATOM     25  O   UNL     1      -0.991  13.290  18.453  0.00  0.00    +0.000 OA
BRANCH  25  26
ATOM     26  C   UNL     1       0.355  13.466  17.935  0.00  0.00    +0.000 C 
BRANCH  26  27
ATOM     27  C   UNL     1       1.150  14.553  18.651  0.00  0.00    +0.000 C 
BRANCH  27  28
ATOM     28  O   UNL     1       2.502  14.169  18.859  0.00  0.00    +0.000 OA
ATOM     29  H   UNL     1       2.809  13.749  18.030  0.00  0.00    +0.000 HD
ENDBRANCH  27  28
ENDBRANCH  26  27
ENDBRANCH  25  26
ENDBRANCH  24  25
ENDBRANCH   7  19
BRANCH   1  30
ATOM     30  C   UNL     1      -2.439  12.292  22.202  0.00  0.00    +0.000 C 
ATOM     31  O   UNL     1      -2.258  11.517  23.145  0.00  0.00    +0.000 OA
BRANCH  30  32
ATOM     32  C   UNL     1      -3.679  13.163  22.167  0.00  0.00    +0.000 C 
BRANCH  32  34
ATOM     33  C   UNL     1      -6.214  12.950  22.014  0.00  0.00    +0.000 C 
ATOM     34  C   UNL     1      -4.865  12.520  21.435  0.00  0.00    +0.000 C 
ATOM     35  C   UNL     1      -4.799  12.851  19.944  0.00  0.00    +0.000 C 
ENDBRANCH  32  34
ENDBRANCH  30  32
ENDBRANCH   1  30
TORSDOF 10
ENDMDL
