MODEL 1
REMARK VINA RESULT:      -7.7      0.000      0.000
REMARK  Name = 
REMARK  11 active torsions:
REMARK  status: ('A' for Active; 'I' for Inactive)
REMARK    1  A    between atoms: C_1  and  O_2
REMARK    2  A    between atoms: O_2  and  C_3
REMARK    3  A    between atoms: C_3  and  C_5
REMARK    4  A    between atoms: C_5  and  S_6
REMARK    5  A    between atoms: S_6  and  C_7
REMARK    6  A    between atoms: C_10  and  C_11
REMARK    7  A    between atoms: C_11  and  C_12
REMARK    8  A    between atoms: C_13  and  N_14
REMARK    9  A    between atoms: C_15  and  C_17
REMARK   10  A    between atoms: N_26  and  N_27
REMARK   11  A    between atoms: C_28  and  C_29
REMARK                            x       y       z     vdW  Elec       q    Type
REMARK                         _______ _______ _______ _____ _____    ______ ____
ROOT
ATOM      1  C   UNL     1       0.959   9.946  18.615  0.00  0.00    +0.000 A 
ATOM      2  N   UNL     1       1.605   9.581  17.528  0.00  0.00    +0.000 NA
ATOM      3  N   UNL     1       2.283   8.423  17.800  0.00  0.00    +0.000 NA
ATOM      4  C   UNL     1       2.095   8.125  19.075  0.00  0.00    +0.000 A 
ATOM      5  N   UNL     1       1.276   9.085  19.642  0.00  0.00    +0.000 N 
ENDROOT
BRANCH   5   6
ATOM      6  N   UNL     1       1.244   9.321  20.986  0.00  0.00    +0.000 N 
ATOM      7  C   UNL     1       0.194   8.938  21.778  0.00  0.00    +0.000 C 
ATOM      8  C   UNL     1       0.365   9.309  23.233  0.00  0.00    +0.000 C 
ATOM      9  O   UNL     1      -0.788   8.318  21.389  0.00  0.00    +0.000 OA
ATOM     10  H   UNL     1       2.012   9.901  21.314  0.00  0.00    +0.000 HD
ENDBRANCH   5   6
BRANCH   1  11
ATOM     11  S   UNL     1      -0.204  11.230  18.629  0.00  0.00    +0.000 S 
BRANCH  11  12
ATOM     12  C   UNL     1      -1.690  10.197  18.354  0.00  0.00    +0.000 C 
BRANCH  12  13
ATOM     13  C   UNL     1      -2.774  10.901  17.571  0.00  0.00    +0.000 C 
ATOM     14  O   UNL     1      -3.856  11.279  18.001  0.00  0.00    +0.000 OA
BRANCH  13  16
ATOM     15  C   UNL     1      -3.189  10.698  15.257  0.00  0.00    +0.000 C 
ATOM     16  O   UNL     1      -2.320  11.141  16.301  0.00  0.00    +0.000 OA
ENDBRANCH  13  16
ENDBRANCH  12  13
ENDBRANCH  11  12
ENDBRANCH   1  11
BRANCH   4  17
ATOM     17  C   UNL     1       2.637   6.926  19.774  0.00  0.00    +0.000 C 
BRANCH  17  18
ATOM     18  C   UNL     1       3.123   5.766  18.919  0.00  0.00    +0.000 A 
ATOM     19  C   UNL     1       4.150   5.730  17.991  0.00  0.00    +0.000 A 
ATOM     20  S   UNL     1       4.292   4.263  17.155  0.00  0.00    +0.000 S 
ATOM     21  C   UNL     1       3.057   3.563  18.074  0.00  0.00    +0.000 A 
ATOM     22  C   UNL     1       2.418   4.478  18.881  0.00  0.00    +0.000 A 
ATOM     23  C   UNL     1       1.144   4.136  19.591  0.00  0.00    +0.000 C 
ATOM     24  C   UNL     1       0.643   2.697  19.389  0.00  0.00    +0.000 C 
ATOM     25  C   UNL     1       1.597   1.649  18.804  0.00  0.00    +0.000 C 
ATOM     26  C   UNL     1       2.727   2.129  17.898  0.00  0.00    +0.000 C 
BRANCH  19  27
ATOM     27  N   UNL     1       5.072   6.635  17.527  0.00  0.00    +0.000 N 
ATOM     28  C   UNL     1       6.397   6.549  17.928  0.00  0.00    +0.000 C 
ATOM     29  O   UNL     1       6.828   5.821  18.833  0.00  0.00    +0.000 OA
ATOM     30  H   UNL     1       4.979   6.831  16.534  0.00  0.00    +0.000 HD
BRANCH  28  31
ATOM     31  C   UNL     1       7.299   7.461  17.124  0.00  0.00    +0.000 C 
ATOM     32 CL   UNL     1       8.300   8.427  18.255  0.00  0.00    +0.000 Cl
ENDBRANCH  28  31
ENDBRANCH  19  27
ENDBRANCH  17  18
ENDBRANCH   4  17
TORSDOF 9
ENDMDL
MODEL 2
REMARK VINA RESULT:      -7.3      1.939      2.428
REMARK  Name = 
REMARK  11 active torsions:
REMARK  status: ('A' for Active; 'I' for Inactive)
REMARK    1  A    between atoms: C_1  and  O_2
REMARK    2  A    between atoms: O_2  and  C_3
REMARK    3  A    between atoms: C_3  and  C_5
REMARK    4  A    between atoms: C_5  and  S_6
REMARK    5  A    between atoms: S_6  and  C_7
REMARK    6  A    between atoms: C_10  and  C_11
REMARK    7  A    between atoms: C_11  and  C_12
REMARK    8  A    between atoms: C_13  and  N_14
REMARK    9  A    between atoms: C_15  and  C_17
REMARK   10  A    between atoms: N_26  and  N_27
REMARK   11  A    between atoms: C_28  and  C_29
REMARK                            x       y       z     vdW  Elec       q    Type
REMARK                         _______ _______ _______ _____ _____    ______ ____
ROOT
ATOM      1  C   UNL     1       0.907   9.487  18.567  0.00  0.00    +0.000 A 
ATOM      2  N   UNL     1       1.577   9.088  17.507  0.00  0.00    +0.000 NA
ATOM      3  N   UNL     1       2.377   8.039  17.874  0.00  0.00    +0.000 NA
ATOM      4  C   UNL     1       2.234   7.848  19.175  0.00  0.00    +0.000 A 
ATOM      5  N   UNL     1       1.324   8.767  19.664  0.00  0.00    +0.000 N 
ENDROOT
BRANCH   5   6
ATOM      6  N   UNL     1       1.279   9.128  20.981  0.00  0.00    +0.000 N 
ATOM      7  C   UNL     1       0.225   8.813  21.797  0.00  0.00    +0.000 C 
ATOM      8  C   UNL     1       0.383   9.320  23.213  0.00  0.00    +0.000 C 
ATOM      9  O   UNL     1      -0.750   8.153  21.460  0.00  0.00    +0.000 OA
ATOM     10  H   UNL     1       2.042   9.741  21.258  0.00  0.00    +0.000 HD
ENDBRANCH   5   6
BRANCH   1  11
ATOM     11  S   UNL     1      -0.386  10.637  18.481  0.00  0.00    +0.000 S 
BRANCH  11  12
ATOM     12  C   UNL     1       0.598  12.122  18.901  0.00  0.00    +0.000 C 
BRANCH  12  13
ATOM     13  C   UNL     1       0.471  12.538  20.349  0.00  0.00    +0.000 C 
ATOM     14  O   UNL     1      -0.554  12.886  20.921  0.00  0.00    +0.000 OA
BRANCH  13  16
ATOM     15  C   UNL     1       2.519  13.537  20.964  0.00  0.00    +0.000 C 
ATOM     16  O   UNL     1       1.684  12.377  20.965  0.00  0.00    +0.000 OA
ENDBRANCH  13  16
ENDBRANCH  12  13
ENDBRANCH  11  12
ENDBRANCH   1  11
BRANCH   4  17
ATOM     17  C   UNL     1       2.908   6.786  19.975  0.00  0.00    +0.000 C 
BRANCH  17  18
ATOM     18  C   UNL     1       3.422   5.561  19.235  0.00  0.00    +0.000 A 
ATOM     19  C   UNL     1       4.605   5.390  18.536  0.00  0.00    +0.000 A 
ATOM     20  S   UNL     1       4.747   3.899  17.744  0.00  0.00    +0.000 S 
ATOM     21  C   UNL     1       3.279   3.361  18.390  0.00  0.00    +0.000 A 
ATOM     22  C   UNL     1       2.598   4.359  19.051  0.00  0.00    +0.000 A 
ATOM     23  C   UNL     1       1.175   4.177  19.484  0.00  0.00    +0.000 C 
ATOM     24  C   UNL     1       0.565   2.799  19.181  0.00  0.00    +0.000 C 
ATOM     25  C   UNL     1       1.493   1.639  18.802  0.00  0.00    +0.000 C 
ATOM     26  C   UNL     1       2.831   1.969  18.147  0.00  0.00    +0.000 C 
BRANCH  19  27
ATOM     27  N   UNL     1       5.700   6.176  18.273  0.00  0.00    +0.000 N 
ATOM     28  C   UNL     1       6.879   5.988  18.977  0.00  0.00    +0.000 C 
ATOM     29  O   UNL     1       7.010   5.276  19.983  0.00  0.00    +0.000 OA
ATOM     30  H   UNL     1       5.860   6.322  17.279  0.00  0.00    +0.000 HD
BRANCH  28  31
ATOM     31  C   UNL     1       8.033   6.764  18.378  0.00  0.00    +0.000 C 
ATOM     32 CL   UNL     1       7.377   8.138  17.432  0.00  0.00    +0.000 Cl
ENDBRANCH  28  31
ENDBRANCH  19  27
ENDBRANCH  17  18
ENDBRANCH   4  17
TORSDOF 9
ENDMDL
MODEL 3
REMARK VINA RESULT:      -7.2      3.727      7.956
REMARK  Name = 
REMARK  11 active torsions:
REMARK  status: ('A' for Active; 'I' for Inactive)
REMARK    1  A    between atoms: C_1  and  O_2
REMARK    2  A    between atoms: O_2  and  C_3
REMARK    3  A    between atoms: C_3  and  C_5
REMARK    4  A    between atoms: C_5  and  S_6
REMARK    5  A    between atoms: S_6  and  C_7
REMARK    6  A    between atoms: C_10  and  C_11
REMARK    7  A    between atoms: C_11  and  C_12
REMARK    8  A    between atoms: C_13  and  N_14
REMARK    9  A    between atoms: C_15  and  C_17
REMARK   10  A    between atoms: N_26  and  N_27
REMARK   11  A    between atoms: C_28  and  C_29
REMARK                            x       y       z     vdW  Elec       q    Type
REMARK                         _______ _______ _______ _____ _____    ______ ____
ROOT
ATOM      1  C   UNL     1       5.171   4.784  16.680  0.00  0.00    +0.000 A 
ATOM      2  N   UNL     1       4.091   4.200  17.154  0.00  0.00    +0.000 NA
ATOM      3  N   UNL     1       3.202   5.174  17.521  0.00  0.00    +0.000 NA
ATOM      4  C   UNL     1       3.774   6.350  17.325  0.00  0.00    +0.000 A 
ATOM      5  N   UNL     1       5.043   6.149  16.813  0.00  0.00    +0.000 N 
ENDROOT
BRANCH   5   6
ATOM      6  N   UNL     1       6.031   7.087  16.909  0.00  0.00    +0.000 N 
ATOM      7  C   UNL     1       7.024   7.019  17.849  0.00  0.00    +0.000 C 
ATOM      8  C   UNL     1       8.005   8.168  17.778  0.00  0.00    +0.000 C 
ATOM      9  O   UNL     1       7.162   6.112  18.660  0.00  0.00    +0.000 OA
ATOM     10  H   UNL     1       5.890   7.886  16.295  0.00  0.00    +0.000 HD
ENDBRANCH   5   6
BRANCH   1  11
ATOM     11  S   UNL     1       6.442   3.910  15.893  0.00  0.00    +0.000 S 
BRANCH  11  12
ATOM     12  C   UNL     1       5.996   4.352  14.174  0.00  0.00    +0.000 C 
BRANCH  12  13
ATOM     13  C   UNL     1       7.163   4.864  13.363  0.00  0.00    +0.000 C 
ATOM     14  O   UNL     1       8.037   5.631  13.745  0.00  0.00    +0.000 OA
BRANCH  13  16
ATOM     15  C   UNL     1       6.352   3.074  12.055  0.00  0.00    +0.000 C 
ATOM     16  O   UNL     1       7.151   4.256  12.134  0.00  0.00    +0.000 OA
ENDBRANCH  13  16
ENDBRANCH  12  13
ENDBRANCH  11  12
ENDBRANCH   1  11
BRANCH   4  17
ATOM     17  C   UNL     1       3.139   7.675  17.571  0.00  0.00    +0.000 C 
BRANCH  17  18
ATOM     18  C   UNL     1       2.383   7.867  18.877  0.00  0.00    +0.000 A 
ATOM     19  C   UNL     1       2.316   7.035  19.982  0.00  0.00    +0.000 A 
ATOM     20  S   UNL     1       1.256   7.560  21.195  0.00  0.00    +0.000 S 
ATOM     21  C   UNL     1       0.918   8.986  20.352  0.00  0.00    +0.000 A 
ATOM     22  C   UNL     1       1.458   8.989  19.084  0.00  0.00    +0.000 A 
ATOM     23  C   UNL     1       1.081  10.033  18.078  0.00  0.00    +0.000 C 
ATOM     24  C   UNL     1       0.102  11.108  18.579  0.00  0.00    +0.000 C 
ATOM     25  C   UNL     1      -0.141  11.252  20.086  0.00  0.00    +0.000 C 
ATOM     26  C   UNL     1       0.062  10.025  20.970  0.00  0.00    +0.000 C 
BRANCH  19  27
ATOM     27  N   UNL     1       2.869   5.825  20.322  0.00  0.00    +0.000 N 
ATOM     28  C   UNL     1       2.080   4.686  20.372  0.00  0.00    +0.000 C 
ATOM     29  O   UNL     1       0.843   4.666  20.310  0.00  0.00    +0.000 OA
ATOM     30  H   UNL     1       3.769   5.655  19.879  0.00  0.00    +0.000 HD
BRANCH  28  31
ATOM     31  C   UNL     1       2.905   3.424  20.513  0.00  0.00    +0.000 C 
ATOM     32 CL   UNL     1       2.226   2.437  21.847  0.00  0.00    +0.000 Cl
ENDBRANCH  28  31
ENDBRANCH  19  27
ENDBRANCH  17  18
ENDBRANCH   4  17
TORSDOF 9
ENDMDL
MODEL 4
REMARK VINA RESULT:      -7.0      1.849      2.171
REMARK  Name = 
REMARK  11 active torsions:
REMARK  status: ('A' for Active; 'I' for Inactive)
REMARK    1  A    between atoms: C_1  and  O_2
REMARK    2  A    between atoms: O_2  and  C_3
REMARK    3  A    between atoms: C_3  and  C_5
REMARK    4  A    between atoms: C_5  and  S_6
REMARK    5  A    between atoms: S_6  and  C_7
REMARK    6  A    between atoms: C_10  and  C_11
REMARK    7  A    between atoms: C_11  and  C_12
REMARK    8  A    between atoms: C_13  and  N_14
REMARK    9  A    between atoms: C_15  and  C_17
REMARK   10  A    between atoms: N_26  and  N_27
REMARK   11  A    between atoms: C_28  and  C_29
REMARK                            x       y       z     vdW  Elec       q    Type
REMARK                         _______ _______ _______ _____ _____    ______ ____
ROOT
ATOM      1  C   UNL     1       0.790   9.807  18.546  0.00  0.00    +0.000 A 
ATOM      2  N   UNL     1       1.801   9.817  17.703  0.00  0.00    +0.000 NA
ATOM      3  N   UNL     1       2.640   8.785  18.026  0.00  0.00    +0.000 NA
ATOM      4  C   UNL     1       2.165   8.189  19.106  0.00  0.00    +0.000 A 
ATOM      5  N   UNL     1       0.997   8.825  19.489  0.00  0.00    +0.000 N 
ENDROOT
BRANCH   5   6
ATOM      6  N   UNL     1       0.507   8.755  20.761  0.00  0.00    +0.000 N 
ATOM      7  C   UNL     1       0.893   9.621  21.750  0.00  0.00    +0.000 C 
ATOM      8  C   UNL     1       0.230   9.355  23.082  0.00  0.00    +0.000 C 
ATOM      9  O   UNL     1       1.667  10.558  21.599  0.00  0.00    +0.000 OA
ATOM     10  H   UNL     1      -0.078   7.939  20.926  0.00  0.00    +0.000 HD
ENDBRANCH   5   6
BRANCH   1  11
ATOM     11  S   UNL     1      -0.612  10.803  18.342  0.00  0.00    +0.000 S 
BRANCH  11  12
ATOM     12  C   UNL     1      -0.052  12.204  19.378  0.00  0.00    +0.000 C 
BRANCH  12  13
ATOM     13  C   UNL     1       0.338  13.425  18.577  0.00  0.00    +0.000 C 
ATOM     14  O   UNL     1      -0.328  14.440  18.423  0.00  0.00    +0.000 OA
BRANCH  13  16
ATOM     15  C   UNL     1       2.545  14.262  18.536  0.00  0.00    +0.000 C 
ATOM     16  O   UNL     1       1.617  13.261  18.112  0.00  0.00    +0.000 OA
ENDBRANCH  13  16
ENDBRANCH  12  13
ENDBRANCH  11  12
ENDBRANCH   1  11
BRANCH   4  17
ATOM     17  C   UNL     1       2.762   6.999  19.774  0.00  0.00    +0.000 C 
BRANCH  17  18
ATOM     18  C   UNL     1       3.183   5.830  18.897  0.00  0.00    +0.000 A 
ATOM     19  C   UNL     1       4.188   5.763  17.948  0.00  0.00    +0.000 A 
ATOM     20  S   UNL     1       4.254   4.302  17.092  0.00  0.00    +0.000 S 
ATOM     21  C   UNL     1       3.011   3.641  18.028  0.00  0.00    +0.000 A 
ATOM     22  C   UNL     1       2.426   4.572  18.859  0.00  0.00    +0.000 A 
ATOM     23  C   UNL     1       1.153   4.274  19.591  0.00  0.00    +0.000 C 
ATOM     24  C   UNL     1       0.590   2.858  19.383  0.00  0.00    +0.000 C 
ATOM     25  C   UNL     1       1.489   1.780  18.767  0.00  0.00    +0.000 C 
ATOM     26  C   UNL     1       2.620   2.224  17.843  0.00  0.00    +0.000 C 
BRANCH  19  27
ATOM     27  N   UNL     1       5.138   6.636  17.475  0.00  0.00    +0.000 N 
ATOM     28  C   UNL     1       6.464   6.499  17.857  0.00  0.00    +0.000 C 
ATOM     29  O   UNL     1       6.879   5.751  18.753  0.00  0.00    +0.000 OA
ATOM     30  H   UNL     1       5.039   6.840  16.483  0.00  0.00    +0.000 HD
BRANCH  28  31
ATOM     31  C   UNL     1       7.388   7.381  17.045  0.00  0.00    +0.000 C 
ATOM     32 CL   UNL     1       8.134   8.593  18.134  0.00  0.00    +0.000 Cl
ENDBRANCH  28  31
ENDBRANCH  19  27
ENDBRANCH  17  18
ENDBRANCH   4  17
TORSDOF 9
ENDMDL
MODEL 5
REMARK VINA RESULT:      -6.8      1.989      2.068
REMARK  Name = 
REMARK  11 active torsions:
REMARK  status: ('A' for Active; 'I' for Inactive)
REMARK    1  A    between atoms: C_1  and  O_2
REMARK    2  A    between atoms: O_2  and  C_3
REMARK    3  A    between atoms: C_3  and  C_5
REMARK    4  A    between atoms: C_5  and  S_6
REMARK    5  A    between atoms: S_6  and  C_7
REMARK    6  A    between atoms: C_10  and  C_11
REMARK    7  A    between atoms: C_11  and  C_12
REMARK    8  A    between atoms: C_13  and  N_14
REMARK    9  A    between atoms: C_15  and  C_17
REMARK   10  A    between atoms: N_26  and  N_27
REMARK   11  A    between atoms: C_28  and  C_29
REMARK                            x       y       z     vdW  Elec       q    Type
REMARK                         _______ _______ _______ _____ _____    ______ ____
ROOT
ATOM      1  C   UNL     1       0.978   9.453  18.527  0.00  0.00    +0.000 A 
ATOM      2  N   UNL     1       1.657   9.035  17.480  0.00  0.00    +0.000 NA
ATOM      3  N   UNL     1       2.443   7.984  17.870  0.00  0.00    +0.000 NA
ATOM      4  C   UNL     1       2.283   7.809  19.171  0.00  0.00    +0.000 A 
ATOM      5  N   UNL     1       1.375   8.743  19.638  0.00  0.00    +0.000 N 
ENDROOT
BRANCH   5   6
ATOM      6  N   UNL     1       1.318   9.120  20.949  0.00  0.00    +0.000 N 
ATOM      7  C   UNL     1       0.247   8.834  21.754  0.00  0.00    +0.000 C 
ATOM      8  C   UNL     1       0.393   9.354  23.166  0.00  0.00    +0.000 C 
ATOM      9  O   UNL     1      -0.735   8.187  21.411  0.00  0.00    +0.000 OA
ATOM     10  H   UNL     1       2.088   9.722  21.231  0.00  0.00    +0.000 HD
ENDBRANCH   5   6
BRANCH   1  11
ATOM     11  S   UNL     1      -0.303  10.613  18.412  0.00  0.00    +0.000 S 
BRANCH  11  12
ATOM     12  C   UNL     1       0.552  11.986  19.268  0.00  0.00    +0.000 C 
BRANCH  12  13
ATOM     13  C   UNL     1      -0.294  12.654  20.327  0.00  0.00    +0.000 C 
ATOM     14  O   UNL     1      -0.852  12.106  21.269  0.00  0.00    +0.000 OA
BRANCH  13  16
ATOM     15  C   UNL     1      -0.034  14.413  18.774  0.00  0.00    +0.000 C 
ATOM     16  O   UNL     1      -0.271  14.009  20.125  0.00  0.00    +0.000 OA
ENDBRANCH  13  16
ENDBRANCH  12  13
ENDBRANCH  11  12
ENDBRANCH   1  11
BRANCH   4  17
ATOM     17  C   UNL     1       2.937   6.752  19.992  0.00  0.00    +0.000 C 
BRANCH  17  18
ATOM     18  C   UNL     1       3.451   5.514  19.273  0.00  0.00    +0.000 A 
ATOM     19  C   UNL     1       4.657   5.315  18.622  0.00  0.00    +0.000 A 
ATOM     20  S   UNL     1       4.795   3.820  17.836  0.00  0.00    +0.000 S 
ATOM     21  C   UNL     1       3.291   3.317  18.422  0.00  0.00    +0.000 A 
ATOM     22  C   UNL     1       2.608   4.331  19.056  0.00  0.00    +0.000 A 
ATOM     23  C   UNL     1       1.165   4.183  19.433  0.00  0.00    +0.000 C 
ATOM     24  C   UNL     1       0.535   2.819  19.105  0.00  0.00    +0.000 C 
ATOM     25  C   UNL     1       1.450   1.637  18.763  0.00  0.00    +0.000 C 
ATOM     26  C   UNL     1       2.820   1.936  18.162  0.00  0.00    +0.000 C 
BRANCH  19  27
ATOM     27  N   UNL     1       5.780   6.075  18.402  0.00  0.00    +0.000 N 
ATOM     28  C   UNL     1       5.891   6.837  17.249  0.00  0.00    +0.000 C 
ATOM     29  O   UNL     1       5.136   6.772  16.268  0.00  0.00    +0.000 OA
ATOM     30  H   UNL     1       6.096   6.575  19.229  0.00  0.00    +0.000 HD
BRANCH  28  31
ATOM     31  C   UNL     1       7.066   7.790  17.304  0.00  0.00    +0.000 C 
ATOM     32 CL   UNL     1       8.209   7.227  18.565  0.00  0.00    +0.000 Cl
ENDBRANCH  28  31
ENDBRANCH  19  27
ENDBRANCH  17  18
ENDBRANCH   4  17
TORSDOF 9
ENDMDL
MODEL 6
REMARK VINA RESULT:      -6.8      3.742      7.960
REMARK  Name = 
REMARK  11 active torsions:
REMARK  status: ('A' for Active; 'I' for Inactive)
REMARK    1  A    between atoms: C_1  and  O_2
REMARK    2  A    between atoms: O_2  and  C_3
REMARK    3  A    between atoms: C_3  and  C_5
REMARK    4  A    between atoms: C_5  and  S_6
REMARK    5  A    between atoms: S_6  and  C_7
REMARK    6  A    between atoms: C_10  and  C_11
REMARK    7  A    between atoms: C_11  and  C_12
REMARK    8  A    between atoms: C_13  and  N_14
REMARK    9  A    between atoms: C_15  and  C_17
REMARK   10  A    between atoms: N_26  and  N_27
REMARK   11  A    between atoms: C_28  and  C_29
REMARK                            x       y       z     vdW  Elec       q    Type
REMARK                         _______ _______ _______ _____ _____    ______ ____
ROOT
ATOM      1  C   UNL     1       5.301   4.756  16.643  0.00  0.00    +0.000 A 
ATOM      2  N   UNL     1       4.240   4.132  17.110  0.00  0.00    +0.000 NA
ATOM      3  N   UNL     1       3.312   5.072  17.469  0.00  0.00    +0.000 NA
ATOM      4  C   UNL     1       3.840   6.269  17.274  0.00  0.00    +0.000 A 
ATOM      5  N   UNL     1       5.120   6.115  16.771  0.00  0.00    +0.000 N 
ENDROOT
BRANCH   5   6
ATOM      6  N   UNL     1       6.071   7.090  16.872  0.00  0.00    +0.000 N 
ATOM      7  C   UNL     1       7.051   7.070  17.828  0.00  0.00    +0.000 C 
ATOM      8  C   UNL     1       7.989   8.253  17.760  0.00  0.00    +0.000 C 
ATOM      9  O   UNL     1       7.209   6.177  18.652  0.00  0.00    +0.000 OA
ATOM     10  H   UNL     1       5.911   7.877  16.247  0.00  0.00    +0.000 HD
ENDBRANCH   5   6
BRANCH   1  11
ATOM     11  S   UNL     1       6.610   3.929  15.866  0.00  0.00    +0.000 S 
BRANCH  11  12
ATOM     12  C   UNL     1       5.884   3.874  14.187  0.00  0.00    +0.000 C 
BRANCH  12  13
ATOM     13  C   UNL     1       6.840   4.320  13.105  0.00  0.00    +0.000 C 
ATOM     14  O   UNL     1       6.908   3.880  11.964  0.00  0.00    +0.000 OA
BRANCH  13  16
ATOM     15  C   UNL     1       8.521   5.911  12.639  0.00  0.00    +0.000 C 
ATOM     16  O   UNL     1       7.577   5.378  13.571  0.00  0.00    +0.000 OA
ENDBRANCH  13  16
ENDBRANCH  12  13
ENDBRANCH  11  12
ENDBRANCH   1  11
BRANCH   4  17
ATOM     17  C   UNL     1       3.154   7.569  17.512  0.00  0.00    +0.000 C 
BRANCH  17  18
ATOM     18  C   UNL     1       2.435   7.758  18.839  0.00  0.00    +0.000 A 
ATOM     19  C   UNL     1       2.396   6.922  19.942  0.00  0.00    +0.000 A 
ATOM     20  S   UNL     1       1.371   7.444  21.186  0.00  0.00    +0.000 S 
ATOM     21  C   UNL     1       1.014   8.875  20.358  0.00  0.00    +0.000 A 
ATOM     22  C   UNL     1       1.519   8.881  19.076  0.00  0.00    +0.000 A 
ATOM     23  C   UNL     1       1.117   9.931  18.085  0.00  0.00    +0.000 C 
ATOM     24  C   UNL     1       0.156  11.006  18.617  0.00  0.00    +0.000 C 
ATOM     25  C   UNL     1      -0.045  11.145  20.131  0.00  0.00    +0.000 C 
ATOM     26  C   UNL     1       0.178   9.914  21.004  0.00  0.00    +0.000 C 
BRANCH  19  27
ATOM     27  N   UNL     1       2.955   5.709  20.263  0.00  0.00    +0.000 N 
ATOM     28  C   UNL     1       2.151   4.591  20.424  0.00  0.00    +0.000 C 
ATOM     29  O   UNL     1       0.913   4.599  20.486  0.00  0.00    +0.000 OA
ATOM     30  H   UNL     1       3.802   5.506  19.738  0.00  0.00    +0.000 HD
BRANCH  28  31
ATOM     31  C   UNL     1       2.959   3.314  20.521  0.00  0.00    +0.000 C 
ATOM     32 CL   UNL     1       2.286   2.116  19.370  0.00  0.00    +0.000 Cl
ENDBRANCH  28  31
ENDBRANCH  19  27
ENDBRANCH  17  18
ENDBRANCH   4  17
TORSDOF 9
ENDMDL
MODEL 7
REMARK VINA RESULT:      -6.8      3.980      7.878
REMARK  Name = 
REMARK  11 active torsions:
REMARK  status: ('A' for Active; 'I' for Inactive)
REMARK    1  A    between atoms: C_1  and  O_2
REMARK    2  A    between atoms: O_2  and  C_3
REMARK    3  A    between atoms: C_3  and  C_5
REMARK    4  A    between atoms: C_5  and  S_6
REMARK    5  A    between atoms: S_6  and  C_7
REMARK    6  A    between atoms: C_10  and  C_11
REMARK    7  A    between atoms: C_11  and  C_12
REMARK    8  A    between atoms: C_13  and  N_14
REMARK    9  A    between atoms: C_15  and  C_17
REMARK   10  A    between atoms: N_26  and  N_27
REMARK   11  A    between atoms: C_28  and  C_29
REMARK                            x       y       z     vdW  Elec       q    Type
REMARK                         _______ _______ _______ _____ _____    ______ ____
ROOT
ATOM      1  C   UNL     1       5.831   5.129  16.025  0.00  0.00    +0.000 A 
ATOM      2  N   UNL     1       4.816   4.356  16.351  0.00  0.00    +0.000 NA
ATOM      3  N   UNL     1       3.848   5.138  16.923  0.00  0.00    +0.000 NA
ATOM      4  C   UNL     1       4.309   6.375  16.998  0.00  0.00    +0.000 A 
ATOM      5  N   UNL     1       5.582   6.411  16.460  0.00  0.00    +0.000 N 
ENDROOT
BRANCH   5   6
ATOM      6  N   UNL     1       6.483   7.390  16.768  0.00  0.00    +0.000 N 
ATOM      7  C   UNL     1       7.370   7.278  17.805  0.00  0.00    +0.000 C 
ATOM      8  C   UNL     1       8.266   8.484  17.970  0.00  0.00    +0.000 C 
ATOM      9  O   UNL     1       7.484   6.295  18.527  0.00  0.00    +0.000 OA
ATOM     10  H   UNL     1       6.352   8.244  16.230  0.00  0.00    +0.000 HD
ENDBRANCH   5   6
BRANCH   1  11
ATOM     11  S   UNL     1       7.163   4.573  15.067  0.00  0.00    +0.000 S 
BRANCH  11  12
ATOM     12  C   UNL     1       6.194   3.553  13.896  0.00  0.00    +0.000 C 
BRANCH  12  13
ATOM     13  C   UNL     1       6.498   3.853  12.446  0.00  0.00    +0.000 C 
ATOM     14  O   UNL     1       7.438   4.508  12.017  0.00  0.00    +0.000 OA
BRANCH  13  16
ATOM     15  C   UNL     1       5.822   1.785  11.529  0.00  0.00    +0.000 C 
ATOM     16  O   UNL     1       5.593   3.190  11.657  0.00  0.00    +0.000 OA
ENDBRANCH  13  16
ENDBRANCH  12  13
ENDBRANCH  11  12
ENDBRANCH   1  11
BRANCH   4  17
ATOM     17  C   UNL     1       3.561   7.548  17.533  0.00  0.00    +0.000 C 
BRANCH  17  18
ATOM     18  C   UNL     1       2.782   7.362  18.826  0.00  0.00    +0.000 A 
ATOM     19  C   UNL     1       2.807   6.306  19.721  0.00  0.00    +0.000 A 
ATOM     20  S   UNL     1       1.688   6.428  20.987  0.00  0.00    +0.000 S 
ATOM     21  C   UNL     1       1.190   7.958  20.465  0.00  0.00    +0.000 A 
ATOM     22  C   UNL     1       1.732   8.299  19.245  0.00  0.00    +0.000 A 
ATOM     23  C   UNL     1       1.240   9.490  18.479  0.00  0.00    +0.000 C 
ATOM     24  C   UNL     1       0.141  10.311  19.173  0.00  0.00    +0.000 C 
ATOM     25  C   UNL     1      -0.123  10.093  20.667  0.00  0.00    +0.000 C 
ATOM     26  C   UNL     1       0.216   8.733  21.269  0.00  0.00    +0.000 C 
BRANCH  19  27
ATOM     27  N   UNL     1       3.496   5.120  19.806  0.00  0.00    +0.000 N 
ATOM     28  C   UNL     1       2.825   3.913  19.684  0.00  0.00    +0.000 C 
ATOM     29  O   UNL     1       1.594   3.773  19.680  0.00  0.00    +0.000 OA
ATOM     30  H   UNL     1       4.376   5.129  19.296  0.00  0.00    +0.000 HD
BRANCH  28  31
ATOM     31  C   UNL     1       3.775   2.742  19.551  0.00  0.00    +0.000 C 
ATOM     32 CL   UNL     1       3.303   1.776  18.116  0.00  0.00    +0.000 Cl
ENDBRANCH  28  31
ENDBRANCH  19  27
ENDBRANCH  17  18
ENDBRANCH   4  17
TORSDOF 9
ENDMDL
MODEL 8
REMARK VINA RESULT:      -6.7      3.724      7.844
REMARK  Name = 
REMARK  11 active torsions:
REMARK  status: ('A' for Active; 'I' for Inactive)
REMARK    1  A    between atoms: C_1  and  O_2
REMARK    2  A    between atoms: O_2  and  C_3
REMARK    3  A    between atoms: C_3  and  C_5
REMARK    4  A    between atoms: C_5  and  S_6
REMARK    5  A    between atoms: S_6  and  C_7
REMARK    6  A    between atoms: C_10  and  C_11
REMARK    7  A    between atoms: C_11  and  C_12
REMARK    8  A    between atoms: C_13  and  N_14
REMARK    9  A    between atoms: C_15  and  C_17
REMARK   10  A    between atoms: N_26  and  N_27
REMARK   11  A    between atoms: C_28  and  C_29
REMARK                            x       y       z     vdW  Elec       q    Type
REMARK                         _______ _______ _______ _____ _____    ______ ____
ROOT
ATOM      1  C   UNL     1       5.678   5.828  17.248  0.00  0.00    +0.000 A 
ATOM      2  N   UNL     1       5.716   7.126  17.033  0.00  0.00    +0.000 NA
ATOM      3  N   UNL     1       4.471   7.639  17.284  0.00  0.00    +0.000 NA
ATOM      4  C   UNL     1       3.666   6.636  17.592  0.00  0.00    +0.000 A 
ATOM      5  N   UNL     1       4.389   5.456  17.556  0.00  0.00    +0.000 N 
ENDROOT
BRANCH   5   6
ATOM      6  N   UNL     1       3.796   4.237  17.392  0.00  0.00    +0.000 N 
ATOM      7  C   UNL     1       3.993   3.197  18.262  0.00  0.00    +0.000 C 
ATOM      8  C   UNL     1       3.247   1.939  17.881  0.00  0.00    +0.000 C 
ATOM      9  O   UNL     1       4.669   3.254  19.281  0.00  0.00    +0.000 OA
ATOM     10  H   UNL     1       3.294   4.146  16.512  0.00  0.00    +0.000 HD
ENDBRANCH   5   6
BRANCH   1  11
ATOM     11  S   UNL     1       7.101   4.839  17.270  0.00  0.00    +0.000 S 
BRANCH  11  12
ATOM     12  C   UNL     1       7.441   4.887  15.473  0.00  0.00    +0.000 C 
BRANCH  12  13
ATOM     13  C   UNL     1       6.502   4.025  14.660  0.00  0.00    +0.000 C 
ATOM     14  O   UNL     1       5.609   3.309  15.094  0.00  0.00    +0.000 OA
BRANCH  13  16
ATOM     15  C   UNL     1       6.044   3.364  12.441  0.00  0.00    +0.000 C 
ATOM     16  O   UNL     1       6.744   4.239  13.328  0.00  0.00    +0.000 OA
ENDBRANCH  13  16
ENDBRANCH  12  13
ENDBRANCH  11  12
ENDBRANCH   1  11
BRANCH   4  17
ATOM     17  C   UNL     1       2.228   6.760  17.962  0.00  0.00    +0.000 C 
BRANCH  17  18
ATOM     18  C   UNL     1       1.886   7.529  19.228  0.00  0.00    +0.000 A 
ATOM     19  C   UNL     1       1.952   7.118  20.549  0.00  0.00    +0.000 A 
ATOM     20  S   UNL     1       1.361   8.245  21.667  0.00  0.00    +0.000 S 
ATOM     21  C   UNL     1       1.090   9.386  20.450  0.00  0.00    +0.000 A 
ATOM     22  C   UNL     1       1.274   8.863  19.188  0.00  0.00    +0.000 A 
ATOM     23  C   UNL     1       0.852   9.616  17.963  0.00  0.00    +0.000 C 
ATOM     24  C   UNL     1       0.256  11.010  18.218  0.00  0.00    +0.000 C 
ATOM     25  C   UNL     1       0.444  11.661  19.594  0.00  0.00    +0.000 C 
ATOM     26  C   UNL     1       0.634  10.751  20.803  0.00  0.00    +0.000 C 
BRANCH  19  27
ATOM     27  N   UNL     1       2.338   5.967  21.190  0.00  0.00    +0.000 N 
ATOM     28  C   UNL     1       1.675   4.775  20.942  0.00  0.00    +0.000 C 
ATOM     29  O   UNL     1       0.615   4.660  20.310  0.00  0.00    +0.000 OA
ATOM     30  H   UNL     1       3.347   5.848  21.232  0.00  0.00    +0.000 HD
BRANCH  28  31
ATOM     31  C   UNL     1       2.396   3.584  21.538  0.00  0.00    +0.000 C 
ATOM     32 CL   UNL     1       1.208   2.271  21.818  0.00  0.00    +0.000 Cl
ENDBRANCH  28  31
ENDBRANCH  19  27
ENDBRANCH  17  18
ENDBRANCH   4  17
TORSDOF 9
ENDMDL
MODEL 9
REMARK VINA RESULT:      -6.7      3.550      8.300
REMARK  Name = 
REMARK  11 active torsions:
REMARK  status: ('A' for Active; 'I' for Inactive)
REMARK    1  A    between atoms: C_1  and  O_2
REMARK    2  A    between atoms: O_2  and  C_3
REMARK    3  A    between atoms: C_3  and  C_5
REMARK    4  A    between atoms: C_5  and  S_6
REMARK    5  A    between atoms: S_6  and  C_7
REMARK    6  A    between atoms: C_10  and  C_11
REMARK    7  A    between atoms: C_11  and  C_12
REMARK    8  A    between atoms: C_13  and  N_14
REMARK    9  A    between atoms: C_15  and  C_17
REMARK   10  A    between atoms: N_26  and  N_27
REMARK   11  A    between atoms: C_28  and  C_29
REMARK                            x       y       z     vdW  Elec       q    Type
REMARK                         _______ _______ _______ _____ _____    ______ ____
ROOT
ATOM      1  C   UNL     1       1.728   8.437  19.224  0.00  0.00    +0.000 A 
ATOM      2  N   UNL     1       1.973   8.831  17.992  0.00  0.00    +0.000 NA
ATOM      3  N   UNL     1       1.627  10.152  17.887  0.00  0.00    +0.000 NA
ATOM      4  C   UNL     1       1.113  10.536  19.043  0.00  0.00    +0.000 A 
ATOM      5  N   UNL     1       1.134   9.466  19.919  0.00  0.00    +0.000 N 
ENDROOT
BRANCH   5   6
ATOM      6  N   UNL     1       0.310   9.389  21.005  0.00  0.00    +0.000 N 
ATOM      7  C   UNL     1       0.779   9.418  22.292  0.00  0.00    +0.000 C 
ATOM      8  C   UNL     1      -0.309   9.310  23.336  0.00  0.00    +0.000 C 
ATOM      9  O   UNL     1       1.954   9.557  22.607  0.00  0.00    +0.000 OA
ATOM     10  H   UNL     1      -0.660   9.196  20.764  0.00  0.00    +0.000 HD
ENDBRANCH   5   6
BRANCH   1  11
ATOM     11  S   UNL     1       2.242   6.900  19.836  0.00  0.00    +0.000 S 
BRANCH  11  12
ATOM     12  C   UNL     1       2.881   6.226  18.259  0.00  0.00    +0.000 C 
BRANCH  12  13
ATOM     13  C   UNL     1       2.947   4.716  18.234  0.00  0.00    +0.000 C 
ATOM     14  O   UNL     1       2.451   3.977  17.393  0.00  0.00    +0.000 OA
BRANCH  13  16
ATOM     15  C   UNL     1       3.433   2.986  19.764  0.00  0.00    +0.000 C 
ATOM     16  O   UNL     1       3.742   4.290  19.266  0.00  0.00    +0.000 OA
ENDBRANCH  13  16
ENDBRANCH  12  13
ENDBRANCH  11  12
ENDBRANCH   1  11
BRANCH   4  17
ATOM     17  C   UNL     1       0.633  11.910  19.366  0.00  0.00    +0.000 C 
BRANCH  17  18
ATOM     18  C   UNL     1      -0.855  12.100  19.612  0.00  0.00    +0.000 A 
ATOM     19  C   UNL     1      -1.900  12.115  18.703  0.00  0.00    +0.000 A 
ATOM     20  S   UNL     1      -3.412  12.482  19.373  0.00  0.00    +0.000 S 
ATOM     21  C   UNL     1      -2.764  12.529  20.934  0.00  0.00    +0.000 A 
ATOM     22  C   UNL     1      -1.388  12.448  20.936  0.00  0.00    +0.000 A 
ATOM     23  C   UNL     1      -0.592  12.717  22.176  0.00  0.00    +0.000 C 
ATOM     24  C   UNL     1      -1.418  13.037  23.433  0.00  0.00    +0.000 C 
ATOM     25  C   UNL     1      -2.920  12.730  23.437  0.00  0.00    +0.000 C 
ATOM     26  C   UNL     1      -3.658  12.718  22.101  0.00  0.00    +0.000 C 
BRANCH  19  27
ATOM     27  N   UNL     1      -2.007  11.956  17.343  0.00  0.00    +0.000 N 
ATOM     28  C   UNL     1      -2.462  10.757  16.814  0.00  0.00    +0.000 C 
ATOM     29  O   UNL     1      -2.624   9.707  17.451  0.00  0.00    +0.000 OA
ATOM     30  H   UNL     1      -2.409  12.764  16.874  0.00  0.00    +0.000 HD
BRANCH  28  31
ATOM     31  C   UNL     1      -2.750  10.858  15.332  0.00  0.00    +0.000 C 
ATOM     32 CL   UNL     1      -3.481   9.318  14.779  0.00  0.00    +0.000 Cl
ENDBRANCH  28  31
ENDBRANCH  19  27
ENDBRANCH  17  18
ENDBRANCH   4  17
TORSDOF 9
ENDMDL
