MODEL 1
REMARK VINA RESULT:      -9.3      0.000      0.000
REMARK  Name = 
REMARK  7 active torsions:
REMARK  status: ('A' for Active; 'I' for Inactive)
REMARK    1  A    between atoms: S_2  and  N_4
REMARK    2  A    between atoms: S_2  and  C_28
REMARK    3  A    between atoms: N_4  and  C_5
REMARK    4  A    between atoms: C_5  and  C_6
REMARK    5  A    between atoms: C_6  and  N_7
REMARK    6  A    between atoms: C_12  and  C_13
REMARK    7  A    between atoms: C_14  and  C_15
REMARK                            x       y       z     vdW  Elec       q    Type
REMARK                         _______ _______ _______ _____ _____    ______ ____
ROOT
ATOM      1  N   UNL     1       1.559   7.670  21.283  0.00  0.00    +0.000 N 
ATOM      2  C   UNL     1       1.999   7.755  19.971  0.00  0.00    +0.000 A 
ATOM      3  N   UNL     1       1.685   8.815  19.224  0.00  0.00    +0.000 NA
ATOM      4  C   UNL     1       2.046   8.787  17.933  0.00  0.00    +0.000 A 
ATOM      5  C   UNL     1       2.695   7.729  17.354  0.00  0.00    +0.000 A 
ATOM      6  C   UNL     1       3.018   6.695  18.202  0.00  0.00    +0.000 A 
ATOM      7  N   UNL     1       2.691   6.705  19.509  0.00  0.00    +0.000 NA
ATOM      8  H   UNL     1       1.674   6.698  21.560  0.00  0.00    +0.000 HD
ENDROOT
BRANCH   6   9
ATOM      9  C   UNL     1       3.667   5.468  17.738  0.00  0.00    +0.000 A 
ATOM     10  C   UNL     1       3.579   4.130  18.157  0.00  0.00    +0.000 A 
ATOM     11  N   UNL     1       4.424   3.300  17.427  0.00  0.00    +0.000 NA
ATOM     12  C   UNL     1       4.989   4.115  16.586  0.00  0.00    +0.000 A 
ATOM     13  S   UNL     1       6.162   3.926  15.317  0.00  0.00    +0.000 S 
ATOM     14  C   UNL     1       6.065   5.667  15.019  0.00  0.00    +0.000 A 
ATOM     15  C   UNL     1       5.205   6.290  15.841  0.00  0.00    +0.000 A 
ATOM     16  N   UNL     1       4.600   5.412  16.720  0.00  0.00    +0.000 N 
BRANCH  10  17
ATOM     17  C   UNL     1       2.756   3.607  19.240  0.00  0.00    +0.000 A 
ATOM     18  C   UNL     1       1.358   3.562  19.147  0.00  0.00    +0.000 A 
ATOM     19  C   UNL     1       0.579   3.198  20.246  0.00  0.00    +0.000 A 
ATOM     20  C   UNL     1       1.190   2.816  21.435  0.00  0.00    +0.000 A 
ATOM     21  C   UNL     1       2.581   2.767  21.515  0.00  0.00    +0.000 A 
ATOM     22  C   UNL     1       3.362   3.158  20.421  0.00  0.00    +0.000 A 
ENDBRANCH  10  17
ENDBRANCH   6   9
BRANCH   1  23
ATOM     23  C   UNL     1       0.253   8.269  21.544  0.00  0.00    +0.000 C 
BRANCH  23  24
ATOM     24  C   UNL     1       0.357   9.483  22.482  0.00  0.00    +0.000 C 
BRANCH  24  25
ATOM     25  N   UNL     1       0.777  10.698  21.754  0.00  0.00    +0.000 NA
ATOM     26  H   UNL     1       1.771  10.926  21.761  0.00  0.00    +0.000 HD
BRANCH  25  28
ATOM     27  O   UNL     1      -0.942  11.904  23.165  0.00  0.00    +0.000 OA
ATOM     28  S   UNL     1      -0.184  12.077  21.949  0.00  0.00    +0.000 S 
ATOM     29  O   UNL     1       0.641  13.237  21.701  0.00  0.00    +0.000 OA
BRANCH  28  30
ATOM     30  C   UNL     1      -1.319  11.897  20.591  0.00  0.00    +0.000 A 
ATOM     31  C   UNL     1      -0.882  11.244  19.430  0.00  0.00    +0.000 A 
ATOM     32  C   UNL     1      -1.729  11.175  18.326  0.00  0.00    +0.000 A 
ATOM     33  C   UNL     1      -2.999  11.742  18.398  0.00  0.00    +0.000 A 
ATOM     34  F   UNL     1      -3.801  11.693  17.328  0.00  0.00    +0.000 F 
ATOM     35  C   UNL     1      -3.447  12.362  19.561  0.00  0.00    +0.000 A 
ATOM     36  C   UNL     1      -2.607  12.437  20.673  0.00  0.00    +0.000 A 
ENDBRANCH  28  30
ENDBRANCH  25  28
ENDBRANCH  24  25
ENDBRANCH  23  24
ENDBRANCH   1  23
TORSDOF 7
ENDMDL
MODEL 2
REMARK VINA RESULT:      -9.2      1.852      3.655
REMARK  Name = 
REMARK  7 active torsions:
REMARK  status: ('A' for Active; 'I' for Inactive)
REMARK    1  A    between atoms: S_2  and  N_4
REMARK    2  A    between atoms: S_2  and  C_28
REMARK    3  A    between atoms: N_4  and  C_5
REMARK    4  A    between atoms: C_5  and  C_6
REMARK    5  A    between atoms: C_6  and  N_7
REMARK    6  A    between atoms: C_12  and  C_13
REMARK    7  A    between atoms: C_14  and  C_15
REMARK                            x       y       z     vdW  Elec       q    Type
REMARK                         _______ _______ _______ _____ _____    ______ ____
ROOT
ATOM      1  N   UNL     1       1.076   8.234  21.530  0.00  0.00    +0.000 N 
ATOM      2  C   UNL     1       1.652   8.076  20.279  0.00  0.00    +0.000 A 
ATOM      3  N   UNL     1       1.508   9.020  19.348  0.00  0.00    +0.000 NA
ATOM      4  C   UNL     1       1.994   8.759  18.126  0.00  0.00    +0.000 A 
ATOM      5  C   UNL     1       2.604   7.579  17.792  0.00  0.00    +0.000 A 
ATOM      6  C   UNL     1       2.750   6.676  18.820  0.00  0.00    +0.000 A 
ATOM      7  N   UNL     1       2.294   6.919  20.065  0.00  0.00    +0.000 NA
ATOM      8  H   UNL     1       1.078   7.315  21.963  0.00  0.00    +0.000 HD
ENDROOT
BRANCH   6   9
ATOM      9  C   UNL     1       3.333   5.348  18.626  0.00  0.00    +0.000 A 
ATOM     10  C   UNL     1       4.645   4.914  18.368  0.00  0.00    +0.000 A 
ATOM     11  N   UNL     1       4.716   3.533  18.222  0.00  0.00    +0.000 NA
ATOM     12  C   UNL     1       3.487   3.150  18.402  0.00  0.00    +0.000 A 
ATOM     13  S   UNL     1       2.685   1.608  18.401  0.00  0.00    +0.000 S 
ATOM     14  C   UNL     1       1.159   2.442  18.723  0.00  0.00    +0.000 A 
ATOM     15  C   UNL     1       1.302   3.775  18.811  0.00  0.00    +0.000 A 
ATOM     16  N   UNL     1       2.614   4.168  18.633  0.00  0.00    +0.000 N 
BRANCH  10  17
ATOM     17  C   UNL     1       5.828   5.753  18.220  0.00  0.00    +0.000 A 
ATOM     18  C   UNL     1       6.945   5.603  19.053  0.00  0.00    +0.000 A 
ATOM     19  C   UNL     1       8.007   6.508  18.996  0.00  0.00    +0.000 A 
ATOM     20  C   UNL     1       7.992   7.539  18.064  0.00  0.00    +0.000 A 
ATOM     21  C   UNL     1       6.929   7.646  17.167  0.00  0.00    +0.000 A 
ATOM     22  C   UNL     1       5.853   6.756  17.242  0.00  0.00    +0.000 A 
ENDBRANCH  10  17
ENDBRANCH   6   9
BRANCH   1  23
ATOM     23  C   UNL     1      -0.192   8.958  21.546  0.00  0.00    +0.000 C 
BRANCH  23  24
ATOM     24  C   UNL     1      -0.418   9.688  22.880  0.00  0.00    +0.000 C 
BRANCH  24  25
ATOM     25  N   UNL     1      -0.005  11.105  22.799  0.00  0.00    +0.000 NA
ATOM     26  H   UNL     1       0.697  11.424  23.466  0.00  0.00    +0.000 HD
BRANCH  25  28
ATOM     27  O   UNL     1      -2.430  11.713  23.189  0.00  0.00    +0.000 OA
ATOM     28  S   UNL     1      -1.233  12.249  22.585  0.00  0.00    +0.000 S 
ATOM     29  O   UNL     1      -0.701  13.548  22.927  0.00  0.00    +0.000 OA
BRANCH  28  30
ATOM     30  C   UNL     1      -1.459  12.183  20.822  0.00  0.00    +0.000 A 
ATOM     31  C   UNL     1      -2.763  12.124  20.312  0.00  0.00    +0.000 A 
ATOM     32  C   UNL     1      -2.954  11.981  18.940  0.00  0.00    +0.000 A 
ATOM     33  C   UNL     1      -1.847  11.913  18.096  0.00  0.00    +0.000 A 
ATOM     34  F   UNL     1      -2.034  11.755  16.780  0.00  0.00    +0.000 F 
ATOM     35  C   UNL     1      -0.551  12.004  18.597  0.00  0.00    +0.000 A 
ATOM     36  C   UNL     1      -0.349  12.148  19.970  0.00  0.00    +0.000 A 
ENDBRANCH  28  30
ENDBRANCH  25  28
ENDBRANCH  24  25
ENDBRANCH  23  24
ENDBRANCH   1  23
TORSDOF 7
ENDMDL
MODEL 3
REMARK VINA RESULT:      -9.2      0.171      1.185
REMARK  Name = 
REMARK  7 active torsions:
REMARK  status: ('A' for Active; 'I' for Inactive)
REMARK    1  A    between atoms: S_2  and  N_4
REMARK    2  A    between atoms: S_2  and  C_28
REMARK    3  A    between atoms: N_4  and  C_5
REMARK    4  A    between atoms: C_5  and  C_6
REMARK    5  A    between atoms: C_6  and  N_7
REMARK    6  A    between atoms: C_12  and  C_13
REMARK    7  A    between atoms: C_14  and  C_15
REMARK                            x       y       z     vdW  Elec       q    Type
REMARK                         _______ _______ _______ _____ _____    ______ ____
ROOT
ATOM      1  N   UNL     1       1.483   7.825  21.322  0.00  0.00    +0.000 N 
ATOM      2  C   UNL     1       1.932   7.888  20.012  0.00  0.00    +0.000 A 
ATOM      3  N   UNL     1       1.621   8.934  19.244  0.00  0.00    +0.000 NA
ATOM      4  C   UNL     1       1.992   8.884  17.956  0.00  0.00    +0.000 A 
ATOM      5  C   UNL     1       2.648   7.818  17.400  0.00  0.00    +0.000 A 
ATOM      6  C   UNL     1       2.967   6.800  18.269  0.00  0.00    +0.000 A 
ATOM      7  N   UNL     1       2.630   6.832  19.574  0.00  0.00    +0.000 NA
ATOM      8  H   UNL     1       1.598   6.859  21.616  0.00  0.00    +0.000 HD
ENDROOT
BRANCH   6   9
ATOM      9  C   UNL     1       3.622   5.567  17.832  0.00  0.00    +0.000 A 
ATOM     10  C   UNL     1       3.551   4.239  18.288  0.00  0.00    +0.000 A 
ATOM     11  N   UNL     1       4.396   3.398  17.572  0.00  0.00    +0.000 NA
ATOM     12  C   UNL     1       4.945   4.194  16.704  0.00  0.00    +0.000 A 
ATOM     13  S   UNL     1       6.107   3.982  15.428  0.00  0.00    +0.000 S 
ATOM     14  C   UNL     1       5.992   5.713  15.084  0.00  0.00    +0.000 A 
ATOM     15  C   UNL     1       5.134   6.350  15.898  0.00  0.00    +0.000 A 
ATOM     16  N   UNL     1       4.546   5.491  16.806  0.00  0.00    +0.000 N 
BRANCH  10  17
ATOM     17  C   UNL     1       2.743   3.739  19.393  0.00  0.00    +0.000 A 
ATOM     18  C   UNL     1       3.319   3.354  20.611  0.00  0.00    +0.000 A 
ATOM     19  C   UNL     1       2.553   2.740  21.603  0.00  0.00    +0.000 A 
ATOM     20  C   UNL     1       1.188   2.558  21.413  0.00  0.00    +0.000 A 
ATOM     21  C   UNL     1       0.583   3.019  20.244  0.00  0.00    +0.000 A 
ATOM     22  C   UNL     1       1.357   3.610  19.239  0.00  0.00    +0.000 A 
ENDBRANCH  10  17
ENDBRANCH   6   9
BRANCH   1  23
ATOM     23  C   UNL     1       0.173   8.426  21.562  0.00  0.00    +0.000 C 
BRANCH  23  24
ATOM     24  C   UNL     1       0.260   9.622  22.523  0.00  0.00    +0.000 C 
BRANCH  24  25
ATOM     25  N   UNL     1       0.663  10.857  21.818  0.00  0.00    +0.000 NA
ATOM     26  H   UNL     1       1.648  11.117  21.860  0.00  0.00    +0.000 HD
BRANCH  25  28
ATOM     27  O   UNL     1      -1.188  11.963  23.143  0.00  0.00    +0.000 OA
ATOM     28  S   UNL     1      -0.349  12.202  21.992  0.00  0.00    +0.000 S 
ATOM     29  O   UNL     1       0.457  13.392  21.846  0.00  0.00    +0.000 OA
BRANCH  28  30
ATOM     30  C   UNL     1      -1.379  12.044  20.549  0.00  0.00    +0.000 A 
ATOM     31  C   UNL     1      -2.695  12.520  20.606  0.00  0.00    +0.000 A 
ATOM     32  C   UNL     1      -3.541  12.324  19.517  0.00  0.00    +0.000 A 
ATOM     33  C   UNL     1      -3.061  11.669  18.385  0.00  0.00    +0.000 A 
ATOM     34  F   UNL     1      -3.883  11.463  17.349  0.00  0.00    +0.000 F 
ATOM     35  C   UNL     1      -1.744  11.224  18.313  0.00  0.00    +0.000 A 
ATOM     36  C   UNL     1      -0.889  11.416  19.398  0.00  0.00    +0.000 A 
ENDBRANCH  28  30
ENDBRANCH  25  28
ENDBRANCH  24  25
ENDBRANCH  23  24
ENDBRANCH   1  23
TORSDOF 7
ENDMDL
MODEL 4
REMARK VINA RESULT:      -9.1      1.950      3.656
REMARK  Name = 
REMARK  7 active torsions:
REMARK  status: ('A' for Active; 'I' for Inactive)
REMARK    1  A    between atoms: S_2  and  N_4
REMARK    2  A    between atoms: S_2  and  C_28
REMARK    3  A    between atoms: N_4  and  C_5
REMARK    4  A    between atoms: C_5  and  C_6
REMARK    5  A    between atoms: C_6  and  N_7
REMARK    6  A    between atoms: C_12  and  C_13
REMARK    7  A    between atoms: C_14  and  C_15
REMARK                            x       y       z     vdW  Elec       q    Type
REMARK                         _______ _______ _______ _____ _____    ______ ____
ROOT
ATOM      1  N   UNL     1       1.075   8.319  21.374  0.00  0.00    +0.000 N 
ATOM      2  C   UNL     1       1.678   8.129  20.140  0.00  0.00    +0.000 A 
ATOM      3  N   UNL     1       1.560   9.053  19.185  0.00  0.00    +0.000 NA
ATOM      4  C   UNL     1       2.071   8.762  17.980  0.00  0.00    +0.000 A 
ATOM      5  C   UNL     1       2.682   7.572  17.687  0.00  0.00    +0.000 A 
ATOM      6  C   UNL     1       2.800   6.691  18.737  0.00  0.00    +0.000 A 
ATOM      7  N   UNL     1       2.318   6.965  19.966  0.00  0.00    +0.000 NA
ATOM      8  H   UNL     1       1.062   7.410  21.828  0.00  0.00    +0.000 HD
ENDROOT
BRANCH   6   9
ATOM      9  C   UNL     1       3.380   5.357  18.587  0.00  0.00    +0.000 A 
ATOM     10  C   UNL     1       4.696   4.910  18.377  0.00  0.00    +0.000 A 
ATOM     11  N   UNL     1       4.763   3.525  18.260  0.00  0.00    +0.000 NA
ATOM     12  C   UNL     1       3.526   3.154  18.410  0.00  0.00    +0.000 A 
ATOM     13  S   UNL     1       2.714   1.616  18.414  0.00  0.00    +0.000 S 
ATOM     14  C   UNL     1       1.185   2.466  18.674  0.00  0.00    +0.000 A 
ATOM     15  C   UNL     1       1.334   3.799  18.741  0.00  0.00    +0.000 A 
ATOM     16  N   UNL     1       2.654   4.181  18.595  0.00  0.00    +0.000 N 
BRANCH  10  17
ATOM     17  C   UNL     1       5.889   5.738  18.249  0.00  0.00    +0.000 A 
ATOM     18  C   UNL     1       6.985   5.588  19.108  0.00  0.00    +0.000 A 
ATOM     19  C   UNL     1       8.055   6.484  19.068  0.00  0.00    +0.000 A 
ATOM     20  C   UNL     1       8.069   7.507  18.126  0.00  0.00    +0.000 A 
ATOM     21  C   UNL     1       7.028   7.614  17.204  0.00  0.00    +0.000 A 
ATOM     22  C   UNL     1       5.943   6.732  17.263  0.00  0.00    +0.000 A 
ENDBRANCH  10  17
ENDBRANCH   6   9
BRANCH   1  23
ATOM     23  C   UNL     1      -0.189   9.049  21.345  0.00  0.00    +0.000 C 
BRANCH  23  24
ATOM     24  C   UNL     1      -0.126  10.338  22.180  0.00  0.00    +0.000 C 
BRANCH  24  25
ATOM     25  N   UNL     1      -1.171  11.300  21.773  0.00  0.00    +0.000 NA
ATOM     26  H   UNL     1      -2.127  10.952  21.709  0.00  0.00    +0.000 HD
BRANCH  25  28
ATOM     27  O   UNL     1      -1.316  13.644  20.833  0.00  0.00    +0.000 OA
ATOM     28  S   UNL     1      -0.795  12.341  20.494  0.00  0.00    +0.000 S 
ATOM     29  O   UNL     1       0.587  12.124  20.129  0.00  0.00    +0.000 OA
BRANCH  28  30
ATOM     30  C   UNL     1      -1.825  11.682  19.202  0.00  0.00    +0.000 A 
ATOM     31  C   UNL     1      -1.237  10.873  18.220  0.00  0.00    +0.000 A 
ATOM     32  C   UNL     1      -2.011  10.423  17.153  0.00  0.00    +0.000 A 
ATOM     33  C   UNL     1      -3.358  10.772  17.086  0.00  0.00    +0.000 A 
ATOM     34  F   UNL     1      -4.093  10.356  16.048  0.00  0.00    +0.000 F 
ATOM     35  C   UNL     1      -3.952  11.549  18.078  0.00  0.00    +0.000 A 
ATOM     36  C   UNL     1      -3.185  12.004  19.151  0.00  0.00    +0.000 A 
ENDBRANCH  28  30
ENDBRANCH  25  28
ENDBRANCH  24  25
ENDBRANCH  23  24
ENDBRANCH   1  23
TORSDOF 7
ENDMDL
MODEL 5
REMARK VINA RESULT:      -9.1      2.910      4.270
REMARK  Name = 
REMARK  7 active torsions:
REMARK  status: ('A' for Active; 'I' for Inactive)
REMARK    1  A    between atoms: S_2  and  N_4
REMARK    2  A    between atoms: S_2  and  C_28
REMARK    3  A    between atoms: N_4  and  C_5
REMARK    4  A    between atoms: C_5  and  C_6
REMARK    5  A    between atoms: C_6  and  N_7
REMARK    6  A    between atoms: C_12  and  C_13
REMARK    7  A    between atoms: C_14  and  C_15
REMARK                            x       y       z     vdW  Elec       q    Type
REMARK                         _______ _______ _______ _____ _____    ______ ____
ROOT
ATOM      1  N   UNL     1       1.059   8.436  21.555  0.00  0.00    +0.000 N 
ATOM      2  C   UNL     1       1.576   8.223  20.286  0.00  0.00    +0.000 A 
ATOM      3  N   UNL     1       1.381   9.122  19.321  0.00  0.00    +0.000 NA
ATOM      4  C   UNL     1       1.811   8.807  18.090  0.00  0.00    +0.000 A 
ATOM      5  C   UNL     1       2.413   7.616  17.782  0.00  0.00    +0.000 A 
ATOM      6  C   UNL     1       2.613   6.763  18.842  0.00  0.00    +0.000 A 
ATOM      7  N   UNL     1       2.216   7.061  20.095  0.00  0.00    +0.000 NA
ATOM      8  H   UNL     1       1.088   7.538  22.030  0.00  0.00    +0.000 HD
ENDROOT
BRANCH   6   9
ATOM      9  C   UNL     1       3.196   5.430  18.682  0.00  0.00    +0.000 A 
ATOM     10  C   UNL     1       4.515   4.986  18.484  0.00  0.00    +0.000 A 
ATOM     11  N   UNL     1       4.584   3.604  18.351  0.00  0.00    +0.000 NA
ATOM     12  C   UNL     1       3.346   3.229  18.480  0.00  0.00    +0.000 A 
ATOM     13  S   UNL     1       2.535   1.692  18.454  0.00  0.00    +0.000 S 
ATOM     14  C   UNL     1       1.002   2.537  18.704  0.00  0.00    +0.000 A 
ATOM     15  C   UNL     1       1.149   3.869  18.790  0.00  0.00    +0.000 A 
ATOM     16  N   UNL     1       2.470   4.254  18.666  0.00  0.00    +0.000 N 
BRANCH  10  17
ATOM     17  C   UNL     1       5.709   5.817  18.382  0.00  0.00    +0.000 A 
ATOM     18  C   UNL     1       5.814   6.842  17.432  0.00  0.00    +0.000 A 
ATOM     19  C   UNL     1       7.015   7.529  17.249  0.00  0.00    +0.000 A 
ATOM     20  C   UNL     1       8.110   7.240  18.056  0.00  0.00    +0.000 A 
ATOM     21  C   UNL     1       7.993   6.287  19.068  0.00  0.00    +0.000 A 
ATOM     22  C   UNL     1       6.797   5.580  19.232  0.00  0.00    +0.000 A 
ENDBRANCH  10  17
ENDBRANCH   6   9
BRANCH   1  23
ATOM     23  C   UNL     1      -0.212   9.153  21.598  0.00  0.00    +0.000 C 
BRANCH  23  24
ATOM     24  C   UNL     1      -0.081  10.511  22.307  0.00  0.00    +0.000 C 
BRANCH  24  25
ATOM     25  N   UNL     1       0.694  11.474  21.498  0.00  0.00    +0.000 NA
ATOM     26  H   UNL     1       1.701  11.508  21.651  0.00  0.00    +0.000 HD
BRANCH  25  28
ATOM     27  O   UNL     1      -1.296  12.861  20.778  0.00  0.00    +0.000 OA
ATOM     28  S   UNL     1       0.035  13.021  21.313  0.00  0.00    +0.000 S 
ATOM     29  O   UNL     1       0.308  13.772  22.517  0.00  0.00    +0.000 OA
BRANCH  28  30
ATOM     30  C   UNL     1       1.052  13.672  20.006  0.00  0.00    +0.000 A 
ATOM     31  C   UNL     1       1.934  12.806  19.345  0.00  0.00    +0.000 A 
ATOM     32  C   UNL     1       2.800  13.318  18.382  0.00  0.00    +0.000 A 
ATOM     33  C   UNL     1       2.767  14.678  18.083  0.00  0.00    +0.000 A 
ATOM     34  F   UNL     1       3.616  15.170  17.172  0.00  0.00    +0.000 F 
ATOM     35  C   UNL     1       1.869  15.534  18.715  0.00  0.00    +0.000 A 
ATOM     36  C   UNL     1       0.997  15.032  19.680  0.00  0.00    +0.000 A 
ENDBRANCH  28  30
ENDBRANCH  25  28
ENDBRANCH  24  25
ENDBRANCH  23  24
ENDBRANCH   1  23
TORSDOF 7
ENDMDL
MODEL 6
REMARK VINA RESULT:      -9.0      2.895      4.422
REMARK  Name = 
REMARK  7 active torsions:
REMARK  status: ('A' for Active; 'I' for Inactive)
REMARK    1  A    between atoms: S_2  and  N_4
REMARK    2  A    between atoms: S_2  and  C_28
REMARK    3  A    between atoms: N_4  and  C_5
REMARK    4  A    between atoms: C_5  and  C_6
REMARK    5  A    between atoms: C_6  and  N_7
REMARK    6  A    between atoms: C_12  and  C_13
REMARK    7  A    between atoms: C_14  and  C_15
REMARK                            x       y       z     vdW  Elec       q    Type
REMARK                         _______ _______ _______ _____ _____    ______ ____
ROOT
ATOM      1  N   UNL     1       1.143   8.278  21.499  0.00  0.00    +0.000 N 
ATOM      2  C   UNL     1       1.694   8.111  20.238  0.00  0.00    +0.000 A 
ATOM      3  N   UNL     1       1.524   9.046  19.301  0.00  0.00    +0.000 NA
ATOM      4  C   UNL     1       1.986   8.776  18.071  0.00  0.00    +0.000 A 
ATOM      5  C   UNL     1       2.596   7.596  17.736  0.00  0.00    +0.000 A 
ATOM      6  C   UNL     1       2.768   6.704  18.769  0.00  0.00    +0.000 A 
ATOM      7  N   UNL     1       2.338   6.956  20.021  0.00  0.00    +0.000 NA
ATOM      8  H   UNL     1       1.160   7.363  21.941  0.00  0.00    +0.000 HD
ENDROOT
BRANCH   6   9
ATOM      9  C   UNL     1       3.355   5.378  18.575  0.00  0.00    +0.000 A 
ATOM     10  C   UNL     1       4.669   4.947  18.324  0.00  0.00    +0.000 A 
ATOM     11  N   UNL     1       4.744   3.566  18.176  0.00  0.00    +0.000 NA
ATOM     12  C   UNL     1       3.515   3.180  18.348  0.00  0.00    +0.000 A 
ATOM     13  S   UNL     1       2.715   1.636  18.338  0.00  0.00    +0.000 S 
ATOM     14  C   UNL     1       1.186   2.467  18.652  0.00  0.00    +0.000 A 
ATOM     15  C   UNL     1       1.326   3.800  18.744  0.00  0.00    +0.000 A 
ATOM     16  N   UNL     1       2.638   4.196  18.575  0.00  0.00    +0.000 N 
BRANCH  10  17
ATOM     17  C   UNL     1       5.852   5.788  18.186  0.00  0.00    +0.000 A 
ATOM     18  C   UNL     1       6.974   5.621  19.008  0.00  0.00    +0.000 A 
ATOM     19  C   UNL     1       8.036   6.526  18.962  0.00  0.00    +0.000 A 
ATOM     20  C   UNL     1       8.015   7.576  18.052  0.00  0.00    +0.000 A 
ATOM     21  C   UNL     1       6.946   7.702  17.164  0.00  0.00    +0.000 A 
ATOM     22  C   UNL     1       5.870   6.811  17.229  0.00  0.00    +0.000 A 
ENDBRANCH  10  17
ENDBRANCH   6   9
BRANCH   1  23
ATOM     23  C   UNL     1      -0.129   8.995  21.535  0.00  0.00    +0.000 C 
BRANCH  23  24
ATOM     24  C   UNL     1      -0.013  10.331  22.287  0.00  0.00    +0.000 C 
BRANCH  24  25
ATOM     25  N   UNL     1       0.717  11.339  21.491  0.00  0.00    +0.000 NA
ATOM     26  H   UNL     1       1.563  11.734  21.902  0.00  0.00    +0.000 HD
BRANCH  25  28
ATOM     27  O   UNL     1      -1.106  11.838  19.810  0.00  0.00    +0.000 OA
ATOM     28  S   UNL     1      -0.213  12.521  20.715  0.00  0.00    +0.000 S 
ATOM     29  O   UNL     1      -0.678  13.454  21.716  0.00  0.00    +0.000 OA
BRANCH  28  30
ATOM     30  C   UNL     1       1.022  13.332  19.725  0.00  0.00    +0.000 A 
ATOM     31  C   UNL     1       1.003  14.731  19.639  0.00  0.00    +0.000 A 
ATOM     32  C   UNL     1       1.906  15.375  18.796  0.00  0.00    +0.000 A 
ATOM     33  C   UNL     1       2.821  14.621  18.065  0.00  0.00    +0.000 A 
ATOM     34  F   UNL     1       3.673  15.243  17.241  0.00  0.00    +0.000 F 
ATOM     35  C   UNL     1       2.864  13.234  18.174  0.00  0.00    +0.000 A 
ATOM     36  C   UNL     1       1.964  12.579  19.015  0.00  0.00    +0.000 A 
ENDBRANCH  28  30
ENDBRANCH  25  28
ENDBRANCH  24  25
ENDBRANCH  23  24
ENDBRANCH   1  23
TORSDOF 7
ENDMDL
MODEL 7
REMARK VINA RESULT:      -9.0      1.346      1.634
REMARK  Name = 
REMARK  7 active torsions:
REMARK  status: ('A' for Active; 'I' for Inactive)
REMARK    1  A    between atoms: S_2  and  N_4
REMARK    2  A    between atoms: S_2  and  C_28
REMARK    3  A    between atoms: N_4  and  C_5
REMARK    4  A    between atoms: C_5  and  C_6
REMARK    5  A    between atoms: C_6  and  N_7
REMARK    6  A    between atoms: C_12  and  C_13
REMARK    7  A    between atoms: C_14  and  C_15
REMARK                            x       y       z     vdW  Elec       q    Type
REMARK                         _______ _______ _______ _____ _____    ______ ____
ROOT
ATOM      1  N   UNL     1       1.215   8.335  21.342  0.00  0.00    +0.000 N 
ATOM      2  C   UNL     1       1.738   8.274  20.059  0.00  0.00    +0.000 A 
ATOM      3  N   UNL     1       1.305   9.112  19.116  0.00  0.00    +0.000 NA
ATOM      4  C   UNL     1       1.768   8.929  17.871  0.00  0.00    +0.000 A 
ATOM      5  C   UNL     1       2.637   7.928  17.528  0.00  0.00    +0.000 A 
ATOM      6  C   UNL     1       3.067   7.135  18.566  0.00  0.00    +0.000 A 
ATOM      7  N   UNL     1       2.638   7.308  19.833  0.00  0.00    +0.000 NA
ATOM      8  H   UNL     1       1.475   7.465  21.798  0.00  0.00    +0.000 HD
ENDROOT
BRANCH   6   9
ATOM      9  C   UNL     1       3.955   5.989  18.368  0.00  0.00    +0.000 A 
ATOM     10  C   UNL     1       3.795   4.611  18.595  0.00  0.00    +0.000 A 
ATOM     11  N   UNL     1       4.947   3.896  18.284  0.00  0.00    +0.000 NA
ATOM     12  C   UNL     1       5.767   4.816  17.870  0.00  0.00    +0.000 A 
ATOM     13  S   UNL     1       7.405   4.808  17.286  0.00  0.00    +0.000 S 
ATOM     14  C   UNL     1       7.312   6.565  17.111  0.00  0.00    +0.000 A 
ATOM     15  C   UNL     1       6.121   7.064  17.480  0.00  0.00    +0.000 A 
ATOM     16  N   UNL     1       5.254   6.076  17.904  0.00  0.00    +0.000 N 
BRANCH  10  17
ATOM     17  C   UNL     1       2.611   3.946  19.124  0.00  0.00    +0.000 A 
ATOM     18  C   UNL     1       2.334   3.918  20.497  0.00  0.00    +0.000 A 
ATOM     19  C   UNL     1       1.279   3.155  21.000  0.00  0.00    +0.000 A 
ATOM     20  C   UNL     1       0.451   2.456  20.129  0.00  0.00    +0.000 A 
ATOM     21  C   UNL     1       0.659   2.547  18.753  0.00  0.00    +0.000 A 
ATOM     22  C   UNL     1       1.732   3.291  18.252  0.00  0.00    +0.000 A 
ENDBRANCH  10  17
ENDBRANCH   6   9
BRANCH   1  23
ATOM     23  C   UNL     1      -0.193   8.717  21.424  0.00  0.00    +0.000 C 
BRANCH  23  24
ATOM     24  C   UNL     1      -0.366  10.173  21.885  0.00  0.00    +0.000 C 
BRANCH  24  25
ATOM     25  N   UNL     1      -0.241  11.118  20.756  0.00  0.00    +0.000 NA
ATOM     26  H   UNL     1       0.686  11.496  20.564  0.00  0.00    +0.000 HD
BRANCH  25  28
ATOM     27  O   UNL     1      -2.325  12.157  21.746  0.00  0.00    +0.000 OA
ATOM     28  S   UNL     1      -1.443  12.300  20.611  0.00  0.00    +0.000 S 
ATOM     29  O   UNL     1      -0.803  13.551  20.272  0.00  0.00    +0.000 OA
BRANCH  28  30
ATOM     30  C   UNL     1      -2.326  11.718  19.181  0.00  0.00    +0.000 A 
ATOM     31  C   UNL     1      -1.621  11.013  18.196  0.00  0.00    +0.000 A 
ATOM     32  C   UNL     1      -2.278  10.629  17.029  0.00  0.00    +0.000 A 
ATOM     33  C   UNL     1      -3.626  10.940  16.867  0.00  0.00    +0.000 A 
ATOM     34  F   UNL     1      -4.249  10.588  15.735  0.00  0.00    +0.000 F 
ATOM     35  C   UNL     1      -4.337  11.611  17.858  0.00  0.00    +0.000 A 
ATOM     36  C   UNL     1      -3.688  11.999  19.031  0.00  0.00    +0.000 A 
ENDBRANCH  28  30
ENDBRANCH  25  28
ENDBRANCH  24  25
ENDBRANCH  23  24
ENDBRANCH   1  23
TORSDOF 7
ENDMDL
MODEL 8
REMARK VINA RESULT:      -9.0      2.516      2.989
REMARK  Name = 
REMARK  7 active torsions:
REMARK  status: ('A' for Active; 'I' for Inactive)
REMARK    1  A    between atoms: S_2  and  N_4
REMARK    2  A    between atoms: S_2  and  C_28
REMARK    3  A    between atoms: N_4  and  C_5
REMARK    4  A    between atoms: C_5  and  C_6
REMARK    5  A    between atoms: C_6  and  N_7
REMARK    6  A    between atoms: C_12  and  C_13
REMARK    7  A    between atoms: C_14  and  C_15
REMARK                            x       y       z     vdW  Elec       q    Type
REMARK                         _______ _______ _______ _____ _____    ______ ____
ROOT
ATOM      1  N   UNL     1       1.278   8.228  21.409  0.00  0.00    +0.000 N 
ATOM      2  C   UNL     1       1.789   8.207  20.121  0.00  0.00    +0.000 A 
ATOM      3  N   UNL     1       1.362   9.088  19.214  0.00  0.00    +0.000 NA
ATOM      4  C   UNL     1       1.813   8.946  17.959  0.00  0.00    +0.000 A 
ATOM      5  C   UNL     1       2.661   7.944  17.570  0.00  0.00    +0.000 A 
ATOM      6  C   UNL     1       3.086   7.105  18.573  0.00  0.00    +0.000 A 
ATOM      7  N   UNL     1       2.671   7.236  19.849  0.00  0.00    +0.000 NA
ATOM      8  H   UNL     1       1.528   7.337  21.829  0.00  0.00    +0.000 HD
ENDROOT
BRANCH   6   9
ATOM      9  C   UNL     1       3.954   5.953  18.323  0.00  0.00    +0.000 A 
ATOM     10  C   UNL     1       3.782   4.572  18.521  0.00  0.00    +0.000 A 
ATOM     11  N   UNL     1       4.915   3.850  18.161  0.00  0.00    +0.000 NA
ATOM     12  C   UNL     1       5.735   4.770  17.748  0.00  0.00    +0.000 A 
ATOM     13  S   UNL     1       7.357   4.755  17.119  0.00  0.00    +0.000 S 
ATOM     14  C   UNL     1       7.283   6.517  16.989  0.00  0.00    +0.000 A 
ATOM     15  C   UNL     1       6.109   7.022  17.402  0.00  0.00    +0.000 A 
ATOM     16  N   UNL     1       5.241   6.035  17.826  0.00  0.00    +0.000 N 
BRANCH  10  17
ATOM     17  C   UNL     1       2.604   3.909  19.066  0.00  0.00    +0.000 A 
ATOM     18  C   UNL     1       2.387   3.810  20.447  0.00  0.00    +0.000 A 
ATOM     19  C   UNL     1       1.334   3.047  20.954  0.00  0.00    +0.000 A 
ATOM     20  C   UNL     1       0.448   2.421  20.084  0.00  0.00    +0.000 A 
ATOM     21  C   UNL     1       0.597   2.586  18.707  0.00  0.00    +0.000 A 
ATOM     22  C   UNL     1       1.668   3.329  18.199  0.00  0.00    +0.000 A 
ENDBRANCH  10  17
ENDBRANCH   6   9
BRANCH   1  23
ATOM     23  C   UNL     1      -0.122   8.629  21.519  0.00  0.00    +0.000 C 
BRANCH  23  24
ATOM     24  C   UNL     1      -0.282   9.944  22.299  0.00  0.00    +0.000 C 
BRANCH  24  25
ATOM     25  N   UNL     1       0.695  10.960  21.857  0.00  0.00    +0.000 NA
ATOM     26  H   UNL     1       1.512  11.111  22.449  0.00  0.00    +0.000 HD
BRANCH  25  28
ATOM     27  O   UNL     1      -1.042  12.091  20.407  0.00  0.00    +0.000 OA
ATOM     28  S   UNL     1       0.069  12.418  21.269  0.00  0.00    +0.000 S 
ATOM     29  O   UNL     1      -0.047  13.336  22.379  0.00  0.00    +0.000 OA
BRANCH  28  30
ATOM     30  C   UNL     1       1.401  12.967  20.226  0.00  0.00    +0.000 A 
ATOM     31  C   UNL     1       2.364  13.832  20.763  0.00  0.00    +0.000 A 
ATOM     32  C   UNL     1       3.362  14.342  19.936  0.00  0.00    +0.000 A 
ATOM     33  C   UNL     1       3.395  13.973  18.593  0.00  0.00    +0.000 A 
ATOM     34  F   UNL     1       4.342  14.482  17.796  0.00  0.00    +0.000 F 
ATOM     35  C   UNL     1       2.459  13.088  18.065  0.00  0.00    +0.000 A 
ATOM     36  C   UNL     1       1.456  12.571  18.885  0.00  0.00    +0.000 A 
ENDBRANCH  28  30
ENDBRANCH  25  28
ENDBRANCH  24  25
ENDBRANCH  23  24
ENDBRANCH   1  23
TORSDOF 7
ENDMDL
MODEL 9
REMARK VINA RESULT:      -9.0      4.192      8.921
REMARK  Name = 
REMARK  7 active torsions:
REMARK  status: ('A' for Active; 'I' for Inactive)
REMARK    1  A    between atoms: S_2  and  N_4
REMARK    2  A    between atoms: S_2  and  C_28
REMARK    3  A    between atoms: N_4  and  C_5
REMARK    4  A    between atoms: C_5  and  C_6
REMARK    5  A    between atoms: C_6  and  N_7
REMARK    6  A    between atoms: C_12  and  C_13
REMARK    7  A    between atoms: C_14  and  C_15
REMARK                            x       y       z     vdW  Elec       q    Type
REMARK                         _______ _______ _______ _____ _____    ______ ____
ROOT
ATOM      1  N   UNL     1       1.930   7.662  20.616  0.00  0.00    +0.000 N 
ATOM      2  C   UNL     1       1.165   8.704  21.115  0.00  0.00    +0.000 A 
ATOM      3  N   UNL     1       0.440   8.536  22.222  0.00  0.00    +0.000 NA
ATOM      4  C   UNL     1      -0.364   9.544  22.591  0.00  0.00    +0.000 A 
ATOM      5  C   UNL     1      -0.485  10.710  21.884  0.00  0.00    +0.000 A 
ATOM      6  C   UNL     1       0.327  10.820  20.779  0.00  0.00    +0.000 A 
ATOM      7  N   UNL     1       1.163   9.835  20.396  0.00  0.00    +0.000 NA
ATOM      8  H   UNL     1       2.167   7.913  19.660  0.00  0.00    +0.000 HD
ENDROOT
BRANCH   6   9
ATOM      9  C   UNL     1       0.288  11.977  19.884  0.00  0.00    +0.000 A 
ATOM     10  C   UNL     1      -0.588  12.350  18.850  0.00  0.00    +0.000 A 
ATOM     11  N   UNL     1      -0.200  13.541  18.244  0.00  0.00    +0.000 NA
ATOM     12  C   UNL     1       0.868  13.878  18.905  0.00  0.00    +0.000 A 
ATOM     13  S   UNL     1       1.977  15.214  18.818  0.00  0.00    +0.000 S 
ATOM     14  C   UNL     1       2.894  14.492  20.147  0.00  0.00    +0.000 A 
ATOM     15  C   UNL     1       2.363  13.336  20.579  0.00  0.00    +0.000 A 
ATOM     16  N   UNL     1       1.222  12.996  19.879  0.00  0.00    +0.000 N 
BRANCH  10  17
ATOM     17  C   UNL     1      -1.757  11.613  18.388  0.00  0.00    +0.000 A 
ATOM     18  C   UNL     1      -3.059  12.024  18.704  0.00  0.00    +0.000 A 
ATOM     19  C   UNL     1      -4.159  11.228  18.381  0.00  0.00    +0.000 A 
ATOM     20  C   UNL     1      -3.976  10.039  17.684  0.00  0.00    +0.000 A 
ATOM     21  C   UNL     1      -2.695   9.661  17.283  0.00  0.00    +0.000 A 
ATOM     22  C   UNL     1      -1.590  10.446  17.630  0.00  0.00    +0.000 A 
ENDBRANCH  10  17
ENDBRANCH   6   9
BRANCH   1  23
ATOM     23  C   UNL     1       1.374   6.326  20.817  0.00  0.00    +0.000 C 
BRANCH  23  24
ATOM     24  C   UNL     1       1.997   5.296  19.862  0.00  0.00    +0.000 C 
BRANCH  24  25
ATOM     25  N   UNL     1       3.453   5.167  20.076  0.00  0.00    +0.000 NA
ATOM     26  H   UNL     1       3.966   6.014  20.318  0.00  0.00    +0.000 HD
BRANCH  25  28
ATOM     27  O   UNL     1       4.992   3.189  19.726  0.00  0.00    +0.000 OA
ATOM     28  S   UNL     1       4.307   4.211  18.971  0.00  0.00    +0.000 S 
ATOM     29  O   UNL     1       3.427   3.907  17.866  0.00  0.00    +0.000 OA
BRANCH  28  30
ATOM     30  C   UNL     1       5.539   5.362  18.404  0.00  0.00    +0.000 A 
ATOM     31  C   UNL     1       6.789   5.377  19.039  0.00  0.00    +0.000 A 
ATOM     32  C   UNL     1       7.732   6.332  18.667  0.00  0.00    +0.000 A 
ATOM     33  C   UNL     1       7.424   7.246  17.663  0.00  0.00    +0.000 A 
ATOM     34  F   UNL     1       8.325   8.176  17.323  0.00  0.00    +0.000 F 
ATOM     35  C   UNL     1       6.196   7.213  17.008  0.00  0.00    +0.000 A 
ATOM     36  C   UNL     1       5.244   6.260  17.372  0.00  0.00    +0.000 A 
ENDBRANCH  28  30
ENDBRANCH  25  28
ENDBRANCH  24  25
ENDBRANCH  23  24
ENDBRANCH   1  23
TORSDOF 7
ENDMDL
