MODEL 1
REMARK VINA RESULT:      -7.7      0.000      0.000
REMARK  Name = 
REMARK  12 active torsions:
REMARK  status: ('A' for Active; 'I' for Inactive)
REMARK    1  A    between atoms: C_1  and  O_2
REMARK    2  A    between atoms: O_2  and  C_3
REMARK    3  A    between atoms: C_6  and  N_7
REMARK    4  A    between atoms: N_7  and  C_8
REMARK    5  A    between atoms: N_7  and  C_29
REMARK    6  A    between atoms: N_15  and  C_16
REMARK    7  A    between atoms: C_17  and  C_18
REMARK    8  A    between atoms: C_23  and  O_24
REMARK    9  A    between atoms: O_24  and  C_25
REMARK   10  A    between atoms: N_26  and  C_27
REMARK   11  A    between atoms: C_29  and  C_30
REMARK   12  A    between atoms: C_29  and  C_31
REMARK                            x       y       z     vdW  Elec       q    Type
REMARK                         _______ _______ _______ _____ _____    ______ ____
ROOT
ATOM      1  C   UNL     1       0.039  10.303  20.206  0.00  0.00    +0.000 A 
ATOM      2  C   UNL     1      -0.417  10.354  21.572  0.00  0.00    +0.000 A 
ATOM      3  C   UNL     1      -0.128   9.418  22.563  0.00  0.00    +0.000 A 
ATOM      4  C   UNL     1       0.714   8.371  22.268  0.00  0.00    +0.000 A 
ATOM      5  C   UNL     1       1.264   8.287  20.986  0.00  0.00    +0.000 A 
ATOM      6  N   UNL     1       2.147   7.327  20.591  0.00  0.00    +0.000 NA
ATOM      7  C   UNL     1       2.390   7.571  19.331  0.00  0.00    +0.000 A 
ATOM      8  N   UNL     1       3.158   6.861  18.490  0.00  0.00    +0.000 N 
ATOM      9  N   UNL     1       1.645   8.650  18.882  0.00  0.00    +0.000 N 
ATOM     10  C   UNL     1       1.560   8.922  17.469  0.00  0.00    +0.000 C 
ATOM     11  C   UNL     1       0.934   9.199  19.956  0.00  0.00    +0.000 A 
ATOM     12  H   UNL     1       3.553   7.290  17.675  0.00  0.00    +0.000 HD
ENDROOT
BRANCH   8  13
ATOM     13  C   UNL     1       3.409   5.477  18.549  0.00  0.00    +0.000 A 
ATOM     14  C   UNL     1       2.447   4.527  18.089  0.00  0.00    +0.000 A 
ATOM     15  C   UNL     1       1.182   4.875  17.332  0.00  0.00    +0.000 C 
ATOM     16  C   UNL     1       2.653   3.156  18.303  0.00  0.00    +0.000 A 
ATOM     17  C   UNL     1       3.814   2.711  18.914  0.00  0.00    +0.000 A 
ATOM     18 CL   UNL     1       4.041   1.030  19.197  0.00  0.00    +0.000 Cl
ATOM     19  C   UNL     1       4.796   3.615  19.290  0.00  0.00    +0.000 A 
ATOM     20  C   UNL     1       4.618   4.995  19.113  0.00  0.00    +0.000 A 
BRANCH  20  21
ATOM     21  O   UNL     1       5.721   5.676  19.560  0.00  0.00    +0.000 OA
ATOM     22  C   UNL     1       6.978   5.627  18.916  0.00  0.00    +0.000 C 
ENDBRANCH  20  21
ENDBRANCH   8  13
BRANCH   1  23
ATOM     23  N   UNL     1      -0.433  11.374  19.352  0.00  0.00    +0.000 N 
BRANCH  23  27
ATOM     24  C   UNL     1      -4.216  11.576  17.592  0.00  0.00    +0.000 A 
ATOM     25  C   UNL     1      -3.206  10.941  16.891  0.00  0.00    +0.000 A 
ATOM     26  C   UNL     1      -1.942  10.872  17.476  0.00  0.00    +0.000 A 
ATOM     27  C   UNL     1      -1.713  11.414  18.748  0.00  0.00    +0.000 A 
ATOM     28  C   UNL     1      -2.826  11.978  19.372  0.00  0.00    +0.000 A 
ATOM     29  N   UNL     1      -4.054  12.097  18.822  0.00  0.00    +0.000 NA
BRANCH  24  31
ATOM     30  C   UNL     1      -6.515  11.723  17.924  0.00  0.00    +0.000 C 
ATOM     31  O   UNL     1      -5.448  11.659  16.979  0.00  0.00    +0.000 OA
ENDBRANCH  24  31
ENDBRANCH  23  27
BRANCH  23  32
ATOM     32  C   UNL     1       0.491  12.463  18.981  0.00  0.00    +0.000 C 
ATOM     33  C   UNL     1      -0.069  13.839  18.598  0.00  0.00    +0.000 C 
ATOM     34  C   UNL     1       1.643  12.608  19.976  0.00  0.00    +0.000 C 
ENDBRANCH  23  32
ENDBRANCH   1  23
TORSDOF 6
ENDMDL
MODEL 2
REMARK VINA RESULT:      -7.6      2.093      3.665
REMARK  Name = 
REMARK  12 active torsions:
REMARK  status: ('A' for Active; 'I' for Inactive)
REMARK    1  A    between atoms: C_1  and  O_2
REMARK    2  A    between atoms: O_2  and  C_3
REMARK    3  A    between atoms: C_6  and  N_7
REMARK    4  A    between atoms: N_7  and  C_8
REMARK    5  A    between atoms: N_7  and  C_29
REMARK    6  A    between atoms: N_15  and  C_16
REMARK    7  A    between atoms: C_17  and  C_18
REMARK    8  A    between atoms: C_23  and  O_24
REMARK    9  A    between atoms: O_24  and  C_25
REMARK   10  A    between atoms: N_26  and  C_27
REMARK   11  A    between atoms: C_29  and  C_30
REMARK   12  A    between atoms: C_29  and  C_31
REMARK                            x       y       z     vdW  Elec       q    Type
REMARK                         _______ _______ _______ _____ _____    ______ ____
ROOT
ATOM      1  C   UNL     1       0.192  10.327  19.995  0.00  0.00    +0.000 A 
ATOM      2  C   UNL     1      -0.453  10.345  21.284  0.00  0.00    +0.000 A 
ATOM      3  C   UNL     1      -0.367   9.348  22.253  0.00  0.00    +0.000 A 
ATOM      4  C   UNL     1       0.447   8.263  22.024  0.00  0.00    +0.000 A 
ATOM      5  C   UNL     1       1.171   8.202  20.830  0.00  0.00    +0.000 A 
ATOM      6  N   UNL     1       2.045   7.205  20.513  0.00  0.00    +0.000 NA
ATOM      7  C   UNL     1       2.482   7.489  19.316  0.00  0.00    +0.000 A 
ATOM      8  N   UNL     1       3.321   6.769  18.555  0.00  0.00    +0.000 N 
ATOM      9  N   UNL     1       1.875   8.634  18.825  0.00  0.00    +0.000 N 
ATOM     10  C   UNL     1       2.012   8.976  17.431  0.00  0.00    +0.000 C 
ATOM     11  C   UNL     1       1.048   9.179  19.815  0.00  0.00    +0.000 A 
ATOM     12  H   UNL     1       3.855   7.208  17.830  0.00  0.00    +0.000 HD
ENDROOT
BRANCH   8  13
ATOM     13  C   UNL     1       3.480   5.371  18.573  0.00  0.00    +0.000 A 
ATOM     14  C   UNL     1       2.463   4.501  18.074  0.00  0.00    +0.000 A 
ATOM     15  C   UNL     1       1.233   4.955  17.316  0.00  0.00    +0.000 C 
ATOM     16  C   UNL     1       2.576   3.114  18.248  0.00  0.00    +0.000 A 
ATOM     17  C   UNL     1       3.697   2.574  18.858  0.00  0.00    +0.000 A 
ATOM     18 CL   UNL     1       3.809   0.873  19.090  0.00  0.00    +0.000 Cl
ATOM     19  C   UNL     1       4.732   3.399  19.271  0.00  0.00    +0.000 A 
ATOM     20  C   UNL     1       4.647   4.793  19.136  0.00  0.00    +0.000 A 
BRANCH  20  21
ATOM     21  O   UNL     1       5.787   5.385  19.615  0.00  0.00    +0.000 OA
ATOM     22  C   UNL     1       6.925   5.641  18.816  0.00  0.00    +0.000 C 
ENDBRANCH  20  21
ENDBRANCH   8  13
BRANCH   1  23
ATOM     23  N   UNL     1      -0.087  11.465  19.142  0.00  0.00    +0.000 N 
BRANCH  23  27
ATOM     24  C   UNL     1       2.318  14.866  18.826  0.00  0.00    +0.000 A 
ATOM     25  C   UNL     1       1.063  15.007  19.393  0.00  0.00    +0.000 A 
ATOM     26  C   UNL     1       0.258  13.874  19.499  0.00  0.00    +0.000 A 
ATOM     27  C   UNL     1       0.722  12.625  19.063  0.00  0.00    +0.000 A 
ATOM     28  C   UNL     1       2.024  12.606  18.561  0.00  0.00    +0.000 A 
ATOM     29  N   UNL     1       2.818  13.688  18.407  0.00  0.00    +0.000 NA
BRANCH  24  31
ATOM     30  C   UNL     1       2.769  16.739  17.519  0.00  0.00    +0.000 C 
ATOM     31  O   UNL     1       3.083  16.007  18.702  0.00  0.00    +0.000 OA
ENDBRANCH  24  31
ENDBRANCH  23  27
BRANCH  23  32
ATOM     32  C   UNL     1      -1.341  11.497  18.367  0.00  0.00    +0.000 C 
ATOM     33  C   UNL     1      -1.755  10.275  17.537  0.00  0.00    +0.000 C 
ATOM     34  C   UNL     1      -2.520  12.011  19.194  0.00  0.00    +0.000 C 
ENDBRANCH  23  32
ENDBRANCH   1  23
TORSDOF 6
ENDMDL
MODEL 3
REMARK VINA RESULT:      -7.4      1.153      1.380
REMARK  Name = 
REMARK  12 active torsions:
REMARK  status: ('A' for Active; 'I' for Inactive)
REMARK    1  A    between atoms: C_1  and  O_2
REMARK    2  A    between atoms: O_2  and  C_3
REMARK    3  A    between atoms: C_6  and  N_7
REMARK    4  A    between atoms: N_7  and  C_8
REMARK    5  A    between atoms: N_7  and  C_29
REMARK    6  A    between atoms: N_15  and  C_16
REMARK    7  A    between atoms: C_17  and  C_18
REMARK    8  A    between atoms: C_23  and  O_24
REMARK    9  A    between atoms: O_24  and  C_25
REMARK   10  A    between atoms: N_26  and  C_27
REMARK   11  A    between atoms: C_29  and  C_30
REMARK   12  A    between atoms: C_29  and  C_31
REMARK                            x       y       z     vdW  Elec       q    Type
REMARK                         _______ _______ _______ _____ _____    ______ ____
ROOT
ATOM      1  C   UNL     1      -0.007  10.227  20.267  0.00  0.00    +0.000 A 
ATOM      2  C   UNL     1      -0.417  10.293  21.647  0.00  0.00    +0.000 A 
ATOM      3  C   UNL     1      -0.067   9.387  22.646  0.00  0.00    +0.000 A 
ATOM      4  C   UNL     1       0.796   8.359  22.342  0.00  0.00    +0.000 A 
ATOM      5  C   UNL     1       1.304   8.264  21.044  0.00  0.00    +0.000 A 
ATOM      6  N   UNL     1       2.201   7.322  20.638  0.00  0.00    +0.000 NA
ATOM      7  C   UNL     1       2.393   7.546  19.366  0.00  0.00    +0.000 A 
ATOM      8  N   UNL     1       3.153   6.841  18.513  0.00  0.00    +0.000 N 
ATOM      9  N   UNL     1       1.602   8.593  18.922  0.00  0.00    +0.000 N 
ATOM     10  C   UNL     1       1.461   8.834  17.507  0.00  0.00    +0.000 C 
ATOM     11  C   UNL     1       0.911   9.144  20.008  0.00  0.00    +0.000 A 
ATOM     12  H   UNL     1       3.507   7.265  17.677  0.00  0.00    +0.000 HD
ENDROOT
BRANCH   8  13
ATOM     13  C   UNL     1       3.447   5.467  18.591  0.00  0.00    +0.000 A 
ATOM     14  C   UNL     1       2.503   4.480  18.172  0.00  0.00    +0.000 A 
ATOM     15  C   UNL     1       1.211   4.776  17.439  0.00  0.00    +0.000 C 
ATOM     16  C   UNL     1       2.756   3.121  18.406  0.00  0.00    +0.000 A 
ATOM     17  C   UNL     1       3.944   2.721  18.997  0.00  0.00    +0.000 A 
ATOM     18 CL   UNL     1       4.228   1.053  19.304  0.00  0.00    +0.000 Cl
ATOM     19  C   UNL     1       4.907   3.661  19.332  0.00  0.00    +0.000 A 
ATOM     20  C   UNL     1       4.683   5.032  19.135  0.00  0.00    +0.000 A 
BRANCH  20  21
ATOM     21  O   UNL     1       5.775   5.753  19.543  0.00  0.00    +0.000 OA
ATOM     22  C   UNL     1       7.064   5.595  18.984  0.00  0.00    +0.000 C 
ENDBRANCH  20  21
ENDBRANCH   8  13
BRANCH   1  23
ATOM     23  N   UNL     1      -0.539  11.265  19.408  0.00  0.00    +0.000 N 
BRANCH  23  27
ATOM     24  C   UNL     1      -3.197  10.629  16.249  0.00  0.00    +0.000 A 
ATOM     25  C   UNL     1      -3.159   9.691  17.266  0.00  0.00    +0.000 A 
ATOM     26  C   UNL     1      -2.272   9.901  18.321  0.00  0.00    +0.000 A 
ATOM     27  C   UNL     1      -1.461  11.043  18.357  0.00  0.00    +0.000 A 
ATOM     28  C   UNL     1      -1.634  11.938  17.300  0.00  0.00    +0.000 A 
ATOM     29  N   UNL     1      -2.453  11.751  16.243  0.00  0.00    +0.000 NA
BRANCH  24  31
ATOM     30  C   UNL     1      -3.364  10.030  14.006  0.00  0.00    +0.000 C 
ATOM     31  O   UNL     1      -4.059  10.383  15.201  0.00  0.00    +0.000 OA
ENDBRANCH  24  31
ENDBRANCH  23  27
BRANCH  23  32
ATOM     32  C   UNL     1      -0.032  12.644  19.542  0.00  0.00    +0.000 C 
ATOM     33  C   UNL     1      -0.670  13.595  20.563  0.00  0.00    +0.000 C 
ATOM     34  C   UNL     1       1.494  12.693  19.639  0.00  0.00    +0.000 C 
ENDBRANCH  23  32
ENDBRANCH   1  23
TORSDOF 6
ENDMDL
MODEL 4
REMARK VINA RESULT:      -7.0      1.348      1.907
REMARK  Name = 
REMARK  12 active torsions:
REMARK  status: ('A' for Active; 'I' for Inactive)
REMARK    1  A    between atoms: C_1  and  O_2
REMARK    2  A    between atoms: O_2  and  C_3
REMARK    3  A    between atoms: C_6  and  N_7
REMARK    4  A    between atoms: N_7  and  C_8
REMARK    5  A    between atoms: N_7  and  C_29
REMARK    6  A    between atoms: N_15  and  C_16
REMARK    7  A    between atoms: C_17  and  C_18
REMARK    8  A    between atoms: C_23  and  O_24
REMARK    9  A    between atoms: O_24  and  C_25
REMARK   10  A    between atoms: N_26  and  C_27
REMARK   11  A    between atoms: C_29  and  C_30
REMARK   12  A    between atoms: C_29  and  C_31
REMARK                            x       y       z     vdW  Elec       q    Type
REMARK                         _______ _______ _______ _____ _____    ______ ____
ROOT
ATOM      1  C   UNL     1      -0.062  10.544  20.513  0.00  0.00    +0.000 A 
ATOM      2  C   UNL     1      -0.259  10.533  21.941  0.00  0.00    +0.000 A 
ATOM      3  C   UNL     1       0.246   9.584  22.827  0.00  0.00    +0.000 A 
ATOM      4  C   UNL     1       1.062   8.588  22.344  0.00  0.00    +0.000 A 
ATOM      5  C   UNL     1       1.369   8.566  20.981  0.00  0.00    +0.000 A 
ATOM      6  N   UNL     1       2.203   7.661  20.396  0.00  0.00    +0.000 NA
ATOM      7  C   UNL     1       2.198   7.952  19.123  0.00  0.00    +0.000 A 
ATOM      8  N   UNL     1       2.826   7.303  18.130  0.00  0.00    +0.000 N 
ATOM      9  N   UNL     1       1.340   9.006  18.858  0.00  0.00    +0.000 N 
ATOM     10  C   UNL     1       0.984   9.315  17.495  0.00  0.00    +0.000 C 
ATOM     11  C   UNL     1       0.817   9.491  20.063  0.00  0.00    +0.000 A 
ATOM     12  H   UNL     1       3.046   7.774  17.273  0.00  0.00    +0.000 HD
ENDROOT
BRANCH   8  13
ATOM     13  C   UNL     1       3.142   5.932  18.090  0.00  0.00    +0.000 A 
ATOM     14  C   UNL     1       4.236   5.443  17.314  0.00  0.00    +0.000 A 
ATOM     15  C   UNL     1       5.268   6.316  16.630  0.00  0.00    +0.000 C 
ATOM     16  C   UNL     1       4.432   4.063  17.164  0.00  0.00    +0.000 A 
ATOM     17  C   UNL     1       3.599   3.164  17.810  0.00  0.00    +0.000 A 
ATOM     18 CL   UNL     1       3.833   1.474  17.594  0.00  0.00    +0.000 Cl
ATOM     19  C   UNL     1       2.584   3.623  18.636  0.00  0.00    +0.000 A 
ATOM     20  C   UNL     1       2.341   4.995  18.793  0.00  0.00    +0.000 A 
BRANCH  20  21
ATOM     21  O   UNL     1       1.292   5.195  19.653  0.00  0.00    +0.000 OA
ATOM     22  C   UNL     1       0.898   4.253  20.631  0.00  0.00    +0.000 C 
ENDBRANCH  20  21
ENDBRANCH   8  13
BRANCH   1  23
ATOM     23  N   UNL     1      -0.726  11.615  19.800  0.00  0.00    +0.000 N 
BRANCH  23  27
ATOM     24  C   UNL     1      -4.502  11.381  18.026  0.00  0.00    +0.000 A 
ATOM     25  C   UNL     1      -3.483  10.612  17.491  0.00  0.00    +0.000 A 
ATOM     26  C   UNL     1      -2.222  10.689  18.081  0.00  0.00    +0.000 A 
ATOM     27  C   UNL     1      -2.004  11.506  19.198  0.00  0.00    +0.000 A 
ATOM     28  C   UNL     1      -3.125  12.188  19.675  0.00  0.00    +0.000 A 
ATOM     29  N   UNL     1      -4.350  12.168  19.108  0.00  0.00    +0.000 NA
BRANCH  24  31
ATOM     30  C   UNL     1      -6.786  11.051  18.332  0.00  0.00    +0.000 C 
ATOM     31  O   UNL     1      -5.731  11.313  17.407  0.00  0.00    +0.000 OA
ENDBRANCH  24  31
ENDBRANCH  23  27
BRANCH  23  32
ATOM     32  C   UNL     1      -0.013  12.887  19.577  0.00  0.00    +0.000 C 
ATOM     33  C   UNL     1       0.373  13.763  20.775  0.00  0.00    +0.000 C 
ATOM     34  C   UNL     1       1.170  12.727  18.622  0.00  0.00    +0.000 C 
ENDBRANCH  23  32
ENDBRANCH   1  23
TORSDOF 6
ENDMDL
MODEL 5
REMARK VINA RESULT:      -6.9      1.985      3.479
REMARK  Name = 
REMARK  12 active torsions:
REMARK  status: ('A' for Active; 'I' for Inactive)
REMARK    1  A    between atoms: C_1  and  O_2
REMARK    2  A    between atoms: O_2  and  C_3
REMARK    3  A    between atoms: C_6  and  N_7
REMARK    4  A    between atoms: N_7  and  C_8
REMARK    5  A    between atoms: N_7  and  C_29
REMARK    6  A    between atoms: N_15  and  C_16
REMARK    7  A    between atoms: C_17  and  C_18
REMARK    8  A    between atoms: C_23  and  O_24
REMARK    9  A    between atoms: O_24  and  C_25
REMARK   10  A    between atoms: N_26  and  C_27
REMARK   11  A    between atoms: C_29  and  C_30
REMARK   12  A    between atoms: C_29  and  C_31
REMARK                            x       y       z     vdW  Elec       q    Type
REMARK                         _______ _______ _______ _____ _____    ______ ____
ROOT
ATOM      1  C   UNL     1      -0.033  10.418  20.357  0.00  0.00    +0.000 A 
ATOM      2  C   UNL     1      -0.472  10.407  21.729  0.00  0.00    +0.000 A 
ATOM      3  C   UNL     1      -0.170   9.429  22.674  0.00  0.00    +0.000 A 
ATOM      4  C   UNL     1       0.671   8.398  22.323  0.00  0.00    +0.000 A 
ATOM      5  C   UNL     1       1.206   8.373  21.032  0.00  0.00    +0.000 A 
ATOM      6  N   UNL     1       2.086   7.433  20.585  0.00  0.00    +0.000 NA
ATOM      7  C   UNL     1       2.314   7.733  19.334  0.00  0.00    +0.000 A 
ATOM      8  N   UNL     1       3.073   7.063  18.454  0.00  0.00    +0.000 N 
ATOM      9  N   UNL     1       1.562   8.829  18.943  0.00  0.00    +0.000 N 
ATOM     10  C   UNL     1       1.459   9.164  17.543  0.00  0.00    +0.000 C 
ATOM     11  C   UNL     1       0.861   9.328  20.047  0.00  0.00    +0.000 A 
ATOM     12  H   UNL     1       3.458   7.529  17.654  0.00  0.00    +0.000 HD
ENDROOT
BRANCH   8  13
ATOM     13  C   UNL     1       3.328   5.679  18.448  0.00  0.00    +0.000 A 
ATOM     14  C   UNL     1       2.337   4.742  18.024  0.00  0.00    +0.000 A 
ATOM     15  C   UNL     1       1.022   5.113  17.368  0.00  0.00    +0.000 C 
ATOM     16  C   UNL     1       2.558   3.366  18.177  0.00  0.00    +0.000 A 
ATOM     17  C   UNL     1       3.758   2.903  18.692  0.00  0.00    +0.000 A 
ATOM     18 CL   UNL     1       4.004   1.214  18.902  0.00  0.00    +0.000 Cl
ATOM     19  C   UNL     1       4.763   3.796  19.029  0.00  0.00    +0.000 A 
ATOM     20  C   UNL     1       4.573   5.181  18.912  0.00  0.00    +0.000 A 
BRANCH  20  21
ATOM     21  O   UNL     1       5.704   5.849  19.305  0.00  0.00    +0.000 OA
ATOM     22  C   UNL     1       7.005   5.308  19.193  0.00  0.00    +0.000 C 
ENDBRANCH  20  21
ENDBRANCH   8  13
BRANCH   1  23
ATOM     23  N   UNL     1      -0.517  11.524  19.556  0.00  0.00    +0.000 N 
BRANCH  23  27
ATOM     24  C   UNL     1       1.639  15.036  18.867  0.00  0.00    +0.000 A 
ATOM     25  C   UNL     1       2.162  13.847  18.388  0.00  0.00    +0.000 A 
ATOM     26  C   UNL     1       1.445  12.673  18.618  0.00  0.00    +0.000 A 
ATOM     27  C   UNL     1       0.218  12.706  19.294  0.00  0.00    +0.000 A 
ATOM     28  C   UNL     1      -0.226  13.973  19.677  0.00  0.00    +0.000 A 
ATOM     29  N   UNL     1       0.458  15.125  19.507  0.00  0.00    +0.000 NA
BRANCH  24  31
ATOM     30  C   UNL     1       3.757  15.994  18.988  0.00  0.00    +0.000 C 
ATOM     31  O   UNL     1       2.382  16.178  18.656  0.00  0.00    +0.000 OA
ENDBRANCH  24  31
ENDBRANCH  23  27
BRANCH  23  32
ATOM     32  C   UNL     1      -1.902  11.498  19.048  0.00  0.00    +0.000 C 
ATOM     33  C   UNL     1      -2.987  12.321  19.753  0.00  0.00    +0.000 C 
ATOM     34  C   UNL     1      -1.966  11.705  17.534  0.00  0.00    +0.000 C 
ENDBRANCH  23  32
ENDBRANCH   1  23
TORSDOF 6
ENDMDL
MODEL 6
REMARK VINA RESULT:      -6.5      1.631      2.305
REMARK  Name = 
REMARK  12 active torsions:
REMARK  status: ('A' for Active; 'I' for Inactive)
REMARK    1  A    between atoms: C_1  and  O_2
REMARK    2  A    between atoms: O_2  and  C_3
REMARK    3  A    between atoms: C_6  and  N_7
REMARK    4  A    between atoms: N_7  and  C_8
REMARK    5  A    between atoms: N_7  and  C_29
REMARK    6  A    between atoms: N_15  and  C_16
REMARK    7  A    between atoms: C_17  and  C_18
REMARK    8  A    between atoms: C_23  and  O_24
REMARK    9  A    between atoms: O_24  and  C_25
REMARK   10  A    between atoms: N_26  and  C_27
REMARK   11  A    between atoms: C_29  and  C_30
REMARK   12  A    between atoms: C_29  and  C_31
REMARK                            x       y       z     vdW  Elec       q    Type
REMARK                         _______ _______ _______ _____ _____    ______ ____
ROOT
ATOM      1  C   UNL     1      -0.103  10.378  20.394  0.00  0.00    +0.000 A 
ATOM      2  C   UNL     1      -0.293  10.438  21.822  0.00  0.00    +0.000 A 
ATOM      3  C   UNL     1       0.248   9.557  22.755  0.00  0.00    +0.000 A 
ATOM      4  C   UNL     1       1.097   8.565  22.322  0.00  0.00    +0.000 A 
ATOM      5  C   UNL     1       1.399   8.480  20.960  0.00  0.00    +0.000 A 
ATOM      6  N   UNL     1       2.262   7.574  20.421  0.00  0.00    +0.000 NA
ATOM      7  C   UNL     1       2.243   7.795  19.134  0.00  0.00    +0.000 A 
ATOM      8  N   UNL     1       2.889   7.115  18.174  0.00  0.00    +0.000 N 
ATOM      9  N   UNL     1       1.346   8.802  18.817  0.00  0.00    +0.000 N 
ATOM     10  C   UNL     1       0.975   9.024  17.441  0.00  0.00    +0.000 C 
ATOM     11  C   UNL     1       0.811   9.333  19.997  0.00  0.00    +0.000 A 
ATOM     12  H   UNL     1       3.089   7.546  17.291  0.00  0.00    +0.000 HD
ENDROOT
BRANCH   8  13
ATOM     13  C   UNL     1       3.253   5.756  18.207  0.00  0.00    +0.000 A 
ATOM     14  C   UNL     1       4.377   5.269  17.473  0.00  0.00    +0.000 A 
ATOM     15  C   UNL     1       5.389   6.144  16.763  0.00  0.00    +0.000 C 
ATOM     16  C   UNL     1       4.624   3.891  17.395  0.00  0.00    +0.000 A 
ATOM     17  C   UNL     1       3.811   2.996  18.072  0.00  0.00    +0.000 A 
ATOM     18 CL   UNL     1       4.108   1.306  17.943  0.00  0.00    +0.000 Cl
ATOM     19  C   UNL     1       2.766   3.458  18.857  0.00  0.00    +0.000 A 
ATOM     20  C   UNL     1       2.473   4.827  18.943  0.00  0.00    +0.000 A 
BRANCH  20  21
ATOM     21  O   UNL     1       1.403   5.031  19.775  0.00  0.00    +0.000 OA
ATOM     22  C   UNL     1       0.738   3.985  20.457  0.00  0.00    +0.000 C 
ENDBRANCH  20  21
ENDBRANCH   8  13
BRANCH   1  23
ATOM     23  N   UNL     1      -0.808  11.384  19.628  0.00  0.00    +0.000 N 
BRANCH  23  27
ATOM     24  C   UNL     1      -3.202  10.583  16.300  0.00  0.00    +0.000 A 
ATOM     25  C   UNL     1      -3.295   9.732  17.387  0.00  0.00    +0.000 A 
ATOM     26  C   UNL     1      -2.496   9.997  18.499  0.00  0.00    +0.000 A 
ATOM     27  C   UNL     1      -1.643  11.108  18.517  0.00  0.00    +0.000 A 
ATOM     28  C   UNL     1      -1.682  11.918  17.382  0.00  0.00    +0.000 A 
ATOM     29  N   UNL     1      -2.413  11.673  16.272  0.00  0.00    +0.000 NA
BRANCH  24  31
ATOM     30  C   UNL     1      -3.189  10.021  14.041  0.00  0.00    +0.000 C 
ATOM     31  O   UNL     1      -3.978  10.283  15.200  0.00  0.00    +0.000 OA
ENDBRANCH  24  31
ENDBRANCH  23  27
BRANCH  23  32
ATOM     32  C   UNL     1      -0.585  12.811  19.930  0.00  0.00    +0.000 C 
ATOM     33  C   UNL     1      -1.485  13.523  20.948  0.00  0.00    +0.000 C 
ATOM     34  C   UNL     1       0.888  13.122  20.201  0.00  0.00    +0.000 C 
ENDBRANCH  23  32
ENDBRANCH   1  23
TORSDOF 6
ENDMDL
MODEL 7
REMARK VINA RESULT:      -6.5      1.194      1.354
REMARK  Name = 
REMARK  12 active torsions:
REMARK  status: ('A' for Active; 'I' for Inactive)
REMARK    1  A    between atoms: C_1  and  O_2
REMARK    2  A    between atoms: O_2  and  C_3
REMARK    3  A    between atoms: C_6  and  N_7
REMARK    4  A    between atoms: N_7  and  C_8
REMARK    5  A    between atoms: N_7  and  C_29
REMARK    6  A    between atoms: N_15  and  C_16
REMARK    7  A    between atoms: C_17  and  C_18
REMARK    8  A    between atoms: C_23  and  O_24
REMARK    9  A    between atoms: O_24  and  C_25
REMARK   10  A    between atoms: N_26  and  C_27
REMARK   11  A    between atoms: C_29  and  C_30
REMARK   12  A    between atoms: C_29  and  C_31
REMARK                            x       y       z     vdW  Elec       q    Type
REMARK                         _______ _______ _______ _____ _____    ______ ____
ROOT
ATOM      1  C   UNL     1      -0.520  10.929  20.901  0.00  0.00    +0.000 A 
ATOM      2  C   UNL     1      -0.879  11.010  22.295  0.00  0.00    +0.000 A 
ATOM      3  C   UNL     1      -0.469  10.130  23.294  0.00  0.00    +0.000 A 
ATOM      4  C   UNL     1       0.407   9.118  22.976  0.00  0.00    +0.000 A 
ATOM      5  C   UNL     1       0.867   9.012  21.660  0.00  0.00    +0.000 A 
ATOM      6  N   UNL     1       1.771   8.085  21.236  0.00  0.00    +0.000 NA
ATOM      7  C   UNL     1       1.909   8.290  19.954  0.00  0.00    +0.000 A 
ATOM      8  N   UNL     1       2.652   7.588  19.085  0.00  0.00    +0.000 N 
ATOM      9  N   UNL     1       1.076   9.310  19.523  0.00  0.00    +0.000 N 
ATOM     10  C   UNL     1       0.875   9.521  18.111  0.00  0.00    +0.000 C 
ATOM     11  C   UNL     1       0.414   9.864  20.625  0.00  0.00    +0.000 A 
ATOM     12  H   UNL     1       2.964   8.005  18.229  0.00  0.00    +0.000 HD
ENDROOT
BRANCH   8  13
ATOM     13  C   UNL     1       2.984   6.223  19.175  0.00  0.00    +0.000 A 
ATOM     14  C   UNL     1       2.112   5.288  19.812  0.00  0.00    +0.000 A 
ATOM     15  C   UNL     1       0.701   5.595  20.270  0.00  0.00    +0.000 C 
ATOM     16  C   UNL     1       2.534   3.968  20.029  0.00  0.00    +0.000 A 
ATOM     17  C   UNL     1       3.776   3.548  19.581  0.00  0.00    +0.000 A 
ATOM     18 CL   UNL     1       4.292   1.935  19.881  0.00  0.00    +0.000 Cl
ATOM     19  C   UNL     1       4.599   4.421  18.886  0.00  0.00    +0.000 A 
ATOM     20  C   UNL     1       4.223   5.755  18.668  0.00  0.00    +0.000 A 
BRANCH  20  21
ATOM     21  O   UNL     1       5.197   6.412  17.963  0.00  0.00    +0.000 OA
ATOM     22  C   UNL     1       6.430   5.820  17.603  0.00  0.00    +0.000 C 
ENDBRANCH  20  21
ENDBRANCH   8  13
BRANCH   1  23
ATOM     23  N   UNL     1      -1.110  11.938  20.046  0.00  0.00    +0.000 N 
BRANCH  23  27
ATOM     24  C   UNL     1      -4.821  11.651  18.149  0.00  0.00    +0.000 A 
ATOM     25  C   UNL     1      -3.783  10.871  17.669  0.00  0.00    +0.000 A 
ATOM     26  C   UNL     1      -2.543  10.965  18.301  0.00  0.00    +0.000 A 
ATOM     27  C   UNL     1      -2.366  11.812  19.403  0.00  0.00    +0.000 A 
ATOM     28  C   UNL     1      -3.503  12.503  19.822  0.00  0.00    +0.000 A 
ATOM     29  N   UNL     1      -4.708  12.467  19.214  0.00  0.00    +0.000 NA
BRANCH  24  31
ATOM     30  C   UNL     1      -7.108  11.283  18.378  0.00  0.00    +0.000 C 
ATOM     31  O   UNL     1      -6.028  11.564  17.489  0.00  0.00    +0.000 OA
ENDBRANCH  24  31
ENDBRANCH  23  27
BRANCH  23  32
ATOM     32  C   UNL     1      -0.336  13.150  19.718  0.00  0.00    +0.000 C 
ATOM     33  C   UNL     1       0.787  13.613  20.654  0.00  0.00    +0.000 C 
ATOM     34  C   UNL     1       0.137  13.158  18.263  0.00  0.00    +0.000 C 
ENDBRANCH  23  32
ENDBRANCH   1  23
TORSDOF 6
ENDMDL
MODEL 8
REMARK VINA RESULT:      -6.5      2.245      4.018
REMARK  Name = 
REMARK  12 active torsions:
REMARK  status: ('A' for Active; 'I' for Inactive)
REMARK    1  A    between atoms: C_1  and  O_2
REMARK    2  A    between atoms: O_2  and  C_3
REMARK    3  A    between atoms: C_6  and  N_7
REMARK    4  A    between atoms: N_7  and  C_8
REMARK    5  A    between atoms: N_7  and  C_29
REMARK    6  A    between atoms: N_15  and  C_16
REMARK    7  A    between atoms: C_17  and  C_18
REMARK    8  A    between atoms: C_23  and  O_24
REMARK    9  A    between atoms: O_24  and  C_25
REMARK   10  A    between atoms: N_26  and  C_27
REMARK   11  A    between atoms: C_29  and  C_30
REMARK   12  A    between atoms: C_29  and  C_31
REMARK                            x       y       z     vdW  Elec       q    Type
REMARK                         _______ _______ _______ _____ _____    ______ ____
ROOT
ATOM      1  C   UNL     1       0.092  10.442  19.976  0.00  0.00    +0.000 A 
ATOM      2  C   UNL     1      -0.441  10.505  21.314  0.00  0.00    +0.000 A 
ATOM      3  C   UNL     1      -0.219   9.571  22.324  0.00  0.00    +0.000 A 
ATOM      4  C   UNL     1       0.628   8.515  22.083  0.00  0.00    +0.000 A 
ATOM      5  C   UNL     1       1.250   8.418  20.835  0.00  0.00    +0.000 A 
ATOM      6  N   UNL     1       2.144   7.448  20.497  0.00  0.00    +0.000 NA
ATOM      7  C   UNL     1       2.462   7.682  19.252  0.00  0.00    +0.000 A 
ATOM      8  N   UNL     1       3.269   6.960  18.460  0.00  0.00    +0.000 N 
ATOM      9  N   UNL     1       1.755   8.766  18.756  0.00  0.00    +0.000 N 
ATOM     10  C   UNL     1       1.754   9.032  17.338  0.00  0.00    +0.000 C 
ATOM     11  C   UNL     1       0.989   9.328  19.783  0.00  0.00    +0.000 A 
ATOM     12  H   UNL     1       3.715   7.381  17.667  0.00  0.00    +0.000 HD
ENDROOT
BRANCH   8  13
ATOM     13  C   UNL     1       3.503   5.574  18.539  0.00  0.00    +0.000 A 
ATOM     14  C   UNL     1       4.772   5.014  18.198  0.00  0.00    +0.000 A 
ATOM     15  C   UNL     1       6.024   5.819  17.914  0.00  0.00    +0.000 C 
ATOM     16  C   UNL     1       4.932   3.623  18.133  0.00  0.00    +0.000 A 
ATOM     17  C   UNL     1       3.878   2.781  18.450  0.00  0.00    +0.000 A 
ATOM     18 CL   UNL     1       4.080   1.077  18.337  0.00  0.00    +0.000 Cl
ATOM     19  C   UNL     1       2.665   3.309  18.865  0.00  0.00    +0.000 A 
ATOM     20  C   UNL     1       2.457   4.695  18.922  0.00  0.00    +0.000 A 
BRANCH  20  21
ATOM     21  O   UNL     1       1.187   4.966  19.359  0.00  0.00    +0.000 OA
ATOM     22  C   UNL     1       0.561   4.263  20.413  0.00  0.00    +0.000 C 
ENDBRANCH  20  21
ENDBRANCH   8  13
BRANCH   1  23
ATOM     23  N   UNL     1      -0.318  11.513  19.092  0.00  0.00    +0.000 N 
BRANCH  23  27
ATOM     24  C   UNL     1       1.638  15.185  18.717  0.00  0.00    +0.000 A 
ATOM     25  C   UNL     1       0.334  15.188  19.180  0.00  0.00    +0.000 A 
ATOM     26  C   UNL     1      -0.322  13.963  19.306  0.00  0.00    +0.000 A 
ATOM     27  C   UNL     1       0.335  12.766  18.991  0.00  0.00    +0.000 A 
ATOM     28  C   UNL     1       1.665  12.895  18.588  0.00  0.00    +0.000 A 
ATOM     29  N   UNL     1       2.320  14.064  18.418  0.00  0.00    +0.000 NA
BRANCH  24  31
ATOM     30  C   UNL     1       3.236  16.398  17.535  0.00  0.00    +0.000 C 
ATOM     31  O   UNL     1       2.254  16.410  18.571  0.00  0.00    +0.000 OA
ENDBRANCH  24  31
ENDBRANCH  23  27
BRANCH  23  32
ATOM     32  C   UNL     1      -1.555  11.365  18.301  0.00  0.00    +0.000 C 
ATOM     33  C   UNL     1      -1.818  10.061  17.537  0.00  0.00    +0.000 C 
ATOM     34  C   UNL     1      -2.797  11.790  19.085  0.00  0.00    +0.000 C 
ENDBRANCH  23  32
ENDBRANCH   1  23
TORSDOF 6
ENDMDL
MODEL 9
REMARK VINA RESULT:      -6.3      1.309      1.560
REMARK  Name = 
REMARK  12 active torsions:
REMARK  status: ('A' for Active; 'I' for Inactive)
REMARK    1  A    between atoms: C_1  and  O_2
REMARK    2  A    between atoms: O_2  and  C_3
REMARK    3  A    between atoms: C_6  and  N_7
REMARK    4  A    between atoms: N_7  and  C_8
REMARK    5  A    between atoms: N_7  and  C_29
REMARK    6  A    between atoms: N_15  and  C_16
REMARK    7  A    between atoms: C_17  and  C_18
REMARK    8  A    between atoms: C_23  and  O_24
REMARK    9  A    between atoms: O_24  and  C_25
REMARK   10  A    between atoms: N_26  and  C_27
REMARK   11  A    between atoms: C_29  and  C_30
REMARK   12  A    between atoms: C_29  and  C_31
REMARK                            x       y       z     vdW  Elec       q    Type
REMARK                         _______ _______ _______ _____ _____    ______ ____
ROOT
ATOM      1  C   UNL     1      -0.366  10.810  20.828  0.00  0.00    +0.000 A 
ATOM      2  C   UNL     1      -0.764  10.901  22.210  0.00  0.00    +0.000 A 
ATOM      3  C   UNL     1      -0.398  10.018  23.224  0.00  0.00    +0.000 A 
ATOM      4  C   UNL     1       0.469   8.991  22.934  0.00  0.00    +0.000 A 
ATOM      5  C   UNL     1       0.966   8.873  21.633  0.00  0.00    +0.000 A 
ATOM      6  N   UNL     1       1.866   7.929  21.238  0.00  0.00    +0.000 NA
ATOM      7  C   UNL     1       2.045   8.128  19.960  0.00  0.00    +0.000 A 
ATOM      8  N   UNL     1       2.802   7.411  19.114  0.00  0.00    +0.000 N 
ATOM      9  N   UNL     1       1.243   9.160  19.502  0.00  0.00    +0.000 N 
ATOM     10  C   UNL     1       1.086   9.371  18.083  0.00  0.00    +0.000 C 
ATOM     11  C   UNL     1       0.558   9.729  20.583  0.00  0.00    +0.000 A 
ATOM     12  H   UNL     1       3.146   7.820  18.267  0.00  0.00    +0.000 HD
ENDROOT
BRANCH   8  13
ATOM     13  C   UNL     1       3.108   6.041  19.218  0.00  0.00    +0.000 A 
ATOM     14  C   UNL     1       2.201   5.122  19.830  0.00  0.00    +0.000 A 
ATOM     15  C   UNL     1       0.782   5.454  20.243  0.00  0.00    +0.000 C 
ATOM     16  C   UNL     1       2.594   3.797  20.063  0.00  0.00    +0.000 A 
ATOM     17  C   UNL     1       3.842   3.355  19.654  0.00  0.00    +0.000 A 
ATOM     18 CL   UNL     1       4.322   1.734  19.973  0.00  0.00    +0.000 Cl
ATOM     19  C   UNL     1       4.701   4.212  18.983  0.00  0.00    +0.000 A 
ATOM     20  C   UNL     1       4.354   5.551  18.751  0.00  0.00    +0.000 A 
BRANCH  20  21
ATOM     21  O   UNL     1       5.361   6.190  18.075  0.00  0.00    +0.000 OA
ATOM     22  C   UNL     1       5.219   6.690  16.760  0.00  0.00    +0.000 C 
ENDBRANCH  20  21
ENDBRANCH   8  13
BRANCH   1  23
ATOM     23  N   UNL     1      -0.914  11.827  19.953  0.00  0.00    +0.000 N 
BRANCH  23  27
ATOM     24  C   UNL     1      -4.884  11.857  18.653  0.00  0.00    +0.000 A 
ATOM     25  C   UNL     1      -4.540  12.680  19.711  0.00  0.00    +0.000 A 
ATOM     26  C   UNL     1      -3.215  12.672  20.147  0.00  0.00    +0.000 A 
ATOM     27  C   UNL     1      -2.259  11.867  19.513  0.00  0.00    +0.000 A 
ATOM     28  C   UNL     1      -2.721  11.125  18.425  0.00  0.00    +0.000 A 
ATOM     29  N   UNL     1      -4.002  11.079  17.998  0.00  0.00    +0.000 NA
BRANCH  24  31
ATOM     30  C   UNL     1      -6.877  10.655  18.626  0.00  0.00    +0.000 C 
ATOM     31  O   UNL     1      -6.205  11.859  18.260  0.00  0.00    +0.000 OA
ENDBRANCH  24  31
ENDBRANCH  23  27
BRANCH  23  32
ATOM     32  C   UNL     1      -0.016  12.848  19.380  0.00  0.00    +0.000 C 
ATOM     33  C   UNL     1      -0.411  13.569  18.086  0.00  0.00    +0.000 C 
ATOM     34  C   UNL     1       0.465  13.850  20.431  0.00  0.00    +0.000 C 
ENDBRANCH  23  32
ENDBRANCH   1  23
TORSDOF 6
ENDMDL
