MODEL 1
REMARK VINA RESULT:      -9.6      0.000      0.000
REMARK  Name = 
REMARK  6 active torsions:
REMARK  status: ('A' for Active; 'I' for Inactive)
REMARK    1  A    between atoms: C_2  and  C_5
REMARK    2  A    between atoms: C_8  and  C_9
REMARK    3  A    between atoms: C_13  and  C_14
REMARK    4  A    between atoms: C_14  and  C_15
REMARK    5  A    between atoms: C_15  and  C_16
REMARK    6  A    between atoms: C_19  and  C_20
REMARK                            x       y       z     vdW  Elec       q    Type
REMARK                         _______ _______ _______ _____ _____    ______ ____
ROOT
ATOM      1  C   UNL     1       7.703   5.676  18.786  0.00  0.00    +0.000 C 
ENDROOT
BRANCH   1   2
ATOM      2  C   UNL     1       7.837   7.066  18.275  0.00  0.00    +0.000 A 
ATOM      3  N   UNL     1       7.272   7.611  17.223  0.00  0.00    +0.000 NA
ATOM      4  N   UNL     1       7.657   8.927  17.211  0.00  0.00    +0.000 NA
ATOM      5  C   UNL     1       8.438   9.114  18.262  0.00  0.00    +0.000 A 
ATOM      6  O   UNL     1       8.601   7.961  18.996  0.00  0.00    +0.000 OA
BRANCH   5   7
ATOM      7  C   UNL     1       9.107  10.342  18.679  0.00  0.00    +0.000 A 
ATOM      8  C   UNL     1       9.538  10.428  20.021  0.00  0.00    +0.000 A 
ATOM      9  C   UNL     1      10.121  11.582  20.559  0.00  0.00    +0.000 A 
ATOM     10  C   UNL     1      10.253  12.660  19.692  0.00  0.00    +0.000 A 
ATOM     11  N   UNL     1      10.726  13.935  19.882  0.00  0.00    +0.000 N 
ATOM     12  C   UNL     1      10.625  14.599  18.693  0.00  0.00    +0.000 A 
ATOM     13  N   UNL     1      10.127  13.830  17.748  0.00  0.00    +0.000 NA
ATOM     14  C   UNL     1       9.875  12.622  18.356  0.00  0.00    +0.000 A 
ATOM     15  C   UNL     1       9.304  11.446  17.828  0.00  0.00    +0.000 A 
ATOM     16  H   UNL     1      11.063  14.321  20.753  0.00  0.00    +0.000 HD
ENDBRANCH   5   7
ENDBRANCH   1   2
BRANCH   1  17
ATOM     17  C   UNL     1       7.371   4.683  17.659  0.00  0.00    +0.000 C 
BRANCH  17  22
ATOM     18  C   UNL     1       3.904   3.566  18.858  0.00  0.00    +0.000 A 
ATOM     19  C   UNL     1       3.194   3.504  17.656  0.00  0.00    +0.000 A 
ATOM     20  C   UNL     1       3.815   3.835  16.452  0.00  0.00    +0.000 A 
ATOM     21  C   UNL     1       5.165   4.234  16.410  0.00  0.00    +0.000 A 
ATOM     22  C   UNL     1       5.901   4.292  17.617  0.00  0.00    +0.000 A 
ATOM     23  C   UNL     1       5.253   3.964  18.827  0.00  0.00    +0.000 A 
BRANCH  18  25
ATOM     24  F   UNL     1       3.989   2.387  20.952  0.00  0.00    +0.000 F 
ATOM     25  C   UNL     1       3.236   3.206  20.165  0.00  0.00    +0.000 C 
ATOM     26  F   UNL     1       2.049   2.563  19.989  0.00  0.00    +0.000 F 
ATOM     27  F   UNL     1       2.962   4.301  20.927  0.00  0.00    +0.000 F 
ENDBRANCH  18  25
BRANCH  21  28
ATOM     28  C   UNL     1       5.767   4.604  15.068  0.00  0.00    +0.000 C 
ATOM     29  F   UNL     1       5.945   5.945  14.905  0.00  0.00    +0.000 F 
ATOM     30  F   UNL     1       6.991   4.045  14.869  0.00  0.00    +0.000 F 
ATOM     31  F   UNL     1       4.993   4.207  14.021  0.00  0.00    +0.000 F 
ENDBRANCH  21  28
ENDBRANCH  17  22
ENDBRANCH   1  17
TORSDOF 6
ENDMDL
MODEL 2
REMARK VINA RESULT:      -9.4      7.113      9.302
REMARK  Name = 
REMARK  6 active torsions:
REMARK  status: ('A' for Active; 'I' for Inactive)
REMARK    1  A    between atoms: C_2  and  C_5
REMARK    2  A    between atoms: C_8  and  C_9
REMARK    3  A    between atoms: C_13  and  C_14
REMARK    4  A    between atoms: C_14  and  C_15
REMARK    5  A    between atoms: C_15  and  C_16
REMARK    6  A    between atoms: C_19  and  C_20
REMARK                            x       y       z     vdW  Elec       q    Type
REMARK                         _______ _______ _______ _____ _____    ______ ____
ROOT
ATOM      1  C   UNL     1       2.500   8.566  17.807  0.00  0.00    +0.000 C 
ENDROOT
BRANCH   1   2
ATOM      2  C   UNL     1       1.429   9.506  18.230  0.00  0.00    +0.000 A 
ATOM      3  N   UNL     1       1.502  10.503  19.082  0.00  0.00    +0.000 NA
ATOM      4  N   UNL     1       0.271  11.106  19.084  0.00  0.00    +0.000 NA
ATOM      5  C   UNL     1      -0.489  10.442  18.228  0.00  0.00    +0.000 A 
ATOM      6  O   UNL     1       0.187   9.398  17.639  0.00  0.00    +0.000 OA
BRANCH   5   7
ATOM      7  C   UNL     1      -1.886  10.689  17.885  0.00  0.00    +0.000 A 
ATOM      8  C   UNL     1      -2.349  10.205  16.642  0.00  0.00    +0.000 A 
ATOM      9  C   UNL     1      -3.644  10.446  16.168  0.00  0.00    +0.000 A 
ATOM     10  C   UNL     1      -4.466  11.205  16.994  0.00  0.00    +0.000 A 
ATOM     11  N   UNL     1      -5.749  11.666  16.836  0.00  0.00    +0.000 N 
ATOM     12  C   UNL     1      -6.078  12.377  17.954  0.00  0.00    +0.000 A 
ATOM     13  N   UNL     1      -5.092  12.395  18.826  0.00  0.00    +0.000 NA
ATOM     14  C   UNL     1      -4.073  11.682  18.239  0.00  0.00    +0.000 A 
ATOM     15  C   UNL     1      -2.770  11.415  18.706  0.00  0.00    +0.000 A 
ATOM     16  H   UNL     1      -6.336  11.526  16.025  0.00  0.00    +0.000 HD
ENDBRANCH   5   7
ENDBRANCH   1   2
BRANCH   1  17
ATOM     17  C   UNL     1       2.179   7.116  18.209  0.00  0.00    +0.000 C 
BRANCH  17  22
ATOM     18  C   UNL     1       5.704   5.816  17.438  0.00  0.00    +0.000 A 
ATOM     19  C   UNL     1       5.475   4.445  17.294  0.00  0.00    +0.000 A 
ATOM     20  C   UNL     1       4.192   3.922  17.458  0.00  0.00    +0.000 A 
ATOM     21  C   UNL     1       3.097   4.752  17.767  0.00  0.00    +0.000 A 
ATOM     22  C   UNL     1       3.309   6.144  17.906  0.00  0.00    +0.000 A 
ATOM     23  C   UNL     1       4.616   6.654  17.747  0.00  0.00    +0.000 A 
BRANCH  18  25
ATOM     24  F   UNL     1       7.662   6.062  16.065  0.00  0.00    +0.000 F 
ATOM     25  C   UNL     1       7.090   6.388  17.258  0.00  0.00    +0.000 C 
ATOM     26  F   UNL     1       7.962   5.964  18.215  0.00  0.00    +0.000 F 
ATOM     27  F   UNL     1       7.102   7.749  17.315  0.00  0.00    +0.000 F 
ENDBRANCH  18  25
BRANCH  21  28
ATOM     28  C   UNL     1       1.737   4.110  17.957  0.00  0.00    +0.000 C 
ATOM     29  F   UNL     1       1.227   4.280  19.210  0.00  0.00    +0.000 F 
ATOM     30  F   UNL     1       0.798   4.609  17.109  0.00  0.00    +0.000 F 
ATOM     31  F   UNL     1       1.759   2.765  17.750  0.00  0.00    +0.000 F 
ENDBRANCH  21  28
ENDBRANCH  17  22
ENDBRANCH   1  17
TORSDOF 6
ENDMDL
MODEL 3
REMARK VINA RESULT:      -9.4      6.694      8.218
REMARK  Name = 
REMARK  6 active torsions:
REMARK  status: ('A' for Active; 'I' for Inactive)
REMARK    1  A    between atoms: C_2  and  C_5
REMARK    2  A    between atoms: C_8  and  C_9
REMARK    3  A    between atoms: C_13  and  C_14
REMARK    4  A    between atoms: C_14  and  C_15
REMARK    5  A    between atoms: C_15  and  C_16
REMARK    6  A    between atoms: C_19  and  C_20
REMARK                            x       y       z     vdW  Elec       q    Type
REMARK                         _______ _______ _______ _____ _____    ______ ____
ROOT
ATOM      1  C   UNL     1       2.816   8.114  17.503  0.00  0.00    +0.000 C 
ENDROOT
BRANCH   1   2
ATOM      2  C   UNL     1       1.764   8.700  18.376  0.00  0.00    +0.000 A 
ATOM      3  N   UNL     1       1.704   8.721  19.687  0.00  0.00    +0.000 NA
ATOM      4  N   UNL     1       0.577   9.429  20.016  0.00  0.00    +0.000 NA
ATOM      5  C   UNL     1       0.010   9.806  18.881  0.00  0.00    +0.000 A 
ATOM      6  O   UNL     1       0.716   9.374  17.782  0.00  0.00    +0.000 OA
BRANCH   5   7
ATOM      7  C   UNL     1      -1.218  10.574  18.701  0.00  0.00    +0.000 A 
ATOM      8  C   UNL     1      -1.550  11.518  19.697  0.00  0.00    +0.000 A 
ATOM      9  C   UNL     1      -2.739  12.259  19.675  0.00  0.00    +0.000 A 
ATOM     10  C   UNL     1      -3.594  12.010  18.608  0.00  0.00    +0.000 A 
ATOM     11  N   UNL     1      -4.835  12.505  18.294  0.00  0.00    +0.000 N 
ATOM     12  C   UNL     1      -5.237  11.915  17.130  0.00  0.00    +0.000 A 
ATOM     13  N   UNL     1      -4.330  11.081  16.669  0.00  0.00    +0.000 NA
ATOM     14  C   UNL     1      -3.304  11.115  17.584  0.00  0.00    +0.000 A 
ATOM     15  C   UNL     1      -2.095  10.391  17.615  0.00  0.00    +0.000 A 
ATOM     16  H   UNL     1      -5.367  13.167  18.842  0.00  0.00    +0.000 HD
ENDBRANCH   5   7
ENDBRANCH   1   2
BRANCH   1  17
ATOM     17  C   UNL     1       3.747   7.172  18.286  0.00  0.00    +0.000 C 
BRANCH  17  22
ATOM     18  C   UNL     1       2.194   3.674  18.548  0.00  0.00    +0.000 A 
ATOM     19  C   UNL     1       2.941   2.961  17.607  0.00  0.00    +0.000 A 
ATOM     20  C   UNL     1       3.938   3.598  16.867  0.00  0.00    +0.000 A 
ATOM     21  C   UNL     1       4.223   4.965  17.048  0.00  0.00    +0.000 A 
ATOM     22  C   UNL     1       3.484   5.699  18.005  0.00  0.00    +0.000 A 
ATOM     23  C   UNL     1       2.472   5.041  18.737  0.00  0.00    +0.000 A 
BRANCH  18  25
ATOM     24  F   UNL     1       0.372   3.848  20.108  0.00  0.00    +0.000 F 
ATOM     25  C   UNL     1       1.115   2.989  19.354  0.00  0.00    +0.000 C 
ATOM     26  F   UNL     1       1.614   2.068  20.224  0.00  0.00    +0.000 F 
ATOM     27  F   UNL     1       0.225   2.322  18.568  0.00  0.00    +0.000 F 
ENDBRANCH  18  25
BRANCH  21  28
ATOM     28  C   UNL     1       5.302   5.596  16.191  0.00  0.00    +0.000 C 
ATOM     29  F   UNL     1       4.853   6.635  15.431  0.00  0.00    +0.000 F 
ATOM     30  F   UNL     1       6.331   6.098  16.926  0.00  0.00    +0.000 F 
ATOM     31  F   UNL     1       5.857   4.714  15.315  0.00  0.00    +0.000 F 
ENDBRANCH  21  28
ENDBRANCH  17  22
ENDBRANCH   1  17
TORSDOF 6
ENDMDL
MODEL 4
REMARK VINA RESULT:      -9.3      6.972      8.780
REMARK  Name = 
REMARK  6 active torsions:
REMARK  status: ('A' for Active; 'I' for Inactive)
REMARK    1  A    between atoms: C_2  and  C_5
REMARK    2  A    between atoms: C_8  and  C_9
REMARK    3  A    between atoms: C_13  and  C_14
REMARK    4  A    between atoms: C_14  and  C_15
REMARK    5  A    between atoms: C_15  and  C_16
REMARK    6  A    between atoms: C_19  and  C_20
REMARK                            x       y       z     vdW  Elec       q    Type
REMARK                         _______ _______ _______ _____ _____    ______ ____
ROOT
ATOM      1  C   UNL     1       2.497   8.334  17.453  0.00  0.00    +0.000 C 
ENDROOT
BRANCH   1   2
ATOM      2  C   UNL     1       1.399   9.133  18.058  0.00  0.00    +0.000 A 
ATOM      3  N   UNL     1       1.404   9.819  19.178  0.00  0.00    +0.000 NA
ATOM      4  N   UNL     1       0.180  10.430  19.267  0.00  0.00    +0.000 NA
ATOM      5  C   UNL     1      -0.507  10.084  18.191  0.00  0.00    +0.000 A 
ATOM      6  O   UNL     1       0.211   9.250  17.365  0.00  0.00    +0.000 OA
BRANCH   5   7
ATOM      7  C   UNL     1      -1.868  10.469  17.831  0.00  0.00    +0.000 A 
ATOM      8  C   UNL     1      -2.320  10.134  16.535  0.00  0.00    +0.000 A 
ATOM      9  C   UNL     1      -3.576  10.516  16.047  0.00  0.00    +0.000 A 
ATOM     10  C   UNL     1      -4.368  11.260  16.913  0.00  0.00    +0.000 A 
ATOM     11  N   UNL     1      -5.607  11.831  16.760  0.00  0.00    +0.000 N 
ATOM     12  C   UNL     1      -5.923  12.463  17.928  0.00  0.00    +0.000 A 
ATOM     13  N   UNL     1      -4.971  12.326  18.827  0.00  0.00    +0.000 NA
ATOM     14  C   UNL     1      -3.987  11.592  18.208  0.00  0.00    +0.000 A 
ATOM     15  C   UNL     1      -2.725  11.184  18.688  0.00  0.00    +0.000 A 
ATOM     16  H   UNL     1      -6.172  11.809  15.922  0.00  0.00    +0.000 HD
ENDBRANCH   5   7
ENDBRANCH   1   2
BRANCH   1  17
ATOM     17  C   UNL     1       3.216   7.466  18.501  0.00  0.00    +0.000 C 
BRANCH  17  22
ATOM     18  C   UNL     1       2.165   3.779  18.565  0.00  0.00    +0.000 A 
ATOM     19  C   UNL     1       3.079   3.208  17.675  0.00  0.00    +0.000 A 
ATOM     20  C   UNL     1       4.030   4.002  17.034  0.00  0.00    +0.000 A 
ATOM     21  C   UNL     1       4.101   5.389  17.265  0.00  0.00    +0.000 A 
ATOM     22  C   UNL     1       3.190   5.981  18.171  0.00  0.00    +0.000 A 
ATOM     23  C   UNL     1       2.227   5.164  18.803  0.00  0.00    +0.000 A 
BRANCH  18  25
ATOM     24  F   UNL     1       0.359   3.617  20.145  0.00  0.00    +0.000 F 
ATOM     25  C   UNL     1       1.134   2.923  19.264  0.00  0.00    +0.000 C 
ATOM     26  F   UNL     1       1.692   1.909  19.981  0.00  0.00    +0.000 F 
ATOM     27  F   UNL     1       0.269   2.336  18.392  0.00  0.00    +0.000 F 
ENDBRANCH  18  25
BRANCH  21  28
ATOM     28  C   UNL     1       5.143   6.193  16.513  0.00  0.00    +0.000 C 
ATOM     29  F   UNL     1       6.068   5.421  15.875  0.00  0.00    +0.000 F 
ATOM     30  F   UNL     1       4.601   6.986  15.550  0.00  0.00    +0.000 F 
ATOM     31  F   UNL     1       5.854   7.019  17.328  0.00  0.00    +0.000 F 
ENDBRANCH  21  28
ENDBRANCH  17  22
ENDBRANCH   1  17
TORSDOF 6
ENDMDL
MODEL 5
REMARK VINA RESULT:      -9.3      0.702      1.377
REMARK  Name = 
REMARK  6 active torsions:
REMARK  status: ('A' for Active; 'I' for Inactive)
REMARK    1  A    between atoms: C_2  and  C_5
REMARK    2  A    between atoms: C_8  and  C_9
REMARK    3  A    between atoms: C_13  and  C_14
REMARK    4  A    between atoms: C_14  and  C_15
REMARK    5  A    between atoms: C_15  and  C_16
REMARK    6  A    between atoms: C_19  and  C_20
REMARK                            x       y       z     vdW  Elec       q    Type
REMARK                         _______ _______ _______ _____ _____    ______ ____
ROOT
ATOM      1  C   UNL     1       7.697   5.610  18.734  0.00  0.00    +0.000 C 
ENDROOT
BRANCH   1   2
ATOM      2  C   UNL     1       7.696   6.993  18.190  0.00  0.00    +0.000 A 
ATOM      3  N   UNL     1       6.951   7.498  17.233  0.00  0.00    +0.000 NA
ATOM      4  N   UNL     1       7.279   8.826  17.141  0.00  0.00    +0.000 NA
ATOM      5  C   UNL     1       8.209   9.060  18.052  0.00  0.00    +0.000 A 
ATOM      6  O   UNL     1       8.530   7.929  18.767  0.00  0.00    +0.000 OA
BRANCH   5   7
ATOM      7  C   UNL     1       8.889  10.320  18.341  0.00  0.00    +0.000 A 
ATOM      8  C   UNL     1       8.435  11.476  17.669  0.00  0.00    +0.000 A 
ATOM      9  C   UNL     1       9.054  12.724  17.803  0.00  0.00    +0.000 A 
ATOM     10  C   UNL     1      10.162  12.770  18.642  0.00  0.00    +0.000 A 
ATOM     11  N   UNL     1      11.023  13.787  18.967  0.00  0.00    +0.000 N 
ATOM     12  C   UNL     1      11.952  13.287  19.834  0.00  0.00    +0.000 A 
ATOM     13  N   UNL     1      11.737  12.016  20.096  0.00  0.00    +0.000 NA
ATOM     14  C   UNL     1      10.634  11.671  19.350  0.00  0.00    +0.000 A 
ATOM     15  C   UNL     1       9.987  10.426  19.215  0.00  0.00    +0.000 A 
ATOM     16  H   UNL     1      10.991  14.732  18.607  0.00  0.00    +0.000 HD
ENDBRANCH   5   7
ENDBRANCH   1   2
BRANCH   1  17
ATOM     17  C   UNL     1       7.308   4.575  17.664  0.00  0.00    +0.000 C 
BRANCH  17  22
ATOM     18  C   UNL     1       3.758   3.768  18.872  0.00  0.00    +0.000 A 
ATOM     19  C   UNL     1       3.057   3.696  17.664  0.00  0.00    +0.000 A 
ATOM     20  C   UNL     1       3.712   3.922  16.454  0.00  0.00    +0.000 A 
ATOM     21  C   UNL     1       5.087   4.221  16.410  0.00  0.00    +0.000 A 
ATOM     22  C   UNL     1       5.814   4.287  17.622  0.00  0.00    +0.000 A 
ATOM     23  C   UNL     1       5.133   4.066  18.839  0.00  0.00    +0.000 A 
BRANCH  18  25
ATOM     24  F   UNL     1       3.669   2.588  20.965  0.00  0.00    +0.000 F 
ATOM     25  C   UNL     1       3.054   3.521  20.186  0.00  0.00    +0.000 C 
ATOM     26  F   UNL     1       1.775   3.084  20.023  0.00  0.00    +0.000 F 
ATOM     27  F   UNL     1       2.974   4.646  20.950  0.00  0.00    +0.000 F 
ENDBRANCH  18  25
BRANCH  21  28
ATOM     28  C   UNL     1       5.727   4.480  15.060  0.00  0.00    +0.000 C 
ATOM     29  F   UNL     1       4.917   4.173  14.008  0.00  0.00    +0.000 F 
ATOM     30  F   UNL     1       6.076   5.783  14.886  0.00  0.00    +0.000 F 
ATOM     31  F   UNL     1       6.864   3.755  14.872  0.00  0.00    +0.000 F 
ENDBRANCH  21  28
ENDBRANCH  17  22
ENDBRANCH   1  17
TORSDOF 6
ENDMDL
MODEL 6
REMARK VINA RESULT:      -9.2      6.805      7.824
REMARK  Name = 
REMARK  6 active torsions:
REMARK  status: ('A' for Active; 'I' for Inactive)
REMARK    1  A    between atoms: C_2  and  C_5
REMARK    2  A    between atoms: C_8  and  C_9
REMARK    3  A    between atoms: C_13  and  C_14
REMARK    4  A    between atoms: C_14  and  C_15
REMARK    5  A    between atoms: C_15  and  C_16
REMARK    6  A    between atoms: C_19  and  C_20
REMARK                            x       y       z     vdW  Elec       q    Type
REMARK                         _______ _______ _______ _____ _____    ______ ____
ROOT
ATOM      1  C   UNL     1       1.869   8.293  17.606  0.00  0.00    +0.000 C 
ENDROOT
BRANCH   1   2
ATOM      2  C   UNL     1       1.553   9.529  18.371  0.00  0.00    +0.000 A 
ATOM      3  N   UNL     1       2.054  10.734  18.226  0.00  0.00    +0.000 NA
ATOM      4  N   UNL     1       1.398  11.540  19.120  0.00  0.00    +0.000 NA
ATOM      5  C   UNL     1       0.527  10.779  19.763  0.00  0.00    +0.000 A 
ATOM      6  O   UNL     1       0.568   9.472  19.336  0.00  0.00    +0.000 OA
BRANCH   5   7
ATOM      7  C   UNL     1      -0.400  11.170  20.821  0.00  0.00    +0.000 A 
ATOM      8  C   UNL     1      -0.267  10.534  22.074  0.00  0.00    +0.000 A 
ATOM      9  C   UNL     1      -1.143  10.767  23.141  0.00  0.00    +0.000 A 
ATOM     10  C   UNL     1      -2.174  11.667  22.899  0.00  0.00    +0.000 A 
ATOM     11  N   UNL     1      -3.221  12.092  23.679  0.00  0.00    +0.000 N 
ATOM     12  C   UNL     1      -3.951  12.984  22.947  0.00  0.00    +0.000 A 
ATOM     13  N   UNL     1      -3.436  13.167  21.750  0.00  0.00    +0.000 NA
ATOM     14  C   UNL     1      -2.336  12.344  21.696  0.00  0.00    +0.000 A 
ATOM     15  C   UNL     1      -1.433  12.109  20.639  0.00  0.00    +0.000 A 
ATOM     16  H   UNL     1      -3.428  11.780  24.617  0.00  0.00    +0.000 HD
ENDBRANCH   5   7
ENDBRANCH   1   2
BRANCH   1  17
ATOM     17  C   UNL     1       3.205   7.673  18.051  0.00  0.00    +0.000 C 
BRANCH  17  22
ATOM     18  C   UNL     1       2.287   3.979  18.513  0.00  0.00    +0.000 A 
ATOM     19  C   UNL     1       3.254   3.345  17.727  0.00  0.00    +0.000 A 
ATOM     20  C   UNL     1       4.198   4.097  17.029  0.00  0.00    +0.000 A 
ATOM     21  C   UNL     1       4.211   5.504  17.097  0.00  0.00    +0.000 A 
ATOM     22  C   UNL     1       3.246   6.160  17.897  0.00  0.00    +0.000 A 
ATOM     23  C   UNL     1       2.290   5.384  18.588  0.00  0.00    +0.000 A 
BRANCH  18  25
ATOM     24  F   UNL     1       1.808   2.174  20.029  0.00  0.00    +0.000 F 
ATOM     25  C   UNL     1       1.263   3.169  19.274  0.00  0.00    +0.000 C 
ATOM     26  F   UNL     1       0.360   2.561  18.456  0.00  0.00    +0.000 F 
ATOM     27  F   UNL     1       0.536   3.932  20.137  0.00  0.00    +0.000 F 
ENDBRANCH  18  25
BRANCH  21  28
ATOM     28  C   UNL     1       5.251   6.256  16.290  0.00  0.00    +0.000 C 
ATOM     29  F   UNL     1       6.086   7.014  17.055  0.00  0.00    +0.000 F 
ATOM     30  F   UNL     1       6.058   5.430  15.573  0.00  0.00    +0.000 F 
ATOM     31  F   UNL     1       4.694   7.116  15.393  0.00  0.00    +0.000 F 
ENDBRANCH  21  28
ENDBRANCH  17  22
ENDBRANCH   1  17
TORSDOF 6
ENDMDL
MODEL 7
REMARK VINA RESULT:      -9.1      6.856      9.309
REMARK  Name = 
REMARK  6 active torsions:
REMARK  status: ('A' for Active; 'I' for Inactive)
REMARK    1  A    between atoms: C_2  and  C_5
REMARK    2  A    between atoms: C_8  and  C_9
REMARK    3  A    between atoms: C_13  and  C_14
REMARK    4  A    between atoms: C_14  and  C_15
REMARK    5  A    between atoms: C_15  and  C_16
REMARK    6  A    between atoms: C_19  and  C_20
REMARK                            x       y       z     vdW  Elec       q    Type
REMARK                         _______ _______ _______ _____ _____    ______ ____
ROOT
ATOM      1  C   UNL     1       2.549   8.212  17.981  0.00  0.00    +0.000 C 
ENDROOT
BRANCH   1   2
ATOM      2  C   UNL     1       1.563   9.299  18.215  0.00  0.00    +0.000 A 
ATOM      3  N   UNL     1       1.753  10.472  18.775  0.00  0.00    +0.000 NA
ATOM      4  N   UNL     1       0.557  11.138  18.701  0.00  0.00    +0.000 NA
ATOM      5  C   UNL     1      -0.300  10.332  18.096  0.00  0.00    +0.000 A 
ATOM      6  O   UNL     1       0.274   9.130  17.753  0.00  0.00    +0.000 OA
BRANCH   5   7
ATOM      7  C   UNL     1      -1.706  10.580  17.791  0.00  0.00    +0.000 A 
ATOM      8  C   UNL     1      -2.200  10.107  16.556  0.00  0.00    +0.000 A 
ATOM      9  C   UNL     1      -3.507  10.349  16.117  0.00  0.00    +0.000 A 
ATOM     10  C   UNL     1      -4.309  11.097  16.972  0.00  0.00    +0.000 A 
ATOM     11  N   UNL     1      -5.597  11.556  16.852  0.00  0.00    +0.000 N 
ATOM     12  C   UNL     1      -5.899  12.254  17.985  0.00  0.00    +0.000 A 
ATOM     13  N   UNL     1      -4.891  12.266  18.832  0.00  0.00    +0.000 NA
ATOM     14  C   UNL     1      -3.886  11.562  18.211  0.00  0.00    +0.000 A 
ATOM     15  C   UNL     1      -2.571  11.294  18.643  0.00  0.00    +0.000 A 
ATOM     16  H   UNL     1      -6.204  11.423  16.054  0.00  0.00    +0.000 HD
ENDBRANCH   5   7
ENDBRANCH   1   2
BRANCH   1  17
ATOM     17  C   UNL     1       2.345   7.036  18.953  0.00  0.00    +0.000 C 
BRANCH  17  22
ATOM     18  C   UNL     1       4.540   4.658  16.895  0.00  0.00    +0.000 A 
ATOM     19  C   UNL     1       4.307   3.435  17.532  0.00  0.00    +0.000 A 
ATOM     20  C   UNL     1       3.458   3.365  18.636  0.00  0.00    +0.000 A 
ATOM     21  C   UNL     1       2.811   4.511  19.136  0.00  0.00    +0.000 A 
ATOM     22  C   UNL     1       3.027   5.755  18.497  0.00  0.00    +0.000 A 
ATOM     23  C   UNL     1       3.898   5.810  17.388  0.00  0.00    +0.000 A 
BRANCH  18  25
ATOM     24  F   UNL     1       4.902   4.246  14.554  0.00  0.00    +0.000 F 
ATOM     25  C   UNL     1       5.457   4.739  15.697  0.00  0.00    +0.000 C 
ATOM     26  F   UNL     1       6.616   4.049  15.875  0.00  0.00    +0.000 F 
ATOM     27  F   UNL     1       5.821   6.020  15.409  0.00  0.00    +0.000 F 
ENDBRANCH  18  25
BRANCH  21  28
ATOM     28  C   UNL     1       1.923   4.364  20.356  0.00  0.00    +0.000 C 
ATOM     29  F   UNL     1       1.931   3.108  20.885  0.00  0.00    +0.000 F 
ATOM     30  F   UNL     1       2.284   5.192  21.372  0.00  0.00    +0.000 F 
ATOM     31  F   UNL     1       0.617   4.640  20.088  0.00  0.00    +0.000 F 
ENDBRANCH  21  28
ENDBRANCH  17  22
ENDBRANCH   1  17
TORSDOF 6
ENDMDL
MODEL 8
REMARK VINA RESULT:      -9.0      7.021      8.065
REMARK  Name = 
REMARK  6 active torsions:
REMARK  status: ('A' for Active; 'I' for Inactive)
REMARK    1  A    between atoms: C_2  and  C_5
REMARK    2  A    between atoms: C_8  and  C_9
REMARK    3  A    between atoms: C_13  and  C_14
REMARK    4  A    between atoms: C_14  and  C_15
REMARK    5  A    between atoms: C_15  and  C_16
REMARK    6  A    between atoms: C_19  and  C_20
REMARK                            x       y       z     vdW  Elec       q    Type
REMARK                         _______ _______ _______ _____ _____    ______ ____
ROOT
ATOM      1  C   UNL     1       1.686   8.503  17.667  0.00  0.00    +0.000 C 
ENDROOT
BRANCH   1   2
ATOM      2  C   UNL     1       1.377   9.725  18.454  0.00  0.00    +0.000 A 
ATOM      3  N   UNL     1       1.937  10.911  18.381  0.00  0.00    +0.000 NA
ATOM      4  N   UNL     1       1.263  11.715  19.264  0.00  0.00    +0.000 NA
ATOM      5  C   UNL     1       0.325  10.974  19.828  0.00  0.00    +0.000 A 
ATOM      6  O   UNL     1       0.335   9.680  19.358  0.00  0.00    +0.000 OA
BRANCH   5   7
ATOM      7  C   UNL     1      -0.647  11.370  20.843  0.00  0.00    +0.000 A 
ATOM      8  C   UNL     1      -0.455  10.885  22.155  0.00  0.00    +0.000 A 
ATOM      9  C   UNL     1      -1.359  11.131  23.196  0.00  0.00    +0.000 A 
ATOM     10  C   UNL     1      -2.478  11.887  22.866  0.00  0.00    +0.000 A 
ATOM     11  N   UNL     1      -3.570  12.276  23.602  0.00  0.00    +0.000 N 
ATOM     12  C   UNL     1      -4.386  13.005  22.784  0.00  0.00    +0.000 A 
ATOM     13  N   UNL     1      -3.885  13.117  21.573  0.00  0.00    +0.000 NA
ATOM     14  C   UNL     1      -2.703  12.415  21.600  0.00  0.00    +0.000 A 
ATOM     15  C   UNL     1      -1.773  12.170  20.569  0.00  0.00    +0.000 A 
ATOM     16  H   UNL     1      -3.750  12.042  24.568  0.00  0.00    +0.000 HD
ENDBRANCH   5   7
ENDBRANCH   1   2
BRANCH   1  17
ATOM     17  C   UNL     1       3.095   7.966  17.973  0.00  0.00    +0.000 C 
BRANCH  17  22
ATOM     18  C   UNL     1       2.261   4.299  18.728  0.00  0.00    +0.000 A 
ATOM     19  C   UNL     1       3.262   3.629  18.018  0.00  0.00    +0.000 A 
ATOM     20  C   UNL     1       4.202   4.345  17.278  0.00  0.00    +0.000 A 
ATOM     21  C   UNL     1       4.177   5.752  17.227  0.00  0.00    +0.000 A 
ATOM     22  C   UNL     1       3.177   6.447  17.949  0.00  0.00    +0.000 A 
ATOM     23  C   UNL     1       2.227   5.705  18.684  0.00  0.00    +0.000 A 
BRANCH  18  25
ATOM     24  F   UNL     1       0.386   2.794  18.767  0.00  0.00    +0.000 F 
ATOM     25  C   UNL     1       1.242   3.529  19.533  0.00  0.00    +0.000 C 
ATOM     26  F   UNL     1       0.456   4.336  20.297  0.00  0.00    +0.000 F 
ATOM     27  F   UNL     1       1.820   2.644  20.393  0.00  0.00    +0.000 F 
ENDBRANCH  18  25
BRANCH  21  28
ATOM     28  C   UNL     1       5.215   6.463  16.381  0.00  0.00    +0.000 C 
ATOM     29  F   UNL     1       4.679   7.185  15.357  0.00  0.00    +0.000 F 
ATOM     30  F   UNL     1       5.964   7.343  17.098  0.00  0.00    +0.000 F 
ATOM     31  F   UNL     1       6.095   5.601  15.800  0.00  0.00    +0.000 F 
ENDBRANCH  21  28
ENDBRANCH  17  22
ENDBRANCH   1  17
TORSDOF 6
ENDMDL
MODEL 9
REMARK VINA RESULT:      -9.0      7.475      9.788
REMARK  Name = 
REMARK  6 active torsions:
REMARK  status: ('A' for Active; 'I' for Inactive)
REMARK    1  A    between atoms: C_2  and  C_5
REMARK    2  A    between atoms: C_8  and  C_9
REMARK    3  A    between atoms: C_13  and  C_14
REMARK    4  A    between atoms: C_14  and  C_15
REMARK    5  A    between atoms: C_15  and  C_16
REMARK    6  A    between atoms: C_19  and  C_20
REMARK                            x       y       z     vdW  Elec       q    Type
REMARK                         _______ _______ _______ _____ _____    ______ ____
ROOT
ATOM      1  C   UNL     1       1.867   8.724  17.901  0.00  0.00    +0.000 C 
ENDROOT
BRANCH   1   2
ATOM      2  C   UNL     1       0.837   9.718  18.304  0.00  0.00    +0.000 A 
ATOM      3  N   UNL     1       0.951  10.724  19.140  0.00  0.00    +0.000 NA
ATOM      4  N   UNL     1      -0.253  11.381  19.127  0.00  0.00    +0.000 NA
ATOM      5  C   UNL     1      -1.037  10.738  18.277  0.00  0.00    +0.000 A 
ATOM      6  O   UNL     1      -0.406   9.656  17.707  0.00  0.00    +0.000 OA
BRANCH   5   7
ATOM      7  C   UNL     1      -2.420  11.043  17.923  0.00  0.00    +0.000 A 
ATOM      8  C   UNL     1      -2.833  10.761  16.602  0.00  0.00    +0.000 A 
ATOM      9  C   UNL     1      -4.109  11.079  16.122  0.00  0.00    +0.000 A 
ATOM     10  C   UNL     1      -4.964  11.703  17.023  0.00  0.00    +0.000 A 
ATOM     11  N   UNL     1      -6.241  12.188  16.889  0.00  0.00    +0.000 N 
ATOM     12  C   UNL     1      -6.614  12.717  18.092  0.00  0.00    +0.000 A 
ATOM     13  N   UNL     1      -5.663  12.594  18.993  0.00  0.00    +0.000 NA
ATOM     14  C   UNL     1      -4.621  11.978  18.342  0.00  0.00    +0.000 A 
ATOM     15  C   UNL     1      -3.337  11.635  18.812  0.00  0.00    +0.000 A 
ATOM     16  H   UNL     1      -6.795  12.179  16.044  0.00  0.00    +0.000 HD
ENDBRANCH   5   7
ENDBRANCH   1   2
BRANCH   1  17
ATOM     17  C   UNL     1       2.293   7.833  19.080  0.00  0.00    +0.000 C 
BRANCH  17  22
ATOM     18  C   UNL     1       4.368   5.321  17.057  0.00  0.00    +0.000 A 
ATOM     19  C   UNL     1       4.077   4.121  17.711  0.00  0.00    +0.000 A 
ATOM     20  C   UNL     1       3.228   4.108  18.817  0.00  0.00    +0.000 A 
ATOM     21  C   UNL     1       2.637   5.291  19.301  0.00  0.00    +0.000 A 
ATOM     22  C   UNL     1       2.911   6.514  18.643  0.00  0.00    +0.000 A 
ATOM     23  C   UNL     1       3.782   6.510  17.532  0.00  0.00    +0.000 A 
BRANCH  18  25
ATOM     24  F   UNL     1       6.608   5.358  16.184  0.00  0.00    +0.000 F 
ATOM     25  C   UNL     1       5.285   5.341  15.857  0.00  0.00    +0.000 C 
ATOM     26  F   UNL     1       5.087   6.427  15.061  0.00  0.00    +0.000 F 
ATOM     27  F   UNL     1       5.116   4.252  15.056  0.00  0.00    +0.000 F 
ENDBRANCH  18  25
BRANCH  21  28
ATOM     28  C   UNL     1       1.745   5.205  20.524  0.00  0.00    +0.000 C 
ATOM     29  F   UNL     1       2.369   4.679  21.615  0.00  0.00    +0.000 F 
ATOM     30  F   UNL     1       1.276   6.419  20.918  0.00  0.00    +0.000 F 
ATOM     31  F   UNL     1       0.649   4.424  20.317  0.00  0.00    +0.000 F 
ENDBRANCH  21  28
ENDBRANCH  17  22
ENDBRANCH   1  17
TORSDOF 6
ENDMDL
