MODEL 1
REMARK VINA RESULT:      -8.1      0.000      0.000
REMARK  Name = 
REMARK  14 active torsions:
REMARK  status: ('A' for Active; 'I' for Inactive)
REMARK    1  A    between atoms: N_1  and  C_2
REMARK    2  A    between atoms: C_2  and  C_3
REMARK    3  A    between atoms: C_3  and  C_4
REMARK    4  A    between atoms: C_4  and  C_5
REMARK    5  A    between atoms: C_5  and  C_6
REMARK    6  A    between atoms: C_6  and  N_7
REMARK    7  A    between atoms: C_6  and  C_8
REMARK    8  A    between atoms: N_10  and  C_11
REMARK    9  A    between atoms: C_11  and  C_12
REMARK   10  A    between atoms: C_11  and  C_32
REMARK   11  A    between atoms: C_12  and  C_13
REMARK   12  A    between atoms: C_14  and  S_15
REMARK   13  A    between atoms: S_15  and  C_16
REMARK   14  A    between atoms: C_21  and  N_22
REMARK                            x       y       z     vdW  Elec       q    Type
REMARK                         _______ _______ _______ _____ _____    ______ ____
ROOT
ATOM      1  C   UNL     1       6.064   6.837  17.361  0.00  0.00    +0.000 C 
ENDROOT
BRANCH   1   2
ATOM      2  C   UNL     1       7.405   7.362  17.896  0.00  0.00    +0.000 C 
ATOM      3  N   UNL     1       7.839   8.536  17.334  0.00  0.00    +0.000 N 
ATOM      4  O   UNL     1       8.104   6.783  18.724  0.00  0.00    +0.000 OA
ATOM      5  H   UNL     1       7.369   8.999  16.568  0.00  0.00    +0.000 HD
ATOM      6  H   UNL     1       8.750   8.879  17.613  0.00  0.00    +0.000 HD
ENDBRANCH   1   2
BRANCH   1   9
ATOM      7  C   UNL     1       6.800   5.369  15.432  0.00  0.00    +0.000 C 
ATOM      8  O   UNL     1       7.442   4.572  16.110  0.00  0.00    +0.000 OA
ATOM      9  N   UNL     1       6.234   6.518  15.933  0.00  0.00    +0.000 N 
ATOM     10  H   UNL     1       5.967   7.232  15.274  0.00  0.00    +0.000 HD
BRANCH   7  11
ATOM     11  C   UNL     1       6.667   5.126  13.913  0.00  0.00    +0.000 C 
BRANCH  11  12
ATOM     12  N   UNL     1       7.901   5.448  13.168  0.00  0.00    +0.000 NA
ATOM     13  H   UNL     1       8.463   6.134  13.653  0.00  0.00    +0.000 HD
ATOM     14  H   UNL     1       7.630   5.838  12.266  0.00  0.00    +0.000 HD
ENDBRANCH  11  12
BRANCH  11  15
ATOM     15  C   UNL     1       6.198   3.687  13.670  0.00  0.00    +0.000 C 
BRANCH  15  16
ATOM     16  C   UNL     1       6.298   3.366  12.174  0.00  0.00    +0.000 C 
BRANCH  16  17
ATOM     17  C   UNL     1       5.562   2.116  11.731  0.00  0.00    +0.000 C 
BRANCH  17  18
ATOM     18  C   UNL     1       6.584   1.172  11.092  0.00  0.00    +0.000 C 
BRANCH  18  19
ATOM     19  N   UNL     1       6.170  -0.214  11.240  0.00  0.00    +0.000 NA
ATOM     20  H   UNL     1       6.125  -0.433  12.235  0.00  0.00    +0.000 HD
ATOM     21  H   UNL     1       6.896  -0.817  10.853  0.00  0.00    +0.000 HD
ENDBRANCH  18  19
ENDBRANCH  17  18
ENDBRANCH  16  17
ENDBRANCH  15  16
ENDBRANCH  11  15
ENDBRANCH   7  11
ENDBRANCH   1   9
BRANCH   1  22
ATOM     22  C   UNL     1       5.494   5.760  18.301  0.00  0.00    +0.000 C 
BRANCH  22  23
ATOM     23  C   UNL     1       4.068   5.297  18.031  0.00  0.00    +0.000 A 
ATOM     24  C   UNL     1       2.969   6.149  17.972  0.00  0.00    +0.000 A 
ATOM     25  N   UNL     1       1.840   5.383  17.995  0.00  0.00    +0.000 N 
ATOM     26  C   UNL     1       2.146   4.051  18.109  0.00  0.00    +0.000 A 
ATOM     27  C   UNL     1       1.306   2.948  18.321  0.00  0.00    +0.000 A 
ATOM     28  C   UNL     1       1.896   1.689  18.463  0.00  0.00    +0.000 A 
ATOM     29  C   UNL     1       3.265   1.530  18.324  0.00  0.00    +0.000 A 
ATOM     30  C   UNL     1       4.079   2.637  18.068  0.00  0.00    +0.000 A 
ATOM     31  C   UNL     1       3.534   3.944  18.014  0.00  0.00    +0.000 A 
ATOM     32  H   UNL     1       0.905   5.766  17.984  0.00  0.00    +0.000 HD
BRANCH  24  33
ATOM     33  S   UNL     1       2.894   7.895  18.039  0.00  0.00    +0.000 S 
BRANCH  33  34
ATOM     34  C   UNL     1       1.863   8.330  19.442  0.00  0.00    +0.000 A 
ATOM     35  N   UNL     1       1.850   7.465  20.496  0.00  0.00    +0.000 NA
ATOM     36  C   UNL     1       1.075   7.749  21.571  0.00  0.00    +0.000 A 
ATOM     37  C   UNL     1       0.308   8.894  21.682  0.00  0.00    +0.000 A 
ATOM     38  C   UNL     1       0.321   9.787  20.621  0.00  0.00    +0.000 A 
ATOM     39  C   UNL     1       1.089   9.481  19.491  0.00  0.00    +0.000 A 
BRANCH  39  40
ATOM     40  N   UNL     1       1.015  10.392  18.375  0.00  0.00    +0.000 N 
ATOM     41  O   UNL     1       1.940  11.200  18.242  0.00  0.00    +0.000 OA
ATOM     42  O   UNL     1       0.082  10.230  17.576  0.00  0.00    +0.000 OA
ENDBRANCH  39  40
ENDBRANCH  33  34
ENDBRANCH  24  33
ENDBRANCH  22  23
ENDBRANCH   1  22
TORSDOF 14
ENDMDL
MODEL 2
REMARK VINA RESULT:      -8.0      1.152      1.247
REMARK  Name = 
REMARK  14 active torsions:
REMARK  status: ('A' for Active; 'I' for Inactive)
REMARK    1  A    between atoms: N_1  and  C_2
REMARK    2  A    between atoms: C_2  and  C_3
REMARK    3  A    between atoms: C_3  and  C_4
REMARK    4  A    between atoms: C_4  and  C_5
REMARK    5  A    between atoms: C_5  and  C_6
REMARK    6  A    between atoms: C_6  and  N_7
REMARK    7  A    between atoms: C_6  and  C_8
REMARK    8  A    between atoms: N_10  and  C_11
REMARK    9  A    between atoms: C_11  and  C_12
REMARK   10  A    between atoms: C_11  and  C_32
REMARK   11  A    between atoms: C_12  and  C_13
REMARK   12  A    between atoms: C_14  and  S_15
REMARK   13  A    between atoms: S_15  and  C_16
REMARK   14  A    between atoms: C_21  and  N_22
REMARK                            x       y       z     vdW  Elec       q    Type
REMARK                         _______ _______ _______ _____ _____    ______ ____
ROOT
ATOM      1  C   UNL     1       6.004   6.888  17.254  0.00  0.00    +0.000 C 
ENDROOT
BRANCH   1   2
ATOM      2  C   UNL     1       7.372   7.403  17.723  0.00  0.00    +0.000 C 
ATOM      3  N   UNL     1       8.028   6.594  18.615  0.00  0.00    +0.000 N 
ATOM      4  O   UNL     1       7.863   8.481  17.397  0.00  0.00    +0.000 OA
ATOM      5  H   UNL     1       7.628   5.753  19.010  0.00  0.00    +0.000 HD
ATOM      6  H   UNL     1       8.902   6.931  18.998  0.00  0.00    +0.000 HD
ENDBRANCH   1   2
BRANCH   1   9
ATOM      7  C   UNL     1       6.806   5.353  15.405  0.00  0.00    +0.000 C 
ATOM      8  O   UNL     1       7.580   4.702  16.100  0.00  0.00    +0.000 OA
ATOM      9  N   UNL     1       6.130   6.466  15.848  0.00  0.00    +0.000 N 
ATOM     10  H   UNL     1       5.738   7.081  15.153  0.00  0.00    +0.000 HD
BRANCH   7  11
ATOM     11  C   UNL     1       6.617   4.962  13.923  0.00  0.00    +0.000 C 
BRANCH  11  12
ATOM     12  N   UNL     1       7.817   5.223  13.102  0.00  0.00    +0.000 NA
ATOM     13  H   UNL     1       8.110   6.189  13.163  0.00  0.00    +0.000 HD
ATOM     14  H   UNL     1       7.581   5.023  12.131  0.00  0.00    +0.000 HD
ENDBRANCH  11  12
BRANCH  11  15
ATOM     15  C   UNL     1       6.160   3.502  13.840  0.00  0.00    +0.000 C 
BRANCH  15  16
ATOM     16  C   UNL     1       5.849   3.150  12.380  0.00  0.00    +0.000 C 
BRANCH  16  17
ATOM     17  C   UNL     1       4.763   3.987  11.731  0.00  0.00    +0.000 C 
BRANCH  17  18
ATOM     18  C   UNL     1       3.789   3.034  11.033  0.00  0.00    +0.000 C 
BRANCH  18  19
ATOM     19  N   UNL     1       3.099   3.705   9.945  0.00  0.00    +0.000 NA
ATOM     20  H   UNL     1       3.607   3.524   9.079  0.00  0.00    +0.000 HD
ATOM     21  H   UNL     1       3.151   4.713  10.094  0.00  0.00    +0.000 HD
ENDBRANCH  18  19
ENDBRANCH  17  18
ENDBRANCH  16  17
ENDBRANCH  15  16
ENDBRANCH  11  15
ENDBRANCH   7  11
ENDBRANCH   1   9
BRANCH   1  22
ATOM     22  C   UNL     1       5.421   5.898  18.278  0.00  0.00    +0.000 C 
BRANCH  22  23
ATOM     23  C   UNL     1       4.003   5.402  18.025  0.00  0.00    +0.000 A 
ATOM     24  C   UNL     1       2.884   6.229  17.973  0.00  0.00    +0.000 A 
ATOM     25  N   UNL     1       1.773   5.438  18.012  0.00  0.00    +0.000 N 
ATOM     26  C   UNL     1       2.110   4.113  18.130  0.00  0.00    +0.000 A 
ATOM     27  C   UNL     1       1.297   2.993  18.356  0.00  0.00    +0.000 A 
ATOM     28  C   UNL     1       1.915   1.749  18.499  0.00  0.00    +0.000 A 
ATOM     29  C   UNL     1       3.287   1.620  18.348  0.00  0.00    +0.000 A 
ATOM     30  C   UNL     1       4.073   2.743  18.077  0.00  0.00    +0.000 A 
ATOM     31  C   UNL     1       3.499   4.037  18.021  0.00  0.00    +0.000 A 
ATOM     32  H   UNL     1       0.830   5.800  18.007  0.00  0.00    +0.000 HD
BRANCH  24  33
ATOM     33  S   UNL     1       2.772   7.973  18.031  0.00  0.00    +0.000 S 
BRANCH  33  34
ATOM     34  C   UNL     1       1.783   8.394  19.468  0.00  0.00    +0.000 A 
ATOM     35  N   UNL     1       1.789   7.512  20.507  0.00  0.00    +0.000 NA
ATOM     36  C   UNL     1       1.046   7.785  21.607  0.00  0.00    +0.000 A 
ATOM     37  C   UNL     1       0.294   8.936  21.758  0.00  0.00    +0.000 A 
ATOM     38  C   UNL     1       0.289   9.848  20.712  0.00  0.00    +0.000 A 
ATOM     39  C   UNL     1       1.024   9.553  19.557  0.00  0.00    +0.000 A 
BRANCH  39  40
ATOM     40  N   UNL     1       0.930  10.484  18.459  0.00  0.00    +0.000 N 
ATOM     41  O   UNL     1       1.850  11.298  18.327  0.00  0.00    +0.000 OA
ATOM     42  O   UNL     1      -0.014  10.332  17.670  0.00  0.00    +0.000 OA
ENDBRANCH  39  40
ENDBRANCH  33  34
ENDBRANCH  24  33
ENDBRANCH  22  23
ENDBRANCH   1  22
TORSDOF 14
ENDMDL
MODEL 3
REMARK VINA RESULT:      -7.8      0.951      1.015
REMARK  Name = 
REMARK  14 active torsions:
REMARK  status: ('A' for Active; 'I' for Inactive)
REMARK    1  A    between atoms: N_1  and  C_2
REMARK    2  A    between atoms: C_2  and  C_3
REMARK    3  A    between atoms: C_3  and  C_4
REMARK    4  A    between atoms: C_4  and  C_5
REMARK    5  A    between atoms: C_5  and  C_6
REMARK    6  A    between atoms: C_6  and  N_7
REMARK    7  A    between atoms: C_6  and  C_8
REMARK    8  A    between atoms: N_10  and  C_11
REMARK    9  A    between atoms: C_11  and  C_12
REMARK   10  A    between atoms: C_11  and  C_32
REMARK   11  A    between atoms: C_12  and  C_13
REMARK   12  A    between atoms: C_14  and  S_15
REMARK   13  A    between atoms: S_15  and  C_16
REMARK   14  A    between atoms: C_21  and  N_22
REMARK                            x       y       z     vdW  Elec       q    Type
REMARK                         _______ _______ _______ _____ _____    ______ ____
ROOT
ATOM      1  C   UNL     1       5.952   6.815  17.125  0.00  0.00    +0.000 C 
ENDROOT
BRANCH   1   2
ATOM      2  C   UNL     1       7.378   7.227  17.519  0.00  0.00    +0.000 C 
ATOM      3  N   UNL     1       7.902   6.564  18.599  0.00  0.00    +0.000 N 
ATOM      4  O   UNL     1       8.025   8.118  16.974  0.00  0.00    +0.000 OA
ATOM      5  H   UNL     1       7.379   5.904  19.160  0.00  0.00    +0.000 HD
ATOM      6  H   UNL     1       8.813   6.854  18.930  0.00  0.00    +0.000 HD
ENDBRANCH   1   2
BRANCH   1   9
ATOM      7  C   UNL     1       6.714   4.878  15.681  0.00  0.00    +0.000 C 
ATOM      8  O   UNL     1       7.539   4.437  16.476  0.00  0.00    +0.000 OA
ATOM      9  N   UNL     1       6.026   6.054  15.865  0.00  0.00    +0.000 N 
ATOM     10  H   UNL     1       5.583   6.467  15.060  0.00  0.00    +0.000 HD
BRANCH   7  11
ATOM     11  C   UNL     1       6.469   4.123  14.357  0.00  0.00    +0.000 C 
BRANCH  11  12
ATOM     12  N   UNL     1       5.044   4.088  13.969  0.00  0.00    +0.000 NA
ATOM     13  H   UNL     1       4.461   3.732  14.715  0.00  0.00    +0.000 HD
ATOM     14  H   UNL     1       4.952   3.464  13.168  0.00  0.00    +0.000 HD
ENDBRANCH  11  12
BRANCH  11  15
ATOM     15  C   UNL     1       7.357   4.722  13.261  0.00  0.00    +0.000 C 
BRANCH  15  16
ATOM     16  C   UNL     1       6.952   4.137  11.903  0.00  0.00    +0.000 C 
BRANCH  16  17
ATOM     17  C   UNL     1       7.327   2.684  11.687  0.00  0.00    +0.000 C 
BRANCH  17  18
ATOM     18  C   UNL     1       6.040   1.901  11.415  0.00  0.00    +0.000 C 
BRANCH  18  19
ATOM     19  N   UNL     1       6.336   0.516  11.088  0.00  0.00    +0.000 NA
ATOM     20  H   UNL     1       5.946   0.310  10.169  0.00  0.00    +0.000 HD
ATOM     21  H   UNL     1       5.843  -0.089  11.743  0.00  0.00    +0.000 HD
ENDBRANCH  18  19
ENDBRANCH  17  18
ENDBRANCH  16  17
ENDBRANCH  15  16
ENDBRANCH  11  15
ENDBRANCH   7  11
ENDBRANCH   1   9
BRANCH   1  22
ATOM     22  C   UNL     1       5.219   6.193  18.327  0.00  0.00    +0.000 C 
BRANCH  22  23
ATOM     23  C   UNL     1       3.824   5.639  18.070  0.00  0.00    +0.000 A 
ATOM     24  C   UNL     1       2.672   6.418  18.012  0.00  0.00    +0.000 A 
ATOM     25  N   UNL     1       1.594   5.582  18.049  0.00  0.00    +0.000 N 
ATOM     26  C   UNL     1       1.986   4.273  18.171  0.00  0.00    +0.000 A 
ATOM     27  C   UNL     1       1.219   3.121  18.397  0.00  0.00    +0.000 A 
ATOM     28  C   UNL     1       1.888   1.903  18.546  0.00  0.00    +0.000 A 
ATOM     29  C   UNL     1       3.264   1.831  18.399  0.00  0.00    +0.000 A 
ATOM     30  C   UNL     1       4.004   2.985  18.129  0.00  0.00    +0.000 A 
ATOM     31  C   UNL     1       3.377   4.254  18.068  0.00  0.00    +0.000 A 
ATOM     32  H   UNL     1       0.637   5.905  18.040  0.00  0.00    +0.000 HD
BRANCH  24  33
ATOM     33  S   UNL     1       2.487   8.156  18.065  0.00  0.00    +0.000 S 
BRANCH  33  34
ATOM     34  C   UNL     1       1.564   8.547  19.553  0.00  0.00    +0.000 A 
ATOM     35  N   UNL     1       1.670   7.678  20.598  0.00  0.00    +0.000 NA
ATOM     36  C   UNL     1       0.980   7.929  21.737  0.00  0.00    +0.000 A 
ATOM     37  C   UNL     1       0.185   9.045  21.921  0.00  0.00    +0.000 A 
ATOM     38  C   UNL     1       0.077   9.944  20.869  0.00  0.00    +0.000 A 
ATOM     39  C   UNL     1       0.757   9.671  19.676  0.00  0.00    +0.000 A 
BRANCH  39  40
ATOM     40  N   UNL     1       0.557  10.584  18.578  0.00  0.00    +0.000 N 
ATOM     41  O   UNL     1       1.391  11.483  18.432  0.00  0.00    +0.000 OA
ATOM     42  O   UNL     1      -0.378  10.338  17.804  0.00  0.00    +0.000 OA
ENDBRANCH  39  40
ENDBRANCH  33  34
ENDBRANCH  24  33
ENDBRANCH  22  23
ENDBRANCH   1  22
TORSDOF 14
ENDMDL
MODEL 4
REMARK VINA RESULT:      -7.7      2.600      5.437
REMARK  Name = 
REMARK  14 active torsions:
REMARK  status: ('A' for Active; 'I' for Inactive)
REMARK    1  A    between atoms: N_1  and  C_2
REMARK    2  A    between atoms: C_2  and  C_3
REMARK    3  A    between atoms: C_3  and  C_4
REMARK    4  A    between atoms: C_4  and  C_5
REMARK    5  A    between atoms: C_5  and  C_6
REMARK    6  A    between atoms: C_6  and  N_7
REMARK    7  A    between atoms: C_6  and  C_8
REMARK    8  A    between atoms: N_10  and  C_11
REMARK    9  A    between atoms: C_11  and  C_12
REMARK   10  A    between atoms: C_11  and  C_32
REMARK   11  A    between atoms: C_12  and  C_13
REMARK   12  A    between atoms: C_14  and  S_15
REMARK   13  A    between atoms: S_15  and  C_16
REMARK   14  A    between atoms: C_21  and  N_22
REMARK                            x       y       z     vdW  Elec       q    Type
REMARK                         _______ _______ _______ _____ _____    ______ ____
ROOT
ATOM      1  C   UNL     1       6.136   6.476  17.172  0.00  0.00    +0.000 C 
ENDROOT
BRANCH   1   2
ATOM      2  C   UNL     1       7.114   5.533  16.455  0.00  0.00    +0.000 C 
ATOM      3  N   UNL     1       7.598   4.502  17.219  0.00  0.00    +0.000 N 
ATOM      4  O   UNL     1       7.510   5.680  15.302  0.00  0.00    +0.000 OA
ATOM      5  H   UNL     1       7.402   4.393  18.205  0.00  0.00    +0.000 HD
ATOM      6  H   UNL     1       8.296   3.898  16.802  0.00  0.00    +0.000 HD
ENDBRANCH   1   2
BRANCH   1   9
ATOM      7  C   UNL     1       7.937   8.015  18.070  0.00  0.00    +0.000 C 
ATOM      8  O   UNL     1       8.414   7.211  18.865  0.00  0.00    +0.000 OA
ATOM      9  N   UNL     1       6.797   7.782  17.336  0.00  0.00    +0.000 N 
ATOM     10  H   UNL     1       6.337   8.578  16.924  0.00  0.00    +0.000 HD
BRANCH   7  11
ATOM     11  C   UNL     1       8.596   9.403  17.919  0.00  0.00    +0.000 C 
BRANCH  11  12
ATOM     12  N   UNL     1       7.677  10.420  17.367  0.00  0.00    +0.000 NA
ATOM     13  H   UNL     1       7.926  10.675  16.421  0.00  0.00    +0.000 HD
ATOM     14  H   UNL     1       7.747  11.254  17.950  0.00  0.00    +0.000 HD
ENDBRANCH  11  12
BRANCH  11  15
ATOM     15  C   UNL     1       9.195   9.828  19.264  0.00  0.00    +0.000 C 
BRANCH  15  16
ATOM     16  C   UNL     1      10.042  11.090  19.067  0.00  0.00    +0.000 C 
BRANCH  16  17
ATOM     17  C   UNL     1       9.521  12.334  19.761  0.00  0.00    +0.000 C 
BRANCH  17  18
ATOM     18  C   UNL     1       9.606  13.497  18.769  0.00  0.00    +0.000 C 
BRANCH  18  19
ATOM     19  N   UNL     1       9.332  13.042  17.415  0.00  0.00    +0.000 NA
ATOM     20  H   UNL     1      10.169  12.589  17.050  0.00  0.00    +0.000 HD
ATOM     21  H   UNL     1       9.173  13.856  16.821  0.00  0.00    +0.000 HD
ENDBRANCH  18  19
ENDBRANCH  17  18
ENDBRANCH  16  17
ENDBRANCH  15  16
ENDBRANCH  11  15
ENDBRANCH   7  11
ENDBRANCH   1   9
BRANCH   1  22
ATOM     22  C   UNL     1       4.750   6.422  16.507  0.00  0.00    +0.000 C 
BRANCH  22  23
ATOM     23  C   UNL     1       3.611   5.842  17.336  0.00  0.00    +0.000 A 
ATOM     24  C   UNL     1       2.696   6.610  18.050  0.00  0.00    +0.000 A 
ATOM     25  N   UNL     1       2.007   5.778  18.885  0.00  0.00    +0.000 N 
ATOM     26  C   UNL     1       2.459   4.487  18.782  0.00  0.00    +0.000 A 
ATOM     27  C   UNL     1       2.146   3.358  19.554  0.00  0.00    +0.000 A 
ATOM     28  C   UNL     1       2.809   2.162  19.269  0.00  0.00    +0.000 A 
ATOM     29  C   UNL     1       3.694   2.079  18.206  0.00  0.00    +0.000 A 
ATOM     30  C   UNL     1       3.958   3.206  17.422  0.00  0.00    +0.000 A 
ATOM     31  C   UNL     1       3.383   4.462  17.736  0.00  0.00    +0.000 A 
ATOM     32  H   UNL     1       1.296   6.096  19.528  0.00  0.00    +0.000 HD
BRANCH  24  33
ATOM     33  S   UNL     1       2.485   8.345  18.106  0.00  0.00    +0.000 S 
BRANCH  33  34
ATOM     34  C   UNL     1       1.510   8.715  19.567  0.00  0.00    +0.000 A 
ATOM     35  N   UNL     1       1.766   7.983  20.688  0.00  0.00    +0.000 NA
ATOM     36  C   UNL     1       1.044   8.222  21.810  0.00  0.00    +0.000 A 
ATOM     37  C   UNL     1       0.069   9.197  21.901  0.00  0.00    +0.000 A 
ATOM     38  C   UNL     1      -0.194   9.957  20.769  0.00  0.00    +0.000 A 
ATOM     39  C   UNL     1       0.521   9.689  19.596  0.00  0.00    +0.000 A 
BRANCH  39  40
ATOM     40  N   UNL     1       0.165  10.443  18.419  0.00  0.00    +0.000 N 
ATOM     41  O   UNL     1      -0.695   9.957  17.676  0.00  0.00    +0.000 OA
ATOM     42  O   UNL     1       0.671  11.566  18.294  0.00  0.00    +0.000 OA
ENDBRANCH  39  40
ENDBRANCH  33  34
ENDBRANCH  24  33
ENDBRANCH  22  23
ENDBRANCH   1  22
TORSDOF 14
ENDMDL
MODEL 5
REMARK VINA RESULT:      -7.6      2.511      8.833
REMARK  Name = 
REMARK  14 active torsions:
REMARK  status: ('A' for Active; 'I' for Inactive)
REMARK    1  A    between atoms: N_1  and  C_2
REMARK    2  A    between atoms: C_2  and  C_3
REMARK    3  A    between atoms: C_3  and  C_4
REMARK    4  A    between atoms: C_4  and  C_5
REMARK    5  A    between atoms: C_5  and  C_6
REMARK    6  A    between atoms: C_6  and  N_7
REMARK    7  A    between atoms: C_6  and  C_8
REMARK    8  A    between atoms: N_10  and  C_11
REMARK    9  A    between atoms: C_11  and  C_12
REMARK   10  A    between atoms: C_11  and  C_32
REMARK   11  A    between atoms: C_12  and  C_13
REMARK   12  A    between atoms: C_14  and  S_15
REMARK   13  A    between atoms: S_15  and  C_16
REMARK   14  A    between atoms: C_21  and  N_22
REMARK                            x       y       z     vdW  Elec       q    Type
REMARK                         _______ _______ _______ _____ _____    ______ ____
ROOT
ATOM      1  C   UNL     1       1.623   8.795  19.273  0.00  0.00    +0.000 C 
ENDROOT
BRANCH   1   2
ATOM      2  C   UNL     1       1.387   9.951  18.289  0.00  0.00    +0.000 C 
ATOM      3  N   UNL     1       0.132  10.004  17.739  0.00  0.00    +0.000 N 
ATOM      4  O   UNL     1       2.244  10.761  17.943  0.00  0.00    +0.000 OA
ATOM      5  H   UNL     1      -0.579   9.302  17.893  0.00  0.00    +0.000 HD
ATOM      6  H   UNL     1      -0.041  10.712  17.036  0.00  0.00    +0.000 HD
ENDBRANCH   1   2
BRANCH   1   9
ATOM      7  C   UNL     1       0.726   9.994  21.316  0.00  0.00    +0.000 C 
ATOM      8  O   UNL     1       1.665  10.776  21.433  0.00  0.00    +0.000 OA
ATOM      9  N   UNL     1       0.697   8.963  20.407  0.00  0.00    +0.000 N 
ATOM     10  H   UNL     1       0.028   8.225  20.559  0.00  0.00    +0.000 HD
BRANCH   7  11
ATOM     11  C   UNL     1      -0.473  10.111  22.281  0.00  0.00    +0.000 C 
BRANCH  11  12
ATOM     12  N   UNL     1      -0.113   9.822  23.684  0.00  0.00    +0.000 NA
ATOM     13  H   UNL     1      -0.894   9.971  24.310  0.00  0.00    +0.000 HD
ATOM     14  H   UNL     1       0.635  10.460  23.953  0.00  0.00    +0.000 HD
ENDBRANCH  11  12
BRANCH  11  15
ATOM     15  C   UNL     1      -1.121  11.491  22.118  0.00  0.00    +0.000 C 
BRANCH  15  16
ATOM     16  C   UNL     1      -1.456  11.722  20.640  0.00  0.00    +0.000 C 
BRANCH  16  17
ATOM     17  C   UNL     1      -1.389  13.166  20.180  0.00  0.00    +0.000 C 
BRANCH  17  18
ATOM     18  C   UNL     1      -0.360  13.252  19.050  0.00  0.00    +0.000 C 
BRANCH  18  19
ATOM     19  N   UNL     1      -0.972  12.936  17.769  0.00  0.00    +0.000 NA
ATOM     20  H   UNL     1      -0.322  12.363  17.233  0.00  0.00    +0.000 HD
ATOM     21  H   UNL     1      -1.087  13.799  17.238  0.00  0.00    +0.000 HD
ENDBRANCH  18  19
ENDBRANCH  17  18
ENDBRANCH  16  17
ENDBRANCH  15  16
ENDBRANCH  11  15
ENDBRANCH   7  11
ENDBRANCH   1   9
BRANCH   1  22
ATOM     22  C   UNL     1       1.649   7.449  18.527  0.00  0.00    +0.000 C 
BRANCH  22  23
ATOM     23  C   UNL     1       2.595   6.383  19.065  0.00  0.00    +0.000 A 
ATOM     24  C   UNL     1       3.923   6.248  18.671  0.00  0.00    +0.000 A 
ATOM     25  N   UNL     1       4.379   5.046  19.129  0.00  0.00    +0.000 N 
ATOM     26  C   UNL     1       3.388   4.354  19.778  0.00  0.00    +0.000 A 
ATOM     27  C   UNL     1       3.375   3.037  20.260  0.00  0.00    +0.000 A 
ATOM     28  C   UNL     1       2.195   2.558  20.835  0.00  0.00    +0.000 A 
ATOM     29  C   UNL     1       1.096   3.387  20.988  0.00  0.00    +0.000 A 
ATOM     30  C   UNL     1       1.145   4.711  20.541  0.00  0.00    +0.000 A 
ATOM     31  C   UNL     1       2.287   5.208  19.865  0.00  0.00    +0.000 A 
ATOM     32  H   UNL     1       5.312   4.700  18.956  0.00  0.00    +0.000 HD
BRANCH  24  33
ATOM     33  S   UNL     1       4.896   7.262  17.630  0.00  0.00    +0.000 S 
BRANCH  33  34
ATOM     34  C   UNL     1       5.759   6.178  16.489  0.00  0.00    +0.000 A 
ATOM     35  N   UNL     1       5.188   5.980  15.267  0.00  0.00    +0.000 NA
ATOM     36  C   UNL     1       5.800   5.159  14.379  0.00  0.00    +0.000 A 
ATOM     37  C   UNL     1       7.002   4.523  14.626  0.00  0.00    +0.000 A 
ATOM     38  C   UNL     1       7.599   4.725  15.862  0.00  0.00    +0.000 A 
ATOM     39  C   UNL     1       6.953   5.541  16.798  0.00  0.00    +0.000 A 
BRANCH  39  40
ATOM     40  N   UNL     1       7.561   5.662  18.100  0.00  0.00    +0.000 N 
ATOM     41  O   UNL     1       8.057   6.756  18.393  0.00  0.00    +0.000 OA
ATOM     42  O   UNL     1       7.452   4.695  18.866  0.00  0.00    +0.000 OA
ENDBRANCH  39  40
ENDBRANCH  33  34
ENDBRANCH  24  33
ENDBRANCH  22  23
ENDBRANCH   1  22
TORSDOF 14
ENDMDL
MODEL 6
REMARK VINA RESULT:      -7.4      1.516      1.689
REMARK  Name = 
REMARK  14 active torsions:
REMARK  status: ('A' for Active; 'I' for Inactive)
REMARK    1  A    between atoms: N_1  and  C_2
REMARK    2  A    between atoms: C_2  and  C_3
REMARK    3  A    between atoms: C_3  and  C_4
REMARK    4  A    between atoms: C_4  and  C_5
REMARK    5  A    between atoms: C_5  and  C_6
REMARK    6  A    between atoms: C_6  and  N_7
REMARK    7  A    between atoms: C_6  and  C_8
REMARK    8  A    between atoms: N_10  and  C_11
REMARK    9  A    between atoms: C_11  and  C_12
REMARK   10  A    between atoms: C_11  and  C_32
REMARK   11  A    between atoms: C_12  and  C_13
REMARK   12  A    between atoms: C_14  and  S_15
REMARK   13  A    between atoms: S_15  and  C_16
REMARK   14  A    between atoms: C_21  and  N_22
REMARK                            x       y       z     vdW  Elec       q    Type
REMARK                         _______ _______ _______ _____ _____    ______ ____
ROOT
ATOM      1  C   UNL     1       6.236   6.200  17.574  0.00  0.00    +0.000 C 
ENDROOT
BRANCH   1   2
ATOM      2  C   UNL     1       7.420   5.703  18.418  0.00  0.00    +0.000 C 
ATOM      3  N   UNL     1       8.208   6.687  18.956  0.00  0.00    +0.000 N 
ATOM      4  O   UNL     1       7.715   4.521  18.583  0.00  0.00    +0.000 OA
ATOM      5  H   UNL     1       8.086   7.672  18.763  0.00  0.00    +0.000 HD
ATOM      6  H   UNL     1       9.035   6.398  19.464  0.00  0.00    +0.000 HD
ENDBRANCH   1   2
BRANCH   1   9
ATOM      7  C   UNL     1       6.777   4.999  15.410  0.00  0.00    +0.000 C 
ATOM      8  O   UNL     1       7.669   5.763  15.053  0.00  0.00    +0.000 OA
ATOM      9  N   UNL     1       5.983   5.209  16.512  0.00  0.00    +0.000 N 
ATOM     10  H   UNL     1       5.123   4.688  16.575  0.00  0.00    +0.000 HD
BRANCH   7  11
ATOM     11  C   UNL     1       6.463   3.757  14.547  0.00  0.00    +0.000 C 
BRANCH  11  12
ATOM     12  N   UNL     1       5.842   2.662  15.319  0.00  0.00    +0.000 NA
ATOM     13  H   UNL     1       4.904   2.461  14.998  0.00  0.00    +0.000 HD
ATOM     14  H   UNL     1       5.788   2.957  16.294  0.00  0.00    +0.000 HD
ENDBRANCH  11  12
BRANCH  11  15
ATOM     15  C   UNL     1       5.610   4.179  13.346  0.00  0.00    +0.000 C 
BRANCH  15  16
ATOM     16  C   UNL     1       6.159   3.518  12.076  0.00  0.00    +0.000 C 
BRANCH  16  17
ATOM     17  C   UNL     1       5.253   2.479  11.444  0.00  0.00    +0.000 C 
BRANCH  17  18
ATOM     18  C   UNL     1       3.839   3.062  11.385  0.00  0.00    +0.000 C 
BRANCH  18  19
ATOM     19  N   UNL     1       3.695   3.958  10.249  0.00  0.00    +0.000 NA
ATOM     20  H   UNL     1       3.705   3.401   9.395  0.00  0.00    +0.000 HD
ATOM     21  H   UNL     1       4.517   4.560  10.199  0.00  0.00    +0.000 HD
ENDBRANCH  18  19
ENDBRANCH  17  18
ENDBRANCH  16  17
ENDBRANCH  15  16
ENDBRANCH  11  15
ENDBRANCH   7  11
ENDBRANCH   1   9
BRANCH   1  22
ATOM     22  C   UNL     1       5.071   6.632  18.481  0.00  0.00    +0.000 C 
BRANCH  22  23
ATOM     23  C   UNL     1       3.732   5.942  18.256  0.00  0.00    +0.000 A 
ATOM     24  C   UNL     1       2.519   6.614  18.131  0.00  0.00    +0.000 A 
ATOM     25  N   UNL     1       1.516   5.693  18.222  0.00  0.00    +0.000 N 
ATOM     26  C   UNL     1       2.015   4.435  18.445  0.00  0.00    +0.000 A 
ATOM     27  C   UNL     1       1.347   3.241  18.751  0.00  0.00    +0.000 A 
ATOM     28  C   UNL     1       2.115   2.100  18.995  0.00  0.00    +0.000 A 
ATOM     29  C   UNL     1       3.494   2.135  18.864  0.00  0.00    +0.000 A 
ATOM     30  C   UNL     1       4.137   3.326  18.514  0.00  0.00    +0.000 A 
ATOM     31  C   UNL     1       3.405   4.528  18.354  0.00  0.00    +0.000 A 
ATOM     32  H   UNL     1       0.535   5.931  18.183  0.00  0.00    +0.000 HD
BRANCH  24  33
ATOM     33  S   UNL     1       2.186   8.329  18.053  0.00  0.00    +0.000 S 
BRANCH  33  34
ATOM     34  C   UNL     1       1.362   8.780  19.582  0.00  0.00    +0.000 A 
ATOM     35  N   UNL     1       1.634   8.023  20.682  0.00  0.00    +0.000 NA
ATOM     36  C   UNL     1       1.024   8.322  21.855  0.00  0.00    +0.000 A 
ATOM     37  C   UNL     1       0.151   9.382  22.016  0.00  0.00    +0.000 A 
ATOM     38  C   UNL     1      -0.126  10.167  20.906  0.00  0.00    +0.000 A 
ATOM     39  C   UNL     1       0.472   9.841  19.683  0.00  0.00    +0.000 A 
BRANCH  39  40
ATOM     40  N   UNL     1       0.097  10.628  18.534  0.00  0.00    +0.000 N 
ATOM     41  O   UNL     1      -0.855  10.226  17.859  0.00  0.00    +0.000 OA
ATOM     42  O   UNL     1       0.692  11.702  18.369  0.00  0.00    +0.000 OA
ENDBRANCH  39  40
ENDBRANCH  33  34
ENDBRANCH  24  33
ENDBRANCH  22  23
ENDBRANCH   1  22
TORSDOF 14
ENDMDL
MODEL 7
REMARK VINA RESULT:      -7.3      2.204      2.586
REMARK  Name = 
REMARK  14 active torsions:
REMARK  status: ('A' for Active; 'I' for Inactive)
REMARK    1  A    between atoms: N_1  and  C_2
REMARK    2  A    between atoms: C_2  and  C_3
REMARK    3  A    between atoms: C_3  and  C_4
REMARK    4  A    between atoms: C_4  and  C_5
REMARK    5  A    between atoms: C_5  and  C_6
REMARK    6  A    between atoms: C_6  and  N_7
REMARK    7  A    between atoms: C_6  and  C_8
REMARK    8  A    between atoms: N_10  and  C_11
REMARK    9  A    between atoms: C_11  and  C_12
REMARK   10  A    between atoms: C_11  and  C_32
REMARK   11  A    between atoms: C_12  and  C_13
REMARK   12  A    between atoms: C_14  and  S_15
REMARK   13  A    between atoms: S_15  and  C_16
REMARK   14  A    between atoms: C_21  and  N_22
REMARK                            x       y       z     vdW  Elec       q    Type
REMARK                         _______ _______ _______ _____ _____    ______ ____
ROOT
ATOM      1  C   UNL     1       5.075   6.273  17.882  0.00  0.00    +0.000 C 
ENDROOT
BRANCH   1   2
ATOM      2  C   UNL     1       5.637   5.606  19.147  0.00  0.00    +0.000 C 
ATOM      3  N   UNL     1       6.981   5.781  19.352  0.00  0.00    +0.000 N 
ATOM      4  O   UNL     1       4.984   4.909  19.919  0.00  0.00    +0.000 OA
ATOM      5  H   UNL     1       7.594   6.245  18.695  0.00  0.00    +0.000 HD
ATOM      6  H   UNL     1       7.401   5.301  20.139  0.00  0.00    +0.000 HD
ENDBRANCH   1   2
BRANCH   1   9
ATOM      7  C   UNL     1       6.310   5.081  16.019  0.00  0.00    +0.000 C 
ATOM      8  O   UNL     1       7.297   5.809  16.027  0.00  0.00    +0.000 OA
ATOM      9  N   UNL     1       5.182   5.311  16.771  0.00  0.00    +0.000 N 
ATOM     10  H   UNL     1       4.338   4.829  16.506  0.00  0.00    +0.000 HD
BRANCH   7  11
ATOM     11  C   UNL     1       6.279   3.868  15.064  0.00  0.00    +0.000 C 
BRANCH  11  12
ATOM     12  N   UNL     1       5.709   2.658  15.689  0.00  0.00    +0.000 NA
ATOM     13  H   UNL     1       4.717   2.755  15.857  0.00  0.00    +0.000 HD
ATOM     14  H   UNL     1       6.172   2.521  16.587  0.00  0.00    +0.000 HD
ENDBRANCH  11  12
BRANCH  11  15
ATOM     15  C   UNL     1       5.548   4.258  13.774  0.00  0.00    +0.000 C 
BRANCH  15  16
ATOM     16  C   UNL     1       6.186   3.528  12.587  0.00  0.00    +0.000 C 
BRANCH  16  17
ATOM     17  C   UNL     1       5.219   2.774  11.696  0.00  0.00    +0.000 C 
BRANCH  17  18
ATOM     18  C   UNL     1       5.859   1.429  11.340  0.00  0.00    +0.000 C 
BRANCH  18  19
ATOM     19  N   UNL     1       7.297   1.566  11.183  0.00  0.00    +0.000 NA
ATOM     20  H   UNL     1       7.532   1.405  10.204  0.00  0.00    +0.000 HD
ATOM     21  H   UNL     1       7.758   0.822  11.707  0.00  0.00    +0.000 HD
ENDBRANCH  18  19
ENDBRANCH  17  18
ENDBRANCH  16  17
ENDBRANCH  15  16
ENDBRANCH  11  15
ENDBRANCH   7  11
ENDBRANCH   1   9
BRANCH   1  22
ATOM     22  C   UNL     1       3.711   6.922  18.176  0.00  0.00    +0.000 C 
BRANCH  22  23
ATOM     23  C   UNL     1       2.648   6.032  18.807  0.00  0.00    +0.000 A 
ATOM     24  C   UNL     1       1.978   6.334  19.989  0.00  0.00    +0.000 A 
ATOM     25  N   UNL     1       1.319   5.211  20.398  0.00  0.00    +0.000 N 
ATOM     26  C   UNL     1       1.559   4.158  19.552  0.00  0.00    +0.000 A 
ATOM     27  C   UNL     1       1.214   2.805  19.678  0.00  0.00    +0.000 A 
ATOM     28  C   UNL     1       1.643   1.921  18.685  0.00  0.00    +0.000 A 
ATOM     29  C   UNL     1       2.327   2.385  17.573  0.00  0.00    +0.000 A 
ATOM     30  C   UNL     1       2.621   3.746  17.446  0.00  0.00    +0.000 A 
ATOM     31  C   UNL     1       2.290   4.661  18.476  0.00  0.00    +0.000 A 
ATOM     32  H   UNL     1       0.772   5.163  21.247  0.00  0.00    +0.000 HD
BRANCH  24  33
ATOM     33  S   UNL     1       2.030   7.777  20.974  0.00  0.00    +0.000 S 
BRANCH  33  34
ATOM     34  C   UNL     1       0.993   9.004  20.173  0.00  0.00    +0.000 A 
ATOM     35  N   UNL     1       1.211   9.234  18.847  0.00  0.00    +0.000 NA
ATOM     36  C   UNL     1       0.459  10.161  18.206  0.00  0.00    +0.000 A 
ATOM     37  C   UNL     1      -0.554  10.880  18.814  0.00  0.00    +0.000 A 
ATOM     38  C   UNL     1      -0.794  10.647  20.162  0.00  0.00    +0.000 A 
ATOM     39  C   UNL     1       0.006   9.718  20.838  0.00  0.00    +0.000 A 
BRANCH  39  40
ATOM     40  N   UNL     1      -0.218   9.563  22.255  0.00  0.00    +0.000 N 
ATOM     41  O   UNL     1       0.256  10.426  23.000  0.00  0.00    +0.000 OA
ATOM     42  O   UNL     1      -0.954   8.632  22.610  0.00  0.00    +0.000 OA
ENDBRANCH  39  40
ENDBRANCH  33  34
ENDBRANCH  24  33
ENDBRANCH  22  23
ENDBRANCH   1  22
TORSDOF 14
ENDMDL
MODEL 8
REMARK VINA RESULT:      -7.3      2.054      2.560
REMARK  Name = 
REMARK  14 active torsions:
REMARK  status: ('A' for Active; 'I' for Inactive)
REMARK    1  A    between atoms: N_1  and  C_2
REMARK    2  A    between atoms: C_2  and  C_3
REMARK    3  A    between atoms: C_3  and  C_4
REMARK    4  A    between atoms: C_4  and  C_5
REMARK    5  A    between atoms: C_5  and  C_6
REMARK    6  A    between atoms: C_6  and  N_7
REMARK    7  A    between atoms: C_6  and  C_8
REMARK    8  A    between atoms: N_10  and  C_11
REMARK    9  A    between atoms: C_11  and  C_12
REMARK   10  A    between atoms: C_11  and  C_32
REMARK   11  A    between atoms: C_12  and  C_13
REMARK   12  A    between atoms: C_14  and  S_15
REMARK   13  A    between atoms: S_15  and  C_16
REMARK   14  A    between atoms: C_21  and  N_22
REMARK                            x       y       z     vdW  Elec       q    Type
REMARK                         _______ _______ _______ _____ _____    ______ ____
ROOT
ATOM      1  C   UNL     1       5.223   6.047  17.801  0.00  0.00    +0.000 C 
ENDROOT
BRANCH   1   2
ATOM      2  C   UNL     1       5.421   5.051  18.953  0.00  0.00    +0.000 C 
ATOM      3  N   UNL     1       5.810   3.791  18.576  0.00  0.00    +0.000 N 
ATOM      4  O   UNL     1       5.206   5.298  20.137  0.00  0.00    +0.000 OA
ATOM      5  H   UNL     1       5.891   3.493  17.612  0.00  0.00    +0.000 HD
ATOM      6  H   UNL     1       5.886   3.088  19.301  0.00  0.00    +0.000 HD
ENDBRANCH   1   2
BRANCH   1   9
ATOM      7  C   UNL     1       5.664   5.977  15.307  0.00  0.00    +0.000 C 
ATOM      8  O   UNL     1       4.976   6.953  15.023  0.00  0.00    +0.000 OA
ATOM      9  N   UNL     1       5.728   5.424  16.564  0.00  0.00    +0.000 N 
ATOM     10  H   UNL     1       6.094   4.489  16.645  0.00  0.00    +0.000 HD
BRANCH   7  11
ATOM     11  C   UNL     1       6.460   5.270  14.189  0.00  0.00    +0.000 C 
BRANCH  11  12
ATOM     12  N   UNL     1       7.872   5.029  14.552  0.00  0.00    +0.000 NA
ATOM     13  H   UNL     1       8.185   5.661  15.277  0.00  0.00    +0.000 HD
ATOM     14  H   UNL     1       8.441   5.192  13.721  0.00  0.00    +0.000 HD
ENDBRANCH  11  12
BRANCH  11  15
ATOM     15  C   UNL     1       5.734   3.980  13.790  0.00  0.00    +0.000 C 
BRANCH  15  16
ATOM     16  C   UNL     1       6.193   3.552  12.391  0.00  0.00    +0.000 C 
BRANCH  16  17
ATOM     17  C   UNL     1       5.504   2.321  11.833  0.00  0.00    +0.000 C 
BRANCH  17  18
ATOM     18  C   UNL     1       6.573   1.436  11.187  0.00  0.00    +0.000 C 
BRANCH  18  19
ATOM     19  N   UNL     1       6.177   0.038  11.220  0.00  0.00    +0.000 NA
ATOM     20  H   UNL     1       5.265  -0.050  10.772  0.00  0.00    +0.000 HD
ATOM     21  H   UNL     1       6.039  -0.242  12.191  0.00  0.00    +0.000 HD
ENDBRANCH  18  19
ENDBRANCH  17  18
ENDBRANCH  16  17
ENDBRANCH  15  16
ENDBRANCH  11  15
ENDBRANCH   7  11
ENDBRANCH   1   9
BRANCH   1  22
ATOM     22  C   UNL     1       3.792   6.614  17.818  0.00  0.00    +0.000 C 
BRANCH  22  23
ATOM     23  C   UNL     1       2.731   5.779  18.524  0.00  0.00    +0.000 A 
ATOM     24  C   UNL     1       2.103   6.155  19.708  0.00  0.00    +0.000 A 
ATOM     25  N   UNL     1       1.435   5.068  20.194  0.00  0.00    +0.000 N 
ATOM     26  C   UNL     1       1.628   3.969  19.396  0.00  0.00    +0.000 A 
ATOM     27  C   UNL     1       1.260   2.631  19.601  0.00  0.00    +0.000 A 
ATOM     28  C   UNL     1       1.642   1.690  18.642  0.00  0.00    +0.000 A 
ATOM     29  C   UNL     1       2.301   2.083  17.488  0.00  0.00    +0.000 A 
ATOM     30  C   UNL     1       2.619   3.429  17.283  0.00  0.00    +0.000 A 
ATOM     31  C   UNL     1       2.337   4.401  18.274  0.00  0.00    +0.000 A 
ATOM     32  H   UNL     1       0.913   5.075  21.059  0.00  0.00    +0.000 HD
BRANCH  24  33
ATOM     33  S   UNL     1       2.213   7.645  20.616  0.00  0.00    +0.000 S 
BRANCH  33  34
ATOM     34  C   UNL     1       1.102   8.822  19.841  0.00  0.00    +0.000 A 
ATOM     35  N   UNL     1       1.268   9.050  18.508  0.00  0.00    +0.000 NA
ATOM     36  C   UNL     1       0.458   9.941  17.886  0.00  0.00    +0.000 A 
ATOM     37  C   UNL     1      -0.564  10.622  18.522  0.00  0.00    +0.000 A 
ATOM     38  C   UNL     1      -0.751  10.390  19.877  0.00  0.00    +0.000 A 
ATOM     39  C   UNL     1       0.108   9.500  20.534  0.00  0.00    +0.000 A 
BRANCH  39  40
ATOM     40  N   UNL     1      -0.064   9.346  21.957  0.00  0.00    +0.000 N 
ATOM     41  O   UNL     1      -0.786   8.421  22.343  0.00  0.00    +0.000 OA
ATOM     42  O   UNL     1       0.605  10.088  22.690  0.00  0.00    +0.000 OA
ENDBRANCH  39  40
ENDBRANCH  33  34
ENDBRANCH  24  33
ENDBRANCH  22  23
ENDBRANCH   1  22
TORSDOF 14
ENDMDL
MODEL 9
REMARK VINA RESULT:      -7.3      2.797      9.435
REMARK  Name = 
REMARK  14 active torsions:
REMARK  status: ('A' for Active; 'I' for Inactive)
REMARK    1  A    between atoms: N_1  and  C_2
REMARK    2  A    between atoms: C_2  and  C_3
REMARK    3  A    between atoms: C_3  and  C_4
REMARK    4  A    between atoms: C_4  and  C_5
REMARK    5  A    between atoms: C_5  and  C_6
REMARK    6  A    between atoms: C_6  and  N_7
REMARK    7  A    between atoms: C_6  and  C_8
REMARK    8  A    between atoms: N_10  and  C_11
REMARK    9  A    between atoms: C_11  and  C_12
REMARK   10  A    between atoms: C_11  and  C_32
REMARK   11  A    between atoms: C_12  and  C_13
REMARK   12  A    between atoms: C_14  and  S_15
REMARK   13  A    between atoms: S_15  and  C_16
REMARK   14  A    between atoms: C_21  and  N_22
REMARK                            x       y       z     vdW  Elec       q    Type
REMARK                         _______ _______ _______ _____ _____    ______ ____
ROOT
ATOM      1  C   UNL     1       1.447   8.743  19.151  0.00  0.00    +0.000 C 
ENDROOT
BRANCH   1   2
ATOM      2  C   UNL     1       1.186   9.845  18.114  0.00  0.00    +0.000 C 
ATOM      3  N   UNL     1       2.274  10.614  17.791  0.00  0.00    +0.000 N 
ATOM      4  O   UNL     1       0.089  10.098  17.622  0.00  0.00    +0.000 OA
ATOM      5  H   UNL     1       3.175  10.531  18.246  0.00  0.00    +0.000 HD
ATOM      6  H   UNL     1       2.127  11.393  17.162  0.00  0.00    +0.000 HD
ENDBRANCH   1   2
BRANCH   1   9
ATOM      7  C   UNL     1       0.869   8.960  21.608  0.00  0.00    +0.000 C 
ATOM      8  O   UNL     1       1.955   8.579  22.034  0.00  0.00    +0.000 OA
ATOM      9  N   UNL     1       0.519   8.945  20.278  0.00  0.00    +0.000 N 
ATOM     10  H   UNL     1      -0.460   9.017  20.052  0.00  0.00    +0.000 HD
BRANCH   7  11
ATOM     11  C   UNL     1      -0.210   9.423  22.611  0.00  0.00    +0.000 C 
BRANCH  11  12
ATOM     12  N   UNL     1       0.295   9.522  23.995  0.00  0.00    +0.000 NA
ATOM     13  H   UNL     1       1.254   9.841  24.022  0.00  0.00    +0.000 HD
ATOM     14  H   UNL     1       0.259   8.590  24.409  0.00  0.00    +0.000 HD
ENDBRANCH  11  12
BRANCH  11  15
ATOM     15  C   UNL     1      -0.825  10.739  22.120  0.00  0.00    +0.000 C 
BRANCH  15  16
ATOM     16  C   UNL     1      -1.653  11.364  23.249  0.00  0.00    +0.000 C 
BRANCH  16  17
ATOM     17  C   UNL     1      -2.753  12.306  22.799  0.00  0.00    +0.000 C 
BRANCH  17  18
ATOM     18  C   UNL     1      -3.507  12.777  24.046  0.00  0.00    +0.000 C 
BRANCH  18  19
ATOM     19  N   UNL     1      -4.799  12.120  24.149  0.00  0.00    +0.000 NA
ATOM     20  H   UNL     1      -5.529  12.825  24.056  0.00  0.00    +0.000 HD
ATOM     21  H   UNL     1      -4.899  11.736  25.089  0.00  0.00    +0.000 HD
ENDBRANCH  18  19
ENDBRANCH  17  18
ENDBRANCH  16  17
ENDBRANCH  15  16
ENDBRANCH  11  15
ENDBRANCH   7  11
ENDBRANCH   1   9
BRANCH   1  22
ATOM     22  C   UNL     1       1.500   7.364  18.470  0.00  0.00    +0.000 C 
BRANCH  22  23
ATOM     23  C   UNL     1       2.484   6.351  19.043  0.00  0.00    +0.000 A 
ATOM     24  C   UNL     1       3.816   6.251  18.653  0.00  0.00    +0.000 A 
ATOM     25  N   UNL     1       4.314   5.081  19.151  0.00  0.00    +0.000 N 
ATOM     26  C   UNL     1       3.348   4.378  19.825  0.00  0.00    +0.000 A 
ATOM     27  C   UNL     1       3.382   3.078  20.351  0.00  0.00    +0.000 A 
ATOM     28  C   UNL     1       2.220   2.577  20.943  0.00  0.00    +0.000 A 
ATOM     29  C   UNL     1       1.092   3.371  21.069  0.00  0.00    +0.000 A 
ATOM     30  C   UNL     1       1.094   4.680  20.577  0.00  0.00    +0.000 A 
ATOM     31  C   UNL     1       2.218   5.194  19.883  0.00  0.00    +0.000 A 
ATOM     32  H   UNL     1       5.259   4.764  18.989  0.00  0.00    +0.000 HD
BRANCH  24  33
ATOM     33  S   UNL     1       4.752   7.262  17.577  0.00  0.00    +0.000 S 
BRANCH  33  34
ATOM     34  C   UNL     1       5.685   6.171  16.500  0.00  0.00    +0.000 A 
ATOM     35  N   UNL     1       5.151   5.897  15.276  0.00  0.00    +0.000 NA
ATOM     36  C   UNL     1       5.817   5.068  14.437  0.00  0.00    +0.000 A 
ATOM     37  C   UNL     1       7.040   4.496  14.734  0.00  0.00    +0.000 A 
ATOM     38  C   UNL     1       7.601   4.776  15.973  0.00  0.00    +0.000 A 
ATOM     39  C   UNL     1       6.899   5.601  16.860  0.00  0.00    +0.000 A 
BRANCH  39  40
ATOM     40  N   UNL     1       7.473   5.804  18.167  0.00  0.00    +0.000 N 
ATOM     41  O   UNL     1       7.372   4.878  18.979  0.00  0.00    +0.000 OA
ATOM     42  O   UNL     1       8.114   6.849  18.346  0.00  0.00    +0.000 OA
ENDBRANCH  39  40
ENDBRANCH  33  34
ENDBRANCH  24  33
ENDBRANCH  22  23
ENDBRANCH   1  22
TORSDOF 14
ENDMDL
