MODEL 1
REMARK VINA RESULT:      -8.4      0.000      0.000
REMARK  Name = 
REMARK  5 active torsions:
REMARK  status: ('A' for Active; 'I' for Inactive)
REMARK    1  A    between atoms: C_1  and  C_2
REMARK    2  A    between atoms: C_5  and  C_6
REMARK    3  A    between atoms: N_11  and  C_12
REMARK    4  A    between atoms: C_21  and  N_22
REMARK    5  A    between atoms: C_23  and  C_25
REMARK                            x       y       z     vdW  Elec       q    Type
REMARK                         _______ _______ _______ _____ _____    ______ ____
ROOT
ATOM      1  C   UNL     1       3.247   4.580  19.791  0.00  0.00    +0.000 C 
ATOM      2  C   UNL     1       2.758   5.972  19.496  0.00  0.00    +0.000 A 
ATOM      3  C   UNL     1       1.966   6.599  20.479  0.00  0.00    +0.000 A 
ATOM      4  C   UNL     1       1.473   7.888  20.289  0.00  0.00    +0.000 A 
ATOM      5  C   UNL     1       1.771   8.580  19.117  0.00  0.00    +0.000 A 
ATOM      6  C   UNL     1       2.592   7.979  18.158  0.00  0.00    +0.000 A 
ATOM      7  C   UNL     1       3.057   6.663  18.301  0.00  0.00    +0.000 A 
ENDROOT
BRANCH   5   8
ATOM      8  C   UNL     1       1.348  10.000  19.011  0.00  0.00    +0.000 C 
ATOM      9  O   UNL     1       1.559  10.556  17.933  0.00  0.00    +0.000 OA
ATOM     10  N   UNL     1       0.697  10.639  20.058  0.00  0.00    +0.000 N 
ATOM     11  C   UNL     1       0.090  11.948  19.792  0.00  0.00    +0.000 C 
ATOM     12  C   UNL     1      -1.327  12.008  20.379  0.00  0.00    +0.000 C 
ATOM     13  N   UNL     1      -1.286  11.687  21.816  0.00  0.00    +0.000 N 
ATOM     14  C   UNL     1      -0.668  10.387  22.147  0.00  0.00    +0.000 C 
ATOM     15  C   UNL     1       0.733  10.288  21.491  0.00  0.00    +0.000 C 
BRANCH  13  16
ATOM     16  C   UNL     1      -1.800  12.540  22.770  0.00  0.00    +0.000 A 
ATOM     17  C   UNL     1      -3.033  12.301  23.392  0.00  0.00    +0.000 A 
ATOM     18  C   UNL     1      -3.558  13.178  24.349  0.00  0.00    +0.000 A 
ATOM     19  C   UNL     1      -2.851  14.318  24.716  0.00  0.00    +0.000 A 
ATOM     20  C   UNL     1      -1.621  14.577  24.125  0.00  0.00    +0.000 A 
ATOM     21  C   UNL     1      -1.109  13.696  23.166  0.00  0.00    +0.000 A 
ENDBRANCH  13  16
ENDBRANCH   5   8
BRANCH   7  22
ATOM     22  N   UNL     1       3.844   6.045  17.293  0.00  0.00    +0.000 N 
ATOM     23  C   UNL     1       5.164   6.340  16.960  0.00  0.00    +0.000 C 
ATOM     24  O   UNL     1       5.822   7.261  17.438  0.00  0.00    +0.000 OA
ATOM     25  H   UNL     1       3.411   5.326  16.726  0.00  0.00    +0.000 HD
BRANCH  23  26
ATOM     26  C   UNL     1       5.740   5.463  15.957  0.00  0.00    +0.000 A 
ATOM     27  C   UNL     1       5.307   4.231  15.499  0.00  0.00    +0.000 A 
ATOM     28  C   UNL     1       6.212   3.824  14.493  0.00  0.00    +0.000 A 
ATOM     29  C   UNL     1       7.151   4.824  14.403  0.00  0.00    +0.000 A 
ATOM     30  O   UNL     1       6.880   5.823  15.286  0.00  0.00    +0.000 OA
ENDBRANCH  23  26
ENDBRANCH   7  22
TORSDOF 4
ENDMDL
MODEL 2
REMARK VINA RESULT:      -8.2      2.655      3.323
REMARK  Name = 
REMARK  5 active torsions:
REMARK  status: ('A' for Active; 'I' for Inactive)
REMARK    1  A    between atoms: C_1  and  C_2
REMARK    2  A    between atoms: C_5  and  C_6
REMARK    3  A    between atoms: N_11  and  C_12
REMARK    4  A    between atoms: C_21  and  N_22
REMARK    5  A    between atoms: C_23  and  C_25
REMARK                            x       y       z     vdW  Elec       q    Type
REMARK                         _______ _______ _______ _____ _____    ______ ____
ROOT
ATOM      1  C   UNL     1       3.310   5.079  19.827  0.00  0.00    +0.000 C 
ATOM      2  C   UNL     1       2.777   6.426  19.421  0.00  0.00    +0.000 A 
ATOM      3  C   UNL     1       1.988   7.118  20.361  0.00  0.00    +0.000 A 
ATOM      4  C   UNL     1       1.456   8.373  20.069  0.00  0.00    +0.000 A 
ATOM      5  C   UNL     1       1.713   8.965  18.835  0.00  0.00    +0.000 A 
ATOM      6  C   UNL     1       2.531   8.302  17.915  0.00  0.00    +0.000 A 
ATOM      7  C   UNL     1       3.034   7.016  18.163  0.00  0.00    +0.000 A 
ENDROOT
BRANCH   5   8
ATOM      8  C   UNL     1       1.249  10.358  18.613  0.00  0.00    +0.000 C 
ATOM      9  O   UNL     1       2.116  11.187  18.334  0.00  0.00    +0.000 OA
ATOM     10  N   UNL     1      -0.098  10.688  18.663  0.00  0.00    +0.000 N 
ATOM     11  C   UNL     1      -0.499  12.017  18.189  0.00  0.00    +0.000 C 
ATOM     12  C   UNL     1      -1.727  11.910  17.276  0.00  0.00    +0.000 C 
ATOM     13  N   UNL     1      -2.815  11.212  17.981  0.00  0.00    +0.000 N 
ATOM     14  C   UNL     1      -2.465   9.873  18.497  0.00  0.00    +0.000 C 
ATOM     15  C   UNL     1      -1.179   9.962  19.358  0.00  0.00    +0.000 C 
BRANCH  13  16
ATOM     16  C   UNL     1      -4.066  11.772  18.131  0.00  0.00    +0.000 A 
ATOM     17  C   UNL     1      -4.522  12.250  19.368  0.00  0.00    +0.000 A 
ATOM     18  C   UNL     1      -5.798  12.805  19.519  0.00  0.00    +0.000 A 
ATOM     19  C   UNL     1      -6.653  12.903  18.426  0.00  0.00    +0.000 A 
ATOM     20  C   UNL     1      -6.227  12.447  17.186  0.00  0.00    +0.000 A 
ATOM     21  C   UNL     1      -4.951  11.891  17.047  0.00  0.00    +0.000 A 
ENDBRANCH  13  16
ENDBRANCH   5   8
BRANCH   7  22
ATOM     22  N   UNL     1       3.818   6.332  17.197  0.00  0.00    +0.000 N 
ATOM     23  C   UNL     1       5.165   6.539  16.909  0.00  0.00    +0.000 C 
ATOM     24  O   UNL     1       5.860   7.427  17.395  0.00  0.00    +0.000 OA
ATOM     25  H   UNL     1       3.362   5.629  16.627  0.00  0.00    +0.000 HD
BRANCH  23  26
ATOM     26  C   UNL     1       5.722   5.608  15.944  0.00  0.00    +0.000 A 
ATOM     27  C   UNL     1       5.175   4.460  15.397  0.00  0.00    +0.000 A 
ATOM     28  C   UNL     1       6.122   3.948  14.483  0.00  0.00    +0.000 A 
ATOM     29  C   UNL     1       7.196   4.805  14.531  0.00  0.00    +0.000 A 
ATOM     30  O   UNL     1       6.970   5.815  15.415  0.00  0.00    +0.000 OA
ENDBRANCH  23  26
ENDBRANCH   7  22
TORSDOF 4
ENDMDL
MODEL 3
REMARK VINA RESULT:      -8.2      0.549      1.030
REMARK  Name = 
REMARK  5 active torsions:
REMARK  status: ('A' for Active; 'I' for Inactive)
REMARK    1  A    between atoms: C_1  and  C_2
REMARK    2  A    between atoms: C_5  and  C_6
REMARK    3  A    between atoms: N_11  and  C_12
REMARK    4  A    between atoms: C_21  and  N_22
REMARK    5  A    between atoms: C_23  and  C_25
REMARK                            x       y       z     vdW  Elec       q    Type
REMARK                         _______ _______ _______ _____ _____    ______ ____
ROOT
ATOM      1  C   UNL     1       3.573   4.560  19.354  0.00  0.00    +0.000 C 
ATOM      2  C   UNL     1       3.069   5.948  19.067  0.00  0.00    +0.000 A 
ATOM      3  C   UNL     1       2.299   6.574  20.068  0.00  0.00    +0.000 A 
ATOM      4  C   UNL     1       1.794   7.860  19.887  0.00  0.00    +0.000 A 
ATOM      5  C   UNL     1       2.057   8.550  18.705  0.00  0.00    +0.000 A 
ATOM      6  C   UNL     1       2.857   7.950  17.727  0.00  0.00    +0.000 A 
ATOM      7  C   UNL     1       3.333   6.637  17.863  0.00  0.00    +0.000 A 
ENDROOT
BRANCH   5   8
ATOM      8  C   UNL     1       1.624   9.966  18.606  0.00  0.00    +0.000 C 
ATOM      9  O   UNL     1       1.873  10.544  17.548  0.00  0.00    +0.000 OA
ATOM     10  N   UNL     1       0.922  10.581  19.634  0.00  0.00    +0.000 N 
ATOM     11  C   UNL     1       0.312  11.888  19.366  0.00  0.00    +0.000 C 
ATOM     12  C   UNL     1      -1.128  11.923  19.894  0.00  0.00    +0.000 C 
ATOM     13  N   UNL     1      -1.145  11.577  21.325  0.00  0.00    +0.000 N 
ATOM     14  C   UNL     1      -0.527  10.278  21.660  0.00  0.00    +0.000 C 
ATOM     15  C   UNL     1       0.901  10.205  21.061  0.00  0.00    +0.000 C 
BRANCH  13  16
ATOM     16  C   UNL     1      -1.707  12.408  22.270  0.00  0.00    +0.000 A 
ATOM     17  C   UNL     1      -0.957  13.382  22.944  0.00  0.00    +0.000 A 
ATOM     18  C   UNL     1      -1.529  14.214  23.914  0.00  0.00    +0.000 A 
ATOM     19  C   UNL     1      -2.878  14.095  24.231  0.00  0.00    +0.000 A 
ATOM     20  C   UNL     1      -3.651  13.146  23.573  0.00  0.00    +0.000 A 
ATOM     21  C   UNL     1      -3.068  12.317  22.609  0.00  0.00    +0.000 A 
ENDBRANCH  13  16
ENDBRANCH   5   8
BRANCH   7  22
ATOM     22  N   UNL     1       4.096   6.020  16.836  0.00  0.00    +0.000 N 
ATOM     23  C   UNL     1       5.398   6.337  16.453  0.00  0.00    +0.000 C 
ATOM     24  O   UNL     1       6.052   7.278  16.894  0.00  0.00    +0.000 OA
ATOM     25  H   UNL     1       3.659   5.284  16.296  0.00  0.00    +0.000 HD
BRANCH  23  26
ATOM     26  C   UNL     1       5.956   5.456  15.442  0.00  0.00    +0.000 A 
ATOM     27  C   UNL     1       5.380   4.387  14.778  0.00  0.00    +0.000 A 
ATOM     28  C   UNL     1       6.347   3.898  13.871  0.00  0.00    +0.000 A 
ATOM     29  C   UNL     1       7.459   4.687  14.042  0.00  0.00    +0.000 A 
ATOM     30  O   UNL     1       7.239   5.635  14.993  0.00  0.00    +0.000 OA
ENDBRANCH  23  26
ENDBRANCH   7  22
TORSDOF 4
ENDMDL
MODEL 4
REMARK VINA RESULT:      -7.8      3.296     10.803
REMARK  Name = 
REMARK  5 active torsions:
REMARK  status: ('A' for Active; 'I' for Inactive)
REMARK    1  A    between atoms: C_1  and  C_2
REMARK    2  A    between atoms: C_5  and  C_6
REMARK    3  A    between atoms: N_11  and  C_12
REMARK    4  A    between atoms: C_21  and  N_22
REMARK    5  A    between atoms: C_23  and  C_25
REMARK                            x       y       z     vdW  Elec       q    Type
REMARK                         _______ _______ _______ _____ _____    ______ ____
ROOT
ATOM      1  C   UNL     1      -1.574  14.745  23.849  0.00  0.00    +0.000 C 
ATOM      2  C   UNL     1      -1.397  13.954  22.582  0.00  0.00    +0.000 A 
ATOM      3  C   UNL     1      -0.077  13.685  22.167  0.00  0.00    +0.000 A 
ATOM      4  C   UNL     1       0.179  12.958  21.007  0.00  0.00    +0.000 A 
ATOM      5  C   UNL     1      -0.882  12.475  20.243  0.00  0.00    +0.000 A 
ATOM      6  C   UNL     1      -2.193  12.701  20.672  0.00  0.00    +0.000 A 
ATOM      7  C   UNL     1      -2.477  13.475  21.807  0.00  0.00    +0.000 A 
ENDROOT
BRANCH   5   8
ATOM      8  C   UNL     1      -0.573  11.586  19.094  0.00  0.00    +0.000 C 
ATOM      9  O   UNL     1      -0.806  12.039  17.972  0.00  0.00    +0.000 OA
ATOM     10  N   UNL     1       0.002  10.337  19.281  0.00  0.00    +0.000 N 
ATOM     11  C   UNL     1       0.506   9.628  18.100  0.00  0.00    +0.000 C 
ATOM     12  C   UNL     1       1.901   9.052  18.378  0.00  0.00    +0.000 C 
ATOM     13  N   UNL     1       1.857   8.193  19.574  0.00  0.00    +0.000 N 
ATOM     14  C   UNL     1       1.340   8.848  20.793  0.00  0.00    +0.000 C 
ATOM     15  C   UNL     1      -0.035   9.501  20.496  0.00  0.00    +0.000 C 
BRANCH  13  16
ATOM     16  C   UNL     1       2.280   6.881  19.547  0.00  0.00    +0.000 A 
ATOM     17  C   UNL     1       1.796   5.927  20.453  0.00  0.00    +0.000 A 
ATOM     18  C   UNL     1       2.240   4.599  20.432  0.00  0.00    +0.000 A 
ATOM     19  C   UNL     1       3.179   4.189  19.491  0.00  0.00    +0.000 A 
ATOM     20  C   UNL     1       3.669   5.110  18.574  0.00  0.00    +0.000 A 
ATOM     21  C   UNL     1       3.222   6.435  18.607  0.00  0.00    +0.000 A 
ENDBRANCH  13  16
ENDBRANCH   5   8
BRANCH   7  22
ATOM     22  N   UNL     1      -3.815  13.744  22.201  0.00  0.00    +0.000 N 
ATOM     23  C   UNL     1      -4.556  13.074  23.172  0.00  0.00    +0.000 C 
ATOM     24  O   UNL     1      -4.181  12.072  23.775  0.00  0.00    +0.000 OA
ATOM     25  H   UNL     1      -4.313  14.484  21.719  0.00  0.00    +0.000 HD
BRANCH  23  26
ATOM     26  C   UNL     1      -5.864  13.648  23.430  0.00  0.00    +0.000 A 
ATOM     27  C   UNL     1      -6.860  13.235  24.299  0.00  0.00    +0.000 A 
ATOM     28  C   UNL     1      -7.916  14.167  24.187  0.00  0.00    +0.000 A 
ATOM     29  C   UNL     1      -7.510  15.087  23.249  0.00  0.00    +0.000 A 
ATOM     30  O   UNL     1      -6.269  14.784  22.779  0.00  0.00    +0.000 OA
ENDBRANCH  23  26
ENDBRANCH   7  22
TORSDOF 4
ENDMDL
MODEL 5
REMARK VINA RESULT:      -7.8      2.753      4.638
REMARK  Name = 
REMARK  5 active torsions:
REMARK  status: ('A' for Active; 'I' for Inactive)
REMARK    1  A    between atoms: C_1  and  C_2
REMARK    2  A    between atoms: C_5  and  C_6
REMARK    3  A    between atoms: N_11  and  C_12
REMARK    4  A    between atoms: C_21  and  N_22
REMARK    5  A    between atoms: C_23  and  C_25
REMARK                            x       y       z     vdW  Elec       q    Type
REMARK                         _______ _______ _______ _____ _____    ______ ____
ROOT
ATOM      1  C   UNL     1       7.896   4.591  16.926  0.00  0.00    +0.000 C 
ATOM      2  C   UNL     1       6.574   4.725  17.631  0.00  0.00    +0.000 A 
ATOM      3  C   UNL     1       6.598   5.174  18.967  0.00  0.00    +0.000 A 
ATOM      4  C   UNL     1       5.420   5.329  19.695  0.00  0.00    +0.000 A 
ATOM      5  C   UNL     1       4.193   5.049  19.097  0.00  0.00    +0.000 A 
ATOM      6  C   UNL     1       4.161   4.644  17.759  0.00  0.00    +0.000 A 
ATOM      7  C   UNL     1       5.334   4.430  17.021  0.00  0.00    +0.000 A 
ENDROOT
BRANCH   5   8
ATOM      8  C   UNL     1       2.954   5.360  19.855  0.00  0.00    +0.000 C 
ATOM      9  O   UNL     1       2.651   4.577  20.755  0.00  0.00    +0.000 OA
ATOM     10  N   UNL     1       2.216   6.506  19.593  0.00  0.00    +0.000 N 
ATOM     11  C   UNL     1       1.158   6.874  20.540  0.00  0.00    +0.000 C 
ATOM     12  C   UNL     1       1.233   8.371  20.869  0.00  0.00    +0.000 C 
ATOM     13  N   UNL     1       1.176   9.159  19.626  0.00  0.00    +0.000 N 
ATOM     14  C   UNL     1       2.207   8.821  18.625  0.00  0.00    +0.000 C 
ATOM     15  C   UNL     1       2.189   7.296  18.346  0.00  0.00    +0.000 C 
BRANCH  13  16
ATOM     16  C   UNL     1       0.232  10.144  19.429  0.00  0.00    +0.000 A 
ATOM     17  C   UNL     1       0.003  11.153  20.375  0.00  0.00    +0.000 A 
ATOM     18  C   UNL     1      -0.968  12.143  20.177  0.00  0.00    +0.000 A 
ATOM     19  C   UNL     1      -1.733  12.151  19.015  0.00  0.00    +0.000 A 
ATOM     20  C   UNL     1      -1.523  11.170  18.055  0.00  0.00    +0.000 A 
ATOM     21  C   UNL     1      -0.553  10.184  18.265  0.00  0.00    +0.000 A 
ENDBRANCH  13  16
ENDBRANCH   5   8
BRANCH   7  22
ATOM     22  N   UNL     1       5.288   3.965  15.680  0.00  0.00    +0.000 N 
ATOM     23  C   UNL     1       5.582   4.693  14.529  0.00  0.00    +0.000 C 
ATOM     24  O   UNL     1       5.837   5.894  14.502  0.00  0.00    +0.000 OA
ATOM     25  H   UNL     1       4.989   3.011  15.518  0.00  0.00    +0.000 HD
BRANCH  23  26
ATOM     26  C   UNL     1       5.551   3.915  13.304  0.00  0.00    +0.000 A 
ATOM     27  C   UNL     1       6.581   3.296  12.618  0.00  0.00    +0.000 A 
ATOM     28  C   UNL     1       6.002   2.645  11.506  0.00  0.00    +0.000 A 
ATOM     29  C   UNL     1       4.656   2.912  11.570  0.00  0.00    +0.000 A 
ATOM     30  O   UNL     1       4.367   3.685  12.653  0.00  0.00    +0.000 OA
ENDBRANCH  23  26
ENDBRANCH   7  22
TORSDOF 4
ENDMDL
MODEL 6
REMARK VINA RESULT:      -7.5      3.062      9.727
REMARK  Name = 
REMARK  5 active torsions:
REMARK  status: ('A' for Active; 'I' for Inactive)
REMARK    1  A    between atoms: C_1  and  C_2
REMARK    2  A    between atoms: C_5  and  C_6
REMARK    3  A    between atoms: N_11  and  C_12
REMARK    4  A    between atoms: C_21  and  N_22
REMARK    5  A    between atoms: C_23  and  C_25
REMARK                            x       y       z     vdW  Elec       q    Type
REMARK                         _______ _______ _______ _____ _____    ______ ____
ROOT
ATOM      1  C   UNL     1       0.494  14.880  21.931  0.00  0.00    +0.000 C 
ATOM      2  C   UNL     1       0.721  13.730  20.988  0.00  0.00    +0.000 A 
ATOM      3  C   UNL     1       1.951  13.692  20.300  0.00  0.00    +0.000 A 
ATOM      4  C   UNL     1       2.246  12.662  19.410  0.00  0.00    +0.000 A 
ATOM      5  C   UNL     1       1.320  11.643  19.196  0.00  0.00    +0.000 A 
ATOM      6  C   UNL     1       0.116  11.652  19.908  0.00  0.00    +0.000 A 
ATOM      7  C   UNL     1      -0.227  12.705  20.769  0.00  0.00    +0.000 A 
ENDROOT
BRANCH   5   8
ATOM      8  C   UNL     1       1.724  10.491  18.350  0.00  0.00    +0.000 C 
ATOM      9  O   UNL     1       2.214  10.761  17.253  0.00  0.00    +0.000 OA
ATOM     10  N   UNL     1       1.607   9.185  18.805  0.00  0.00    +0.000 N 
ATOM     11  C   UNL     1       2.254   8.124  18.025  0.00  0.00    +0.000 C 
ATOM     12  C   UNL     1       3.022   7.173  18.952  0.00  0.00    +0.000 C 
ATOM     13  N   UNL     1       2.116   6.640  19.983  0.00  0.00    +0.000 N 
ATOM     14  C   UNL     1       1.420   7.663  20.790  0.00  0.00    +0.000 C 
ATOM     15  C   UNL     1       0.706   8.674  19.857  0.00  0.00    +0.000 C 
BRANCH  13  16
ATOM     16  C   UNL     1       1.946   5.286  20.178  0.00  0.00    +0.000 A 
ATOM     17  C   UNL     1       1.311   4.473  19.228  0.00  0.00    +0.000 A 
ATOM     18  C   UNL     1       1.128   3.101  19.436  0.00  0.00    +0.000 A 
ATOM     19  C   UNL     1       1.587   2.503  20.605  0.00  0.00    +0.000 A 
ATOM     20  C   UNL     1       2.229   3.279  21.560  0.00  0.00    +0.000 A 
ATOM     21  C   UNL     1       2.403   4.650  21.344  0.00  0.00    +0.000 A 
ENDBRANCH  13  16
ENDBRANCH   5   8
BRANCH   7  22
ATOM     22  N   UNL     1      -1.477  12.730  21.443  0.00  0.00    +0.000 N 
ATOM     23  C   UNL     1      -1.800  12.089  22.636  0.00  0.00    +0.000 C 
ATOM     24  O   UNL     1      -1.062  11.317  23.243  0.00  0.00    +0.000 OA
ATOM     25  H   UNL     1      -2.237  13.243  21.014  0.00  0.00    +0.000 HD
BRANCH  23  26
ATOM     26  C   UNL     1      -3.129  12.389  23.138  0.00  0.00    +0.000 A 
ATOM     27  C   UNL     1      -4.134  13.164  22.585  0.00  0.00    +0.000 A 
ATOM     28  C   UNL     1      -5.237  13.096  23.464  0.00  0.00    +0.000 A 
ATOM     29  C   UNL     1      -4.840  12.294  24.508  0.00  0.00    +0.000 A 
ATOM     30  O   UNL     1      -3.563  11.861  24.326  0.00  0.00    +0.000 OA
ENDBRANCH  23  26
ENDBRANCH   7  22
TORSDOF 4
ENDMDL
MODEL 7
REMARK VINA RESULT:      -7.5      3.262      4.817
REMARK  Name = 
REMARK  5 active torsions:
REMARK  status: ('A' for Active; 'I' for Inactive)
REMARK    1  A    between atoms: C_1  and  C_2
REMARK    2  A    between atoms: C_5  and  C_6
REMARK    3  A    between atoms: N_11  and  C_12
REMARK    4  A    between atoms: C_21  and  N_22
REMARK    5  A    between atoms: C_23  and  C_25
REMARK                            x       y       z     vdW  Elec       q    Type
REMARK                         _______ _______ _______ _____ _____    ______ ____
ROOT
ATOM      1  C   UNL     1       3.601   6.885  17.250  0.00  0.00    +0.000 C 
ATOM      2  C   UNL     1       2.788   7.776  18.149  0.00  0.00    +0.000 A 
ATOM      3  C   UNL     1       2.456   9.056  17.660  0.00  0.00    +0.000 A 
ATOM      4  C   UNL     1       1.704   9.945  18.425  0.00  0.00    +0.000 A 
ATOM      5  C   UNL     1       1.260   9.568  19.690  0.00  0.00    +0.000 A 
ATOM      6  C   UNL     1       1.549   8.284  20.163  0.00  0.00    +0.000 A 
ATOM      7  C   UNL     1       2.349   7.390  19.435  0.00  0.00    +0.000 A 
ENDROOT
BRANCH   5   8
ATOM      8  C   UNL     1       0.344  10.485  20.416  0.00  0.00    +0.000 C 
ATOM      9  O   UNL     1       0.819  11.084  21.382  0.00  0.00    +0.000 OA
ATOM     10  N   UNL     1      -0.959  10.695  19.986  0.00  0.00    +0.000 N 
ATOM     11  C   UNL     1      -1.716  11.794  20.595  0.00  0.00    +0.000 C 
ATOM     12  C   UNL     1      -2.436  12.610  19.514  0.00  0.00    +0.000 C 
ATOM     13  N   UNL     1      -3.286  11.723  18.701  0.00  0.00    +0.000 N 
ATOM     14  C   UNL     1      -2.581  10.586  18.076  0.00  0.00    +0.000 C 
ATOM     15  C   UNL     1      -1.787   9.802  19.152  0.00  0.00    +0.000 C 
BRANCH  13  16
ATOM     16  C   UNL     1      -4.635  11.954  18.536  0.00  0.00    +0.000 A 
ATOM     17  C   UNL     1      -5.549  11.795  19.587  0.00  0.00    +0.000 A 
ATOM     18  C   UNL     1      -6.921  12.017  19.411  0.00  0.00    +0.000 A 
ATOM     19  C   UNL     1      -7.412  12.414  18.172  0.00  0.00    +0.000 A 
ATOM     20  C   UNL     1      -6.530  12.590  17.114  0.00  0.00    +0.000 A 
ATOM     21  C   UNL     1      -5.162  12.361  17.300  0.00  0.00    +0.000 A 
ENDBRANCH  13  16
ENDBRANCH   5   8
BRANCH   7  22
ATOM     22  N   UNL     1       2.682   6.110  19.952  0.00  0.00    +0.000 N 
ATOM     23  C   UNL     1       2.230   4.876  19.492  0.00  0.00    +0.000 C 
ATOM     24  O   UNL     1       1.386   4.718  18.613  0.00  0.00    +0.000 OA
ATOM     25  H   UNL     1       3.294   6.068  20.758  0.00  0.00    +0.000 HD
BRANCH  23  26
ATOM     26  C   UNL     1       2.831   3.732  20.153  0.00  0.00    +0.000 A 
ATOM     27  C   UNL     1       2.396   3.009  21.251  0.00  0.00    +0.000 A 
ATOM     28  C   UNL     1       3.335   1.975  21.461  0.00  0.00    +0.000 A 
ATOM     29  C   UNL     1       4.294   2.132  20.488  0.00  0.00    +0.000 A 
ATOM     30  O   UNL     1       4.004   3.195  19.690  0.00  0.00    +0.000 OA
ENDBRANCH  23  26
ENDBRANCH   7  22
TORSDOF 4
ENDMDL
MODEL 8
REMARK VINA RESULT:      -7.4      3.254      4.708
REMARK  Name = 
REMARK  5 active torsions:
REMARK  status: ('A' for Active; 'I' for Inactive)
REMARK    1  A    between atoms: C_1  and  C_2
REMARK    2  A    between atoms: C_5  and  C_6
REMARK    3  A    between atoms: N_11  and  C_12
REMARK    4  A    between atoms: C_21  and  N_22
REMARK    5  A    between atoms: C_23  and  C_25
REMARK                            x       y       z     vdW  Elec       q    Type
REMARK                         _______ _______ _______ _____ _____    ______ ____
ROOT
ATOM      1  C   UNL     1       3.566   7.345  17.093  0.00  0.00    +0.000 C 
ATOM      2  C   UNL     1       2.734   8.122  18.076  0.00  0.00    +0.000 A 
ATOM      3  C   UNL     1       2.339   9.423  17.703  0.00  0.00    +0.000 A 
ATOM      4  C   UNL     1       1.566  10.211  18.552  0.00  0.00    +0.000 A 
ATOM      5  C   UNL     1       1.162   9.711  19.788  0.00  0.00    +0.000 A 
ATOM      6  C   UNL     1       1.515   8.406  20.146  0.00  0.00    +0.000 A 
ATOM      7  C   UNL     1       2.336   7.611  19.332  0.00  0.00    +0.000 A 
ENDROOT
BRANCH   5   8
ATOM      8  C   UNL     1       0.224  10.523  20.603  0.00  0.00    +0.000 C 
ATOM      9  O   UNL     1       0.669  10.986  21.654  0.00  0.00    +0.000 OA
ATOM     10  N   UNL     1      -1.067  10.791  20.167  0.00  0.00    +0.000 N 
ATOM     11  C   UNL     1      -1.844  11.799  20.896  0.00  0.00    +0.000 C 
ATOM     12  C   UNL     1      -2.534  12.754  19.913  0.00  0.00    +0.000 C 
ATOM     13  N   UNL     1      -3.358  11.985  18.965  0.00  0.00    +0.000 N 
ATOM     14  C   UNL     1      -2.633  10.941  18.213  0.00  0.00    +0.000 C 
ATOM     15  C   UNL     1      -1.868  10.019  19.198  0.00  0.00    +0.000 C 
BRANCH  13  16
ATOM     16  C   UNL     1      -4.702  12.238  18.793  0.00  0.00    +0.000 A 
ATOM     17  C   UNL     1      -5.343  12.040  17.562  0.00  0.00    +0.000 A 
ATOM     18  C   UNL     1      -6.706  12.313  17.388  0.00  0.00    +0.000 A 
ATOM     19  C   UNL     1      -7.467  12.786  18.452  0.00  0.00    +0.000 A 
ATOM     20  C   UNL     1      -6.862  12.983  19.687  0.00  0.00    +0.000 A 
ATOM     21  C   UNL     1      -5.499  12.711  19.848  0.00  0.00    +0.000 A 
ENDBRANCH  13  16
ENDBRANCH   5   8
BRANCH   7  22
ATOM     22  N   UNL     1       2.732   6.308  19.733  0.00  0.00    +0.000 N 
ATOM     23  C   UNL     1       2.351   5.099  19.155  0.00  0.00    +0.000 C 
ATOM     24  O   UNL     1       1.524   4.980  18.254  0.00  0.00    +0.000 OA
ATOM     25  H   UNL     1       3.339   6.223  20.541  0.00  0.00    +0.000 HD
BRANCH  23  26
ATOM     26  C   UNL     1       3.006   3.932  19.717  0.00  0.00    +0.000 A 
ATOM     27  C   UNL     1       4.051   3.173  19.219  0.00  0.00    +0.000 A 
ATOM     28  C   UNL     1       4.326   2.172  20.177  0.00  0.00    +0.000 A 
ATOM     29  C   UNL     1       3.428   2.370  21.199  0.00  0.00    +0.000 A 
ATOM     30  O   UNL     1       2.619   3.432  20.933  0.00  0.00    +0.000 OA
ENDBRANCH  23  26
ENDBRANCH   7  22
TORSDOF 4
ENDMDL
MODEL 9
REMARK VINA RESULT:      -7.4      3.265     10.727
REMARK  Name = 
REMARK  5 active torsions:
REMARK  status: ('A' for Active; 'I' for Inactive)
REMARK    1  A    between atoms: C_1  and  C_2
REMARK    2  A    between atoms: C_5  and  C_6
REMARK    3  A    between atoms: N_11  and  C_12
REMARK    4  A    between atoms: C_21  and  N_22
REMARK    5  A    between atoms: C_23  and  C_25
REMARK                            x       y       z     vdW  Elec       q    Type
REMARK                         _______ _______ _______ _____ _____    ______ ____
ROOT
ATOM      1  C   UNL     1      -1.243  14.795  23.668  0.00  0.00    +0.000 C 
ATOM      2  C   UNL     1      -1.150  13.931  22.440  0.00  0.00    +0.000 A 
ATOM      3  C   UNL     1       0.099  13.863  21.791  0.00  0.00    +0.000 A 
ATOM      4  C   UNL     1       0.275  13.085  20.648  0.00  0.00    +0.000 A 
ATOM      5  C   UNL     1      -0.793  12.351  20.137  0.00  0.00    +0.000 A 
ATOM      6  C   UNL     1      -2.024  12.381  20.802  0.00  0.00    +0.000 A 
ATOM      7  C   UNL     1      -2.241  13.196  21.922  0.00  0.00    +0.000 A 
ENDROOT
BRANCH   5   8
ATOM      8  C   UNL     1      -0.534  11.426  19.005  0.00  0.00    +0.000 C 
ATOM      9  O   UNL     1      -0.839  11.832  17.884  0.00  0.00    +0.000 OA
ATOM     10  N   UNL     1       0.076  10.194  19.204  0.00  0.00    +0.000 N 
ATOM     11  C   UNL     1       0.526   9.451  18.022  0.00  0.00    +0.000 C 
ATOM     12  C   UNL     1       1.945   8.910  18.240  0.00  0.00    +0.000 C 
ATOM     13  N   UNL     1       1.986   8.096  19.467  0.00  0.00    +0.000 N 
ATOM     14  C   UNL     1       1.526   8.786  20.689  0.00  0.00    +0.000 C 
ATOM     15  C   UNL     1       0.125   9.403  20.449  0.00  0.00    +0.000 C 
BRANCH  13  16
ATOM     16  C   UNL     1       2.432   6.791  19.463  0.00  0.00    +0.000 A 
ATOM     17  C   UNL     1       1.855   5.807  20.277  0.00  0.00    +0.000 A 
ATOM     18  C   UNL     1       2.321   4.486  20.282  0.00  0.00    +0.000 A 
ATOM     19  C   UNL     1       3.379   4.115  19.458  0.00  0.00    +0.000 A 
ATOM     20  C   UNL     1       3.965   5.066  18.632  0.00  0.00    +0.000 A 
ATOM     21  C   UNL     1       3.494   6.383  18.640  0.00  0.00    +0.000 A 
ENDBRANCH  13  16
ENDBRANCH   5   8
BRANCH   7  22
ATOM     22  N   UNL     1      -3.511  13.259  22.554  0.00  0.00    +0.000 N 
ATOM     23  C   UNL     1      -4.611  14.014  22.153  0.00  0.00    +0.000 C 
ATOM     24  O   UNL     1      -4.610  14.824  21.229  0.00  0.00    +0.000 OA
ATOM     25  H   UNL     1      -3.647  12.724  23.403  0.00  0.00    +0.000 HD
BRANCH  23  26
ATOM     26  C   UNL     1      -5.811  13.789  22.938  0.00  0.00    +0.000 A 
ATOM     27  C   UNL     1      -6.431  14.604  23.869  0.00  0.00    +0.000 A 
ATOM     28  C   UNL     1      -7.586  13.920  24.311  0.00  0.00    +0.000 A 
ATOM     29  C   UNL     1      -7.598  12.723  23.635  0.00  0.00    +0.000 A 
ATOM     30  O   UNL     1      -6.527  12.627  22.801  0.00  0.00    +0.000 OA
ENDBRANCH  23  26
ENDBRANCH   7  22
TORSDOF 4
ENDMDL
