MODEL 1
REMARK VINA RESULT:      -7.8      0.000      0.000
REMARK  Name = 
REMARK  6 active torsions:
REMARK  status: ('A' for Active; 'I' for Inactive)
REMARK    1  A    between atoms: C_1  and  C_2
REMARK    2  A    between atoms: C_2  and  C_3
REMARK    3  A    between atoms: C_4  and  C_5
REMARK    4  A    between atoms: C_5  and  C_6
REMARK    5  A    between atoms: C_6  and  O_7
REMARK    6  A    between atoms: C_9  and  N_10
REMARK                            x       y       z     vdW  Elec       q    Type
REMARK                         _______ _______ _______ _____ _____    ______ ____
ROOT
ATOM      1  N   UNL     1       4.957   5.173  17.445  0.00  0.00    +0.000 N 
ATOM      2  C   UNL     1       4.770   6.028  16.391  0.00  0.00    +0.000 A 
ATOM      3  N   UNL     1       5.686   6.974  16.354  0.00  0.00    +0.000 NA
ATOM      4  C   UNL     1       6.520   6.701  17.419  0.00  0.00    +0.000 A 
ATOM      5  C   UNL     1       7.650   7.294  17.954  0.00  0.00    +0.000 A 
ATOM      6 CL   UNL     1       8.246   8.718  17.250  0.00  0.00    +0.000 Cl
ATOM      7  N   UNL     1       8.281   6.800  19.035  0.00  0.00    +0.000 NA
ATOM      8  C   UNL     1       7.783   5.681  19.573  0.00  0.00    +0.000 A 
ATOM      9  N   UNL     1       8.430   5.175  20.680  0.00  0.00    +0.000 N 
ATOM     10  N   UNL     1       6.690   5.024  19.174  0.00  0.00    +0.000 NA
ATOM     11  C   UNL     1       6.098   5.568  18.100  0.00  0.00    +0.000 A 
ATOM     12  H   UNL     1       8.952   5.905  21.149  0.00  0.00    +0.000 HD
ATOM     13  H   UNL     1       7.798   4.620  21.238  0.00  0.00    +0.000 HD
ENDROOT
BRANCH   1  19
ATOM     14  C   UNL     1       2.685   5.851  19.265  0.00  0.00    +0.000 C 
ATOM     15  C   UNL     1       2.742   4.517  18.514  0.00  0.00    +0.000 C 
ATOM     16  C   UNL     1       1.496   4.397  17.620  0.00  0.00    +0.000 C 
ATOM     17  C   UNL     1       2.939   3.226  19.395  0.00  0.00    +0.000 C 
ATOM     18  C   UNL     1       4.412   3.180  18.929  0.00  0.00    +0.000 C 
ATOM     19  C   UNL     1       4.052   4.089  17.735  0.00  0.00    +0.000 C 
BRANCH  17  20
ATOM     20  C   UNL     1       2.711   3.306  20.906  0.00  0.00    +0.000 C 
BRANCH  20  21
ATOM     21  C   UNL     1       1.403   2.629  21.300  0.00  0.00    +0.000 C 
BRANCH  21  22
ATOM     22  O   UNL     1       0.335   3.092  20.483  0.00  0.00    +0.000 OA
ATOM     23  H   UNL     1      -0.364   2.417  20.500  0.00  0.00    +0.000 HD
ENDBRANCH  21  22
ENDBRANCH  20  21
ENDBRANCH  17  20
ENDBRANCH   1  19
TORSDOF 4
ENDMDL
MODEL 2
REMARK VINA RESULT:      -7.4      3.869      6.218
REMARK  Name = 
REMARK  6 active torsions:
REMARK  status: ('A' for Active; 'I' for Inactive)
REMARK    1  A    between atoms: C_1  and  C_2
REMARK    2  A    between atoms: C_2  and  C_3
REMARK    3  A    between atoms: C_4  and  C_5
REMARK    4  A    between atoms: C_5  and  C_6
REMARK    5  A    between atoms: C_6  and  O_7
REMARK    6  A    between atoms: C_9  and  N_10
REMARK                            x       y       z     vdW  Elec       q    Type
REMARK                         _______ _______ _______ _____ _____    ______ ____
ROOT
ATOM      1  N   UNL     1       4.346   5.524  18.056  0.00  0.00    +0.000 N 
ATOM      2  C   UNL     1       3.512   6.460  18.610  0.00  0.00    +0.000 A 
ATOM      3  N   UNL     1       2.497   5.905  19.239  0.00  0.00    +0.000 NA
ATOM      4  C   UNL     1       2.699   4.546  19.110  0.00  0.00    +0.000 A 
ATOM      5  C   UNL     1       2.016   3.412  19.514  0.00  0.00    +0.000 A 
ATOM      6 CL   UNL     1       0.552   3.586  20.352  0.00  0.00    +0.000 Cl
ATOM      7  N   UNL     1       2.455   2.170  19.239  0.00  0.00    +0.000 NA
ATOM      8  C   UNL     1       3.608   2.064  18.570  0.00  0.00    +0.000 A 
ATOM      9  N   UNL     1       4.059   0.792  18.290  0.00  0.00    +0.000 N 
ATOM     10  N   UNL     1       4.352   3.071  18.101  0.00  0.00    +0.000 NA
ATOM     11  C   UNL     1       3.860   4.285  18.395  0.00  0.00    +0.000 A 
ATOM     12  H   UNL     1       3.287   0.136  18.297  0.00  0.00    +0.000 HD
ATOM     13  H   UNL     1       4.660   0.798  17.479  0.00  0.00    +0.000 HD
ENDROOT
BRANCH   1  19
ATOM     14  C   UNL     1       6.964   5.423  19.492  0.00  0.00    +0.000 C 
ATOM     15  C   UNL     1       6.888   5.609  17.974  0.00  0.00    +0.000 C 
ATOM     16  C   UNL     1       7.645   4.456  17.294  0.00  0.00    +0.000 C 
ATOM     17  C   UNL     1       7.356   7.006  17.416  0.00  0.00    +0.000 C 
ATOM     18  C   UNL     1       5.870   7.377  17.210  0.00  0.00    +0.000 C 
ATOM     19  C   UNL     1       5.498   5.881  17.266  0.00  0.00    +0.000 C 
BRANCH  17  20
ATOM     20  C   UNL     1       8.166   7.941  18.316  0.00  0.00    +0.000 C 
BRANCH  20  21
ATOM     21  C   UNL     1       8.190   9.359  17.754  0.00  0.00    +0.000 C 
BRANCH  21  22
ATOM     22  O   UNL     1       8.951  10.217  18.595  0.00  0.00    +0.000 OA
ATOM     23  H   UNL     1       8.541  11.098  18.566  0.00  0.00    +0.000 HD
ENDBRANCH  21  22
ENDBRANCH  20  21
ENDBRANCH  17  20
ENDBRANCH   1  19
TORSDOF 4
ENDMDL
MODEL 3
REMARK VINA RESULT:      -7.1      3.940      6.139
REMARK  Name = 
REMARK  6 active torsions:
REMARK  status: ('A' for Active; 'I' for Inactive)
REMARK    1  A    between atoms: C_1  and  C_2
REMARK    2  A    between atoms: C_2  and  C_3
REMARK    3  A    between atoms: C_4  and  C_5
REMARK    4  A    between atoms: C_5  and  C_6
REMARK    5  A    between atoms: C_6  and  O_7
REMARK    6  A    between atoms: C_9  and  N_10
REMARK                            x       y       z     vdW  Elec       q    Type
REMARK                         _______ _______ _______ _____ _____    ______ ____
ROOT
ATOM      1  N   UNL     1       4.080   4.853  17.371  0.00  0.00    +0.000 N 
ATOM      2  C   UNL     1       3.933   3.517  17.102  0.00  0.00    +0.000 A 
ATOM      3  N   UNL     1       3.115   2.930  17.951  0.00  0.00    +0.000 NA
ATOM      4  C   UNL     1       2.691   3.939  18.791  0.00  0.00    +0.000 A 
ATOM      5  C   UNL     1       1.853   4.010  19.890  0.00  0.00    +0.000 A 
ATOM      6 CL   UNL     1       1.128   2.589  20.468  0.00  0.00    +0.000 Cl
ATOM      7  N   UNL     1       1.613   5.164  20.541  0.00  0.00    +0.000 NA
ATOM      8  C   UNL     1       2.206   6.266  20.067  0.00  0.00    +0.000 A 
ATOM      9  N   UNL     1       1.959   7.447  20.733  0.00  0.00    +0.000 N 
ATOM     10  N   UNL     1       3.053   6.333  19.036  0.00  0.00    +0.000 NA
ATOM     11  C   UNL     1       3.262   5.152  18.433  0.00  0.00    +0.000 A 
ATOM     12  H   UNL     1       1.675   7.261  21.687  0.00  0.00    +0.000 HD
ATOM     13  H   UNL     1       2.715   8.100  20.589  0.00  0.00    +0.000 HD
ENDROOT
BRANCH   1  19
ATOM     14  C   UNL     1       6.988   4.514  17.966  0.00  0.00    +0.000 C 
ATOM     15  C   UNL     1       6.504   5.358  16.783  0.00  0.00    +0.000 C 
ATOM     16  C   UNL     1       7.087   4.774  15.485  0.00  0.00    +0.000 C 
ATOM     17  C   UNL     1       6.762   6.908  16.878  0.00  0.00    +0.000 C 
ATOM     18  C   UNL     1       5.264   7.098  17.208  0.00  0.00    +0.000 C 
ATOM     19  C   UNL     1       4.968   5.703  16.619  0.00  0.00    +0.000 C 
BRANCH  17  20
ATOM     20  C   UNL     1       7.754   7.443  17.913  0.00  0.00    +0.000 C 
BRANCH  20  21
ATOM     21  C   UNL     1       8.023   8.929  17.699  0.00  0.00    +0.000 C 
BRANCH  21  22
ATOM     22  O   UNL     1       8.827   9.448  18.751  0.00  0.00    +0.000 OA
ATOM     23  H   UNL     1       8.601   8.962  19.562  0.00  0.00    +0.000 HD
ENDBRANCH  21  22
ENDBRANCH  20  21
ENDBRANCH  17  20
ENDBRANCH   1  19
TORSDOF 4
ENDMDL
MODEL 4
REMARK VINA RESULT:      -6.8      4.136      6.160
REMARK  Name = 
REMARK  6 active torsions:
REMARK  status: ('A' for Active; 'I' for Inactive)
REMARK    1  A    between atoms: C_1  and  C_2
REMARK    2  A    between atoms: C_2  and  C_3
REMARK    3  A    between atoms: C_4  and  C_5
REMARK    4  A    between atoms: C_5  and  C_6
REMARK    5  A    between atoms: C_6  and  O_7
REMARK    6  A    between atoms: C_9  and  N_10
REMARK                            x       y       z     vdW  Elec       q    Type
REMARK                         _______ _______ _______ _____ _____    ______ ____
ROOT
ATOM      1  N   UNL     1       4.808   4.518  18.810  0.00  0.00    +0.000 N 
ATOM      2  C   UNL     1       4.918   3.161  18.965  0.00  0.00    +0.000 A 
ATOM      3  N   UNL     1       3.991   2.679  19.766  0.00  0.00    +0.000 NA
ATOM      4  C   UNL     1       3.228   3.771  20.124  0.00  0.00    +0.000 A 
ATOM      5  C   UNL     1       2.127   3.972  20.937  0.00  0.00    +0.000 A 
ATOM      6 CL   UNL     1       1.472   2.653  21.779  0.00  0.00    +0.000 Cl
ATOM      7  N   UNL     1       1.570   5.185  21.112  0.00  0.00    +0.000 NA
ATOM      8  C   UNL     1       2.114   6.208  20.442  0.00  0.00    +0.000 A 
ATOM      9  N   UNL     1       1.543   7.450  20.619  0.00  0.00    +0.000 N 
ATOM     10  N   UNL     1       3.187   6.158  19.648  0.00  0.00    +0.000 NA
ATOM     11  C   UNL     1       3.705   4.926  19.520  0.00  0.00    +0.000 A 
ATOM     12  H   UNL     1       1.043   7.485  21.500  0.00  0.00    +0.000 HD
ATOM     13  H   UNL     1       2.216   8.180  20.434  0.00  0.00    +0.000 HD
ENDROOT
BRANCH   1  19
ATOM     14  C   UNL     1       4.316   4.514  15.863  0.00  0.00    +0.000 C 
ATOM     15  C   UNL     1       5.339   5.456  16.505  0.00  0.00    +0.000 C 
ATOM     16  C   UNL     1       4.943   6.908  16.188  0.00  0.00    +0.000 C 
ATOM     17  C   UNL     1       6.852   5.188  16.157  0.00  0.00    +0.000 C 
ATOM     18  C   UNL     1       7.024   4.569  17.563  0.00  0.00    +0.000 C 
ATOM     19  C   UNL     1       5.741   5.289  18.027  0.00  0.00    +0.000 C 
BRANCH  17  20
ATOM     20  C   UNL     1       7.202   4.284  14.974  0.00  0.00    +0.000 C 
BRANCH  20  21
ATOM     21  C   UNL     1       7.248   5.077  13.672  0.00  0.00    +0.000 C 
BRANCH  21  22
ATOM     22  O   UNL     1       8.476   5.785  13.561  0.00  0.00    +0.000 OA
ATOM     23  H   UNL     1       8.841   5.886  14.457  0.00  0.00    +0.000 HD
ENDBRANCH  21  22
ENDBRANCH  20  21
ENDBRANCH  17  20
ENDBRANCH   1  19
TORSDOF 4
ENDMDL
MODEL 5
REMARK VINA RESULT:      -6.8      1.582      2.621
REMARK  Name = 
REMARK  6 active torsions:
REMARK  status: ('A' for Active; 'I' for Inactive)
REMARK    1  A    between atoms: C_1  and  C_2
REMARK    2  A    between atoms: C_2  and  C_3
REMARK    3  A    between atoms: C_4  and  C_5
REMARK    4  A    between atoms: C_5  and  C_6
REMARK    5  A    between atoms: C_6  and  O_7
REMARK    6  A    between atoms: C_9  and  N_10
REMARK                            x       y       z     vdW  Elec       q    Type
REMARK                         _______ _______ _______ _____ _____    ______ ____
ROOT
ATOM      1  N   UNL     1       5.096   4.120  18.545  0.00  0.00    +0.000 N 
ATOM      2  C   UNL     1       5.314   4.792  19.719  0.00  0.00    +0.000 A 
ATOM      3  N   UNL     1       6.169   5.782  19.569  0.00  0.00    +0.000 NA
ATOM      4  C   UNL     1       6.498   5.768  18.230  0.00  0.00    +0.000 A 
ATOM      5  C   UNL     1       7.337   6.513  17.420  0.00  0.00    +0.000 A 
ATOM      6 CL   UNL     1       8.265   7.753  18.112  0.00  0.00    +0.000 Cl
ATOM      7  N   UNL     1       7.471   6.270  16.103  0.00  0.00    +0.000 NA
ATOM      8  C   UNL     1       6.734   5.281  15.587  0.00  0.00    +0.000 A 
ATOM      9  N   UNL     1       6.869   5.033  14.238  0.00  0.00    +0.000 N 
ATOM     10  N   UNL     1       5.907   4.472  16.256  0.00  0.00    +0.000 NA
ATOM     11  C   UNL     1       5.822   4.754  17.566  0.00  0.00    +0.000 A 
ATOM     12  H   UNL     1       7.763   5.374  13.905  0.00  0.00    +0.000 HD
ATOM     13  H   UNL     1       6.625   4.077  14.025  0.00  0.00    +0.000 HD
ENDROOT
BRANCH   1  19
ATOM     14  C   UNL     1       2.207   4.686  18.033  0.00  0.00    +0.000 C 
ATOM     15  C   UNL     1       2.770   3.263  17.972  0.00  0.00    +0.000 C 
ATOM     16  C   UNL     1       2.518   2.690  16.567  0.00  0.00    +0.000 C 
ATOM     17  C   UNL     1       2.279   2.268  19.090  0.00  0.00    +0.000 C 
ATOM     18  C   UNL     1       3.651   2.432  19.782  0.00  0.00    +0.000 C 
ATOM     19  C   UNL     1       4.245   2.960  18.460  0.00  0.00    +0.000 C 
BRANCH  17  20
ATOM     20  C   UNL     1       1.052   2.627  19.930  0.00  0.00    +0.000 C 
BRANCH  20  21
ATOM     21  C   UNL     1       1.459   3.286  21.243  0.00  0.00    +0.000 C 
BRANCH  21  22
ATOM     22  O   UNL     1       1.409   2.347  22.310  0.00  0.00    +0.000 OA
ATOM     23  H   UNL     1       1.102   2.818  23.104  0.00  0.00    +0.000 HD
ENDBRANCH  21  22
ENDBRANCH  20  21
ENDBRANCH  17  20
ENDBRANCH   1  19
TORSDOF 4
ENDMDL
MODEL 6
REMARK VINA RESULT:      -6.6      3.934      5.760
REMARK  Name = 
REMARK  6 active torsions:
REMARK  status: ('A' for Active; 'I' for Inactive)
REMARK    1  A    between atoms: C_1  and  C_2
REMARK    2  A    between atoms: C_2  and  C_3
REMARK    3  A    between atoms: C_4  and  C_5
REMARK    4  A    between atoms: C_5  and  C_6
REMARK    5  A    between atoms: C_6  and  O_7
REMARK    6  A    between atoms: C_9  and  N_10
REMARK                            x       y       z     vdW  Elec       q    Type
REMARK                         _______ _______ _______ _____ _____    ______ ____
ROOT
ATOM      1  N   UNL     1       4.203   5.557  19.052  0.00  0.00    +0.000 N 
ATOM      2  C   UNL     1       3.087   6.265  19.412  0.00  0.00    +0.000 A 
ATOM      3  N   UNL     1       2.259   5.545  20.140  0.00  0.00    +0.000 NA
ATOM      4  C   UNL     1       2.882   4.322  20.281  0.00  0.00    +0.000 A 
ATOM      5  C   UNL     1       2.564   3.127  20.901  0.00  0.00    +0.000 A 
ATOM      6 CL   UNL     1       1.070   2.980  21.692  0.00  0.00    +0.000 Cl
ATOM      7  N   UNL     1       3.384   2.060  20.876  0.00  0.00    +0.000 NA
ATOM      8  C   UNL     1       4.551   2.203  20.238  0.00  0.00    +0.000 A 
ATOM      9  N   UNL     1       5.392   1.111  20.213  0.00  0.00    +0.000 N 
ATOM     10  N   UNL     1       4.970   3.287  19.579  0.00  0.00    +0.000 NA
ATOM     11  C   UNL     1       4.108   4.315  19.629  0.00  0.00    +0.000 A 
ATOM     12  H   UNL     1       4.864   0.257  20.351  0.00  0.00    +0.000 HD
ATOM     13  H   UNL     1       6.009   1.156  19.416  0.00  0.00    +0.000 HD
ENDROOT
BRANCH   1  19
ATOM     14  C   UNL     1       4.202   4.573  16.230  0.00  0.00    +0.000 C 
ATOM     15  C   UNL     1       5.081   5.747  16.671  0.00  0.00    +0.000 C 
ATOM     16  C   UNL     1       4.706   6.987  15.841  0.00  0.00    +0.000 C 
ATOM     17  C   UNL     1       6.637   5.500  16.656  0.00  0.00    +0.000 C 
ATOM     18  C   UNL     1       6.592   5.378  18.196  0.00  0.00    +0.000 C 
ATOM     19  C   UNL     1       5.232   6.107  18.205  0.00  0.00    +0.000 C 
BRANCH  17  20
ATOM     20  C   UNL     1       7.199   4.296  15.899  0.00  0.00    +0.000 C 
BRANCH  20  21
ATOM     21  C   UNL     1       7.205   4.546  14.396  0.00  0.00    +0.000 C 
BRANCH  21  22
ATOM     22  O   UNL     1       8.046   5.646  14.075  0.00  0.00    +0.000 OA
ATOM     23  H   UNL     1       8.668   5.352  13.387  0.00  0.00    +0.000 HD
ENDBRANCH  21  22
ENDBRANCH  20  21
ENDBRANCH  17  20
ENDBRANCH   1  19
TORSDOF 4
ENDMDL
MODEL 7
REMARK VINA RESULT:      -6.5      4.557      5.736
REMARK  Name = 
REMARK  6 active torsions:
REMARK  status: ('A' for Active; 'I' for Inactive)
REMARK    1  A    between atoms: C_1  and  C_2
REMARK    2  A    between atoms: C_2  and  C_3
REMARK    3  A    between atoms: C_4  and  C_5
REMARK    4  A    between atoms: C_5  and  C_6
REMARK    5  A    between atoms: C_6  and  O_7
REMARK    6  A    between atoms: C_9  and  N_10
REMARK                            x       y       z     vdW  Elec       q    Type
REMARK                         _______ _______ _______ _____ _____    ______ ____
ROOT
ATOM      1  N   UNL     1       2.209   7.605  19.376  0.00  0.00    +0.000 N 
ATOM      2  C   UNL     1       2.464   8.192  18.164  0.00  0.00    +0.000 A 
ATOM      3  N   UNL     1       1.780   9.304  18.000  0.00  0.00    +0.000 NA
ATOM      4  C   UNL     1       1.070   9.460  19.173  0.00  0.00    +0.000 A 
ATOM      5  C   UNL     1       0.163  10.389  19.652  0.00  0.00    +0.000 A 
ATOM      6 CL   UNL     1      -0.298  11.682  18.654  0.00  0.00    +0.000 Cl
ATOM      7  N   UNL     1      -0.394  10.290  20.873  0.00  0.00    +0.000 NA
ATOM      8  C   UNL     1      -0.019   9.256  21.633  0.00  0.00    +0.000 A 
ATOM      9  N   UNL     1      -0.588   9.155  22.884  0.00  0.00    +0.000 N 
ATOM     10  N   UNL     1       0.824   8.278  21.286  0.00  0.00    +0.000 NA
ATOM     11  C   UNL     1       1.340   8.424  20.055  0.00  0.00    +0.000 A 
ATOM     12  H   UNL     1      -1.471   9.651  22.910  0.00  0.00    +0.000 HD
ATOM     13  H   UNL     1      -0.580   8.197  23.202  0.00  0.00    +0.000 HD
ENDROOT
BRANCH   1  19
ATOM     14  C   UNL     1       1.559   5.286  17.608  0.00  0.00    +0.000 C 
ATOM     15  C   UNL     1       2.622   5.185  18.707  0.00  0.00    +0.000 C 
ATOM     16  C   UNL     1       3.969   4.816  18.062  0.00  0.00    +0.000 C 
ATOM     17  C   UNL     1       2.288   4.234  19.918  0.00  0.00    +0.000 C 
ATOM     18  C   UNL     1       1.992   5.489  20.770  0.00  0.00    +0.000 C 
ATOM     19  C   UNL     1       2.792   6.347  19.769  0.00  0.00    +0.000 C 
BRANCH  17  20
ATOM     20  C   UNL     1       1.149   3.222  19.787  0.00  0.00    +0.000 C 
BRANCH  20  21
ATOM     21  C   UNL     1       1.681   1.839  19.429  0.00  0.00    +0.000 C 
BRANCH  21  22
ATOM     22  O   UNL     1       1.999   1.768  18.045  0.00  0.00    +0.000 OA
ATOM     23  H   UNL     1       2.198   2.670  17.741  0.00  0.00    +0.000 HD
ENDBRANCH  21  22
ENDBRANCH  20  21
ENDBRANCH  17  20
ENDBRANCH   1  19
TORSDOF 4
ENDMDL
MODEL 8
REMARK VINA RESULT:      -6.4      4.450      5.637
REMARK  Name = 
REMARK  6 active torsions:
REMARK  status: ('A' for Active; 'I' for Inactive)
REMARK    1  A    between atoms: C_1  and  C_2
REMARK    2  A    between atoms: C_2  and  C_3
REMARK    3  A    between atoms: C_4  and  C_5
REMARK    4  A    between atoms: C_5  and  C_6
REMARK    5  A    between atoms: C_6  and  O_7
REMARK    6  A    between atoms: C_9  and  N_10
REMARK                            x       y       z     vdW  Elec       q    Type
REMARK                         _______ _______ _______ _____ _____    ______ ____
ROOT
ATOM      1  N   UNL     1       2.300   7.575  19.248  0.00  0.00    +0.000 N 
ATOM      2  C   UNL     1       2.516   8.150  18.022  0.00  0.00    +0.000 A 
ATOM      3  N   UNL     1       1.779   9.227  17.846  0.00  0.00    +0.000 NA
ATOM      4  C   UNL     1       1.074   9.371  19.023  0.00  0.00    +0.000 A 
ATOM      5  C   UNL     1       0.130  10.266  19.495  0.00  0.00    +0.000 A 
ATOM      6 CL   UNL     1      -0.401  11.517  18.480  0.00  0.00    +0.000 Cl
ATOM      7  N   UNL     1      -0.410  10.163  20.724  0.00  0.00    +0.000 NA
ATOM      8  C   UNL     1       0.021   9.162  21.498  0.00  0.00    +0.000 A 
ATOM      9  N   UNL     1      -0.530   9.058  22.757  0.00  0.00    +0.000 N 
ATOM     10  N   UNL     1       0.905   8.218  21.160  0.00  0.00    +0.000 NA
ATOM     11  C   UNL     1       1.401   8.365  19.921  0.00  0.00    +0.000 A 
ATOM     12  H   UNL     1      -1.435   9.512  22.784  0.00  0.00    +0.000 HD
ATOM     13  H   UNL     1      -0.475   8.107  23.092  0.00  0.00    +0.000 HD
ENDROOT
BRANCH   1  19
ATOM     14  C   UNL     1       1.385   5.108  17.831  0.00  0.00    +0.000 C 
ATOM     15  C   UNL     1       2.612   5.099  18.749  0.00  0.00    +0.000 C 
ATOM     16  C   UNL     1       3.839   4.658  17.933  0.00  0.00    +0.000 C 
ATOM     17  C   UNL     1       2.483   4.268  20.081  0.00  0.00    +0.000 C 
ATOM     18  C   UNL     1       2.322   5.599  20.849  0.00  0.00    +0.000 C 
ATOM     19  C   UNL     1       2.946   6.353  19.657  0.00  0.00    +0.000 C 
BRANCH  17  20
ATOM     20  C   UNL     1       1.343   3.260  20.230  0.00  0.00    +0.000 C 
BRANCH  20  21
ATOM     21  C   UNL     1       1.426   2.531  21.567  0.00  0.00    +0.000 C 
BRANCH  21  22
ATOM     22  O   UNL     1       2.778   2.422  21.994  0.00  0.00    +0.000 OA
ATOM     23  H   UNL     1       2.794   1.852  22.781  0.00  0.00    +0.000 HD
ENDBRANCH  21  22
ENDBRANCH  20  21
ENDBRANCH  17  20
ENDBRANCH   1  19
TORSDOF 4
ENDMDL
MODEL 9
REMARK VINA RESULT:      -6.4      1.467      1.579
REMARK  Name = 
REMARK  6 active torsions:
REMARK  status: ('A' for Active; 'I' for Inactive)
REMARK    1  A    between atoms: C_1  and  C_2
REMARK    2  A    between atoms: C_2  and  C_3
REMARK    3  A    between atoms: C_4  and  C_5
REMARK    4  A    between atoms: C_5  and  C_6
REMARK    5  A    between atoms: C_6  and  O_7
REMARK    6  A    between atoms: C_9  and  N_10
REMARK                            x       y       z     vdW  Elec       q    Type
REMARK                         _______ _______ _______ _____ _____    ______ ____
ROOT
ATOM      1  N   UNL     1       5.118   5.438  17.098  0.00  0.00    +0.000 N 
ATOM      2  C   UNL     1       4.917   6.399  16.143  0.00  0.00    +0.000 A 
ATOM      3  N   UNL     1       5.792   7.379  16.237  0.00  0.00    +0.000 NA
ATOM      4  C   UNL     1       6.615   7.020  17.284  0.00  0.00    +0.000 A 
ATOM      5  C   UNL     1       7.708   7.593  17.911  0.00  0.00    +0.000 A 
ATOM      6 CL   UNL     1       8.256   9.111  17.388  0.00  0.00    +0.000 Cl
ATOM      7  N   UNL     1       8.337   7.005  18.945  0.00  0.00    +0.000 NA
ATOM      8  C   UNL     1       7.877   5.813  19.341  0.00  0.00    +0.000 A 
ATOM      9  N   UNL     1       8.522   5.209  20.399  0.00  0.00    +0.000 N 
ATOM     10  N   UNL     1       6.821   5.162  18.842  0.00  0.00    +0.000 NA
ATOM     11  C   UNL     1       6.228   5.800  17.822  0.00  0.00    +0.000 A 
ATOM     12  H   UNL     1       9.002   5.902  20.960  0.00  0.00    +0.000 HD
ATOM     13  H   UNL     1       7.902   4.569  20.875  0.00  0.00    +0.000 HD
ENDROOT
BRANCH   1  19
ATOM     14  C   UNL     1       3.386   5.433  19.533  0.00  0.00    +0.000 C 
ATOM     15  C   UNL     1       3.193   4.411  18.409  0.00  0.00    +0.000 C 
ATOM     16  C   UNL     1       1.765   4.546  17.853  0.00  0.00    +0.000 C 
ATOM     17  C   UNL     1       3.529   2.913  18.761  0.00  0.00    +0.000 C 
ATOM     18  C   UNL     1       4.843   3.060  17.961  0.00  0.00    +0.000 C 
ATOM     19  C   UNL     1       4.256   4.292  17.241  0.00  0.00    +0.000 C 
BRANCH  17  20
ATOM     20  C   UNL     1       3.674   2.499  20.226  0.00  0.00    +0.000 C 
BRANCH  20  21
ATOM     21  C   UNL     1       4.610   1.304  20.370  0.00  0.00    +0.000 C 
BRANCH  21  22
ATOM     22  O   UNL     1       5.468   1.473  21.491  0.00  0.00    +0.000 OA
ATOM     23  H   UNL     1       6.076   2.204  21.291  0.00  0.00    +0.000 HD
ENDBRANCH  21  22
ENDBRANCH  20  21
ENDBRANCH  17  20
ENDBRANCH   1  19
TORSDOF 4
ENDMDL
