MODEL 1
REMARK VINA RESULT:      -8.7      0.000      0.000
REMARK  Name = 
REMARK  10 active torsions:
REMARK  status: ('A' for Active; 'I' for Inactive)
REMARK    1  A    between atoms: C_1  and  O_2
REMARK    2  A    between atoms: O_2  and  C_3
REMARK    3  A    between atoms: C_3  and  C_4
REMARK    4  A    between atoms: C_4  and  N_5
REMARK    5  A    between atoms: C_9  and  C_11
REMARK    6  A    between atoms: C_14  and  C_15
REMARK    7  A    between atoms: C_19  and  C_20
REMARK    8  A    between atoms: C_21  and  C_22
REMARK    9  A    between atoms: C_23  and  C_24
REMARK   10  A    between atoms: C_30  and  C_31
REMARK                            x       y       z     vdW  Elec       q    Type
REMARK                         _______ _______ _______ _____ _____    ______ ____
ROOT
ATOM      1  C   UNL     1       1.940   8.711  18.695  0.00  0.00    +0.000 A 
ATOM      2  C   UNL     1       2.107   7.797  17.655  0.00  0.00    +0.000 A 
ATOM      3  C   UNL     1       2.127   6.424  17.920  0.00  0.00    +0.000 A 
ATOM      4  C   UNL     1       2.014   5.924  19.230  0.00  0.00    +0.000 A 
ATOM      5  C   UNL     1       1.964   6.867  20.271  0.00  0.00    +0.000 A 
ATOM      6  C   UNL     1       1.929   8.236  20.005  0.00  0.00    +0.000 A 
ATOM      7  F   UNL     1       1.865   9.073  21.051  0.00  0.00    +0.000 F 
ENDROOT
BRANCH   1  12
ATOM      8  N   UNL     1      -1.834  12.304  18.842  0.00  0.00    +0.000 NA
ATOM      9  C   UNL     1      -0.700  12.682  17.961  0.00  0.00    +0.000 C 
ATOM     10  C   UNL     1       0.695  12.318  18.504  0.00  0.00    +0.000 C 
ATOM     11  N   UNL     1       0.756  10.901  18.866  0.00  0.00    +0.000 N 
ATOM     12  C   UNL     1       1.864  10.166  18.445  0.00  0.00    +0.000 C 
ATOM     13  O   UNL     1       2.792  10.680  17.823  0.00  0.00    +0.000 OA
ATOM     14  C   UNL     1      -0.316  10.490  19.787  0.00  0.00    +0.000 C 
ATOM     15  C   UNL     1      -1.698  10.874  19.208  0.00  0.00    +0.000 C 
BRANCH   8  16
ATOM     16  C   UNL     1      -1.939  13.153  20.045  0.00  0.00    +0.000 C 
BRANCH  16  17
ATOM     17  C   UNL     1      -3.362  13.210  20.620  0.00  0.00    +0.000 C 
BRANCH  17  19
ATOM     18  C   UNL     1      -2.498  12.360  22.628  0.00  0.00    +0.000 C 
ATOM     19  O   UNL     1      -3.311  13.372  22.040  0.00  0.00    +0.000 OA
ENDBRANCH  17  19
ENDBRANCH  16  17
ENDBRANCH   8  16
ENDBRANCH   1  12
BRANCH   4  20
ATOM     20  C   UNL     1       1.982   4.465  19.509  0.00  0.00    +0.000 A 
ATOM     21  C   UNL     1       1.009   3.961  20.388  0.00  0.00    +0.000 A 
ATOM     22  C   UNL     1       0.963   2.605  20.661  0.00  0.00    +0.000 A 
ATOM     23  N   UNL     1       1.833   1.715  20.154  0.00  0.00    +0.000 NA
ATOM     24  C   UNL     1       2.783   2.182  19.305  0.00  0.00    +0.000 A 
ATOM     25  C   UNL     1       3.767   1.154  18.818  0.00  0.00    +0.000 C 
ATOM     26  C   UNL     1       2.881   3.533  18.935  0.00  0.00    +0.000 A 
BRANCH  26  27
ATOM     27  C   UNL     1       3.849   3.926  17.945  0.00  0.00    +0.000 C 
ATOM     28  C   UNL     1       4.655   4.234  17.105  0.00  0.00    +0.000 C 
BRANCH  28  29
ATOM     29  C   UNL     1       5.616   4.578  16.099  0.00  0.00    +0.000 A 
ATOM     30  C   UNL     1       5.472   4.079  14.805  0.00  0.00    +0.000 A 
ATOM     31  C   UNL     1       6.379   4.459  13.816  0.00  0.00    +0.000 A 
ATOM     32  C   UNL     1       7.417   5.314  14.150  0.00  0.00    +0.000 A 
ATOM     33  N   UNL     1       8.285   5.787  13.172  0.00  0.00    +0.000 N 
ATOM     34  N   UNL     1       7.598   5.782  15.395  0.00  0.00    +0.000 NA
ATOM     35  C   UNL     1       6.700   5.424  16.357  0.00  0.00    +0.000 A 
ATOM     36  C   UNL     1       6.941   5.999  17.723  0.00  0.00    +0.000 C 
ATOM     37  H   UNL     1       8.694   5.045  12.617  0.00  0.00    +0.000 HD
ATOM     38  H   UNL     1       8.987   6.356  13.639  0.00  0.00    +0.000 HD
ENDBRANCH  28  29
ENDBRANCH  26  27
ENDBRANCH   4  20
TORSDOF 7
ENDMDL
MODEL 2
REMARK VINA RESULT:      -8.1      1.601      1.854
REMARK  Name = 
REMARK  10 active torsions:
REMARK  status: ('A' for Active; 'I' for Inactive)
REMARK    1  A    between atoms: C_1  and  O_2
REMARK    2  A    between atoms: O_2  and  C_3
REMARK    3  A    between atoms: C_3  and  C_4
REMARK    4  A    between atoms: C_4  and  N_5
REMARK    5  A    between atoms: C_9  and  C_11
REMARK    6  A    between atoms: C_14  and  C_15
REMARK    7  A    between atoms: C_19  and  C_20
REMARK    8  A    between atoms: C_21  and  C_22
REMARK    9  A    between atoms: C_23  and  C_24
REMARK   10  A    between atoms: C_30  and  C_31
REMARK                            x       y       z     vdW  Elec       q    Type
REMARK                         _______ _______ _______ _____ _____    ______ ____
ROOT
ATOM      1  C   UNL     1       1.966   8.606  18.898  0.00  0.00    +0.000 A 
ATOM      2  C   UNL     1       1.419   8.222  20.123  0.00  0.00    +0.000 A 
ATOM      3  C   UNL     1       1.608   6.922  20.602  0.00  0.00    +0.000 A 
ATOM      4  C   UNL     1       2.316   5.958  19.861  0.00  0.00    +0.000 A 
ATOM      5  C   UNL     1       2.756   6.335  18.581  0.00  0.00    +0.000 A 
ATOM      6  C   UNL     1       2.581   7.636  18.109  0.00  0.00    +0.000 A 
ATOM      7  F   UNL     1       3.041   7.923  16.883  0.00  0.00    +0.000 F 
ENDROOT
BRANCH   1  12
ATOM      8  N   UNL     1      -0.870  12.780  20.207  0.00  0.00    +0.000 NA
ATOM      9  C   UNL     1      -0.428  12.793  18.790  0.00  0.00    +0.000 C 
ATOM     10  C   UNL     1       1.008  12.288  18.552  0.00  0.00    +0.000 C 
ATOM     11  N   UNL     1       1.199  10.967  19.151  0.00  0.00    +0.000 N 
ATOM     12  C   UNL     1       1.829   9.986  18.386  0.00  0.00    +0.000 C 
ATOM     13  O   UNL     1       2.257  10.213  17.256  0.00  0.00    +0.000 OA
ATOM     14  C   UNL     1       0.828  10.916  20.575  0.00  0.00    +0.000 C 
ATOM     15  C   UNL     1      -0.616  11.432  20.773  0.00  0.00    +0.000 C 
BRANCH   8  16
ATOM     16  C   UNL     1      -0.227  13.829  21.024  0.00  0.00    +0.000 C 
BRANCH  16  17
ATOM     17  C   UNL     1      -0.557  13.716  22.519  0.00  0.00    +0.000 C 
BRANCH  17  19
ATOM     18  C   UNL     1       0.692  15.694  22.360  0.00  0.00    +0.000 C 
ATOM     19  O   UNL     1      -0.129  14.895  23.206  0.00  0.00    +0.000 OA
ENDBRANCH  17  19
ENDBRANCH  16  17
ENDBRANCH   8  16
ENDBRANCH   1  12
BRANCH   4  20
ATOM     20  C   UNL     1       2.563   4.592  20.391  0.00  0.00    +0.000 A 
ATOM     21  C   UNL     1       1.785   4.126  21.464  0.00  0.00    +0.000 A 
ATOM     22  C   UNL     1       2.000   2.858  21.971  0.00  0.00    +0.000 A 
ATOM     23  N   UNL     1       2.955   2.027  21.516  0.00  0.00    +0.000 NA
ATOM     24  C   UNL     1       3.720   2.459  20.482  0.00  0.00    +0.000 A 
ATOM     25  C   UNL     1       4.812   1.517  20.056  0.00  0.00    +0.000 C 
ATOM     26  C   UNL     1       3.547   3.714  19.874  0.00  0.00    +0.000 A 
BRANCH  26  27
ATOM     27  C   UNL     1       4.328   4.050  18.713  0.00  0.00    +0.000 C 
ATOM     28  C   UNL     1       4.995   4.312  17.746  0.00  0.00    +0.000 C 
BRANCH  28  29
ATOM     29  C   UNL     1       5.807   4.610  16.603  0.00  0.00    +0.000 A 
ATOM     30  C   UNL     1       5.559   3.967  15.391  0.00  0.00    +0.000 A 
ATOM     31  C   UNL     1       6.315   4.299  14.267  0.00  0.00    +0.000 A 
ATOM     32  C   UNL     1       7.313   5.253  14.389  0.00  0.00    +0.000 A 
ATOM     33  N   UNL     1       8.025   5.676  13.272  0.00  0.00    +0.000 N 
ATOM     34  N   UNL     1       7.594   5.864  15.551  0.00  0.00    +0.000 NA
ATOM     35  C   UNL     1       6.841   5.550  16.644  0.00  0.00    +0.000 A 
ATOM     36  C   UNL     1       7.188   6.284  17.907  0.00  0.00    +0.000 C 
ATOM     37  H   UNL     1       8.426   4.909  12.748  0.00  0.00    +0.000 HD
ATOM     38  H   UNL     1       8.727   6.339  13.592  0.00  0.00    +0.000 HD
ENDBRANCH  28  29
ENDBRANCH  26  27
ENDBRANCH   4  20
TORSDOF 7
ENDMDL
MODEL 3
REMARK VINA RESULT:      -7.8      3.059     11.005
REMARK  Name = 
REMARK  10 active torsions:
REMARK  status: ('A' for Active; 'I' for Inactive)
REMARK    1  A    between atoms: C_1  and  O_2
REMARK    2  A    between atoms: O_2  and  C_3
REMARK    3  A    between atoms: C_3  and  C_4
REMARK    4  A    between atoms: C_4  and  N_5
REMARK    5  A    between atoms: C_9  and  C_11
REMARK    6  A    between atoms: C_14  and  C_15
REMARK    7  A    between atoms: C_19  and  C_20
REMARK    8  A    between atoms: C_21  and  C_22
REMARK    9  A    between atoms: C_23  and  C_24
REMARK   10  A    between atoms: C_30  and  C_31
REMARK                            x       y       z     vdW  Elec       q    Type
REMARK                         _______ _______ _______ _____ _____    ______ ____
ROOT
ATOM      1  C   UNL     1       1.073   9.031  20.363  0.00  0.00    +0.000 A 
ATOM      2  C   UNL     1       1.039   9.390  19.016  0.00  0.00    +0.000 A 
ATOM      3  C   UNL     1       1.094  10.736  18.642  0.00  0.00    +0.000 A 
ATOM      4  C   UNL     1       1.149  11.765  19.600  0.00  0.00    +0.000 A 
ATOM      5  C   UNL     1       1.065  11.385  20.951  0.00  0.00    +0.000 A 
ATOM      6  C   UNL     1       1.025  10.040  21.323  0.00  0.00    +0.000 A 
ATOM      7  F   UNL     1       0.961   9.757  22.632  0.00  0.00    +0.000 F 
ENDROOT
BRANCH   1  12
ATOM      8  N   UNL     1       2.877   4.558  18.386  0.00  0.00    +0.000 NA
ATOM      9  C   UNL     1       1.755   4.367  19.340  0.00  0.00    +0.000 C 
ATOM     10  C   UNL     1       1.789   5.285  20.576  0.00  0.00    +0.000 C 
ATOM     11  N   UNL     1       1.908   6.687  20.177  0.00  0.00    +0.000 N 
ATOM     12  C   UNL     1       1.068   7.616  20.791  0.00  0.00    +0.000 C 
ATOM     13  O   UNL     1       0.273   7.296  21.672  0.00  0.00    +0.000 OA
ATOM     14  C   UNL     1       3.044   6.940  19.274  0.00  0.00    +0.000 C 
ATOM     15  C   UNL     1       2.976   5.999  18.050  0.00  0.00    +0.000 C 
BRANCH   8  16
ATOM     16  C   UNL     1       4.163   4.042  18.895  0.00  0.00    +0.000 C 
BRANCH  16  17
ATOM     17  C   UNL     1       5.310   4.178  17.883  0.00  0.00    +0.000 C 
BRANCH  17  19
ATOM     18  C   UNL     1       7.593   4.657  17.649  0.00  0.00    +0.000 C 
ATOM     19  O   UNL     1       6.554   4.341  18.570  0.00  0.00    +0.000 OA
ENDBRANCH  17  19
ENDBRANCH  16  17
ENDBRANCH   8  16
ENDBRANCH   1  12
BRANCH   4  20
ATOM     20  C   UNL     1       1.260  13.193  19.207  0.00  0.00    +0.000 A 
ATOM     21  C   UNL     1       2.467  13.657  18.657  0.00  0.00    +0.000 A 
ATOM     22  C   UNL     1       2.591  14.983  18.285  0.00  0.00    +0.000 A 
ATOM     23  N   UNL     1       1.616  15.895  18.450  0.00  0.00    +0.000 NA
ATOM     24  C   UNL     1       0.444  15.469  18.983  0.00  0.00    +0.000 A 
ATOM     25  C   UNL     1      -0.587  16.542  19.202  0.00  0.00    +0.000 C 
ATOM     26  C   UNL     1       0.211  14.133  19.350  0.00  0.00    +0.000 A 
BRANCH  26  27
ATOM     27  C   UNL     1      -1.098  13.744  19.806  0.00  0.00    +0.000 C 
ATOM     28  C   UNL     1      -2.187  13.425  20.209  0.00  0.00    +0.000 C 
BRANCH  28  29
ATOM     29  C   UNL     1      -3.475  13.048  20.711  0.00  0.00    +0.000 A 
ATOM     30  C   UNL     1      -4.538  12.872  19.827  0.00  0.00    +0.000 A 
ATOM     31  C   UNL     1      -5.776  12.452  20.313  0.00  0.00    +0.000 A 
ATOM     32  C   UNL     1      -5.924  12.235  21.674  0.00  0.00    +0.000 A 
ATOM     33  N   UNL     1      -7.114  11.728  22.184  0.00  0.00    +0.000 N 
ATOM     34  N   UNL     1      -4.926  12.429  22.551  0.00  0.00    +0.000 NA
ATOM     35  C   UNL     1      -3.711  12.823  22.071  0.00  0.00    +0.000 A 
ATOM     36  C   UNL     1      -2.629  12.998  23.097  0.00  0.00    +0.000 C 
ATOM     37  H   UNL     1      -7.924  12.258  21.890  0.00  0.00    +0.000 HD
ATOM     38  H   UNL     1      -7.019  11.691  23.195  0.00  0.00    +0.000 HD
ENDBRANCH  28  29
ENDBRANCH  26  27
ENDBRANCH   4  20
TORSDOF 7
ENDMDL
MODEL 4
REMARK VINA RESULT:      -7.8      2.959     10.479
REMARK  Name = 
REMARK  10 active torsions:
REMARK  status: ('A' for Active; 'I' for Inactive)
REMARK    1  A    between atoms: C_1  and  O_2
REMARK    2  A    between atoms: O_2  and  C_3
REMARK    3  A    between atoms: C_3  and  C_4
REMARK    4  A    between atoms: C_4  and  N_5
REMARK    5  A    between atoms: C_9  and  C_11
REMARK    6  A    between atoms: C_14  and  C_15
REMARK    7  A    between atoms: C_19  and  C_20
REMARK    8  A    between atoms: C_21  and  C_22
REMARK    9  A    between atoms: C_23  and  C_24
REMARK   10  A    between atoms: C_30  and  C_31
REMARK                            x       y       z     vdW  Elec       q    Type
REMARK                         _______ _______ _______ _____ _____    ______ ____
ROOT
ATOM      1  C   UNL     1       1.615   8.494  19.808  0.00  0.00    +0.000 A 
ATOM      2  C   UNL     1       1.718   9.020  18.520  0.00  0.00    +0.000 A 
ATOM      3  C   UNL     1       1.684  10.403  18.319  0.00  0.00    +0.000 A 
ATOM      4  C   UNL     1       1.513  11.300  19.389  0.00  0.00    +0.000 A 
ATOM      5  C   UNL     1       1.295  10.742  20.661  0.00  0.00    +0.000 A 
ATOM      6  C   UNL     1       1.344   9.362  20.863  0.00  0.00    +0.000 A 
ATOM      7  F   UNL     1       1.142   8.906  22.108  0.00  0.00    +0.000 F 
ENDROOT
BRANCH   1  12
ATOM      8  N   UNL     1       4.044   4.473  17.548  0.00  0.00    +0.000 NA
ATOM      9  C   UNL     1       2.848   4.070  18.330  0.00  0.00    +0.000 C 
ATOM     10  C   UNL     1       2.658   4.821  19.661  0.00  0.00    +0.000 C 
ATOM     11  N   UNL     1       2.686   6.269  19.448  0.00  0.00    +0.000 N 
ATOM     12  C   UNL     1       1.699   7.039  20.061  0.00  0.00    +0.000 C 
ATOM     13  O   UNL     1       0.845   6.545  20.796  0.00  0.00    +0.000 OA
ATOM     14  C   UNL     1       3.884   6.726  18.725  0.00  0.00    +0.000 C 
ATOM     15  C   UNL     1       4.041   5.948  17.398  0.00  0.00    +0.000 C 
BRANCH   8  16
ATOM     16  C   UNL     1       5.310   4.001  18.144  0.00  0.00    +0.000 C 
BRANCH  16  17
ATOM     17  C   UNL     1       6.553   4.512  17.401  0.00  0.00    +0.000 C 
BRANCH  17  19
ATOM     18  C   UNL     1       7.679   5.742  19.049  0.00  0.00    +0.000 C 
ATOM     19  O   UNL     1       7.676   4.540  18.285  0.00  0.00    +0.000 OA
ENDBRANCH  17  19
ENDBRANCH  16  17
ENDBRANCH   8  16
ENDBRANCH   1  12
BRANCH   4  20
ATOM     20  C   UNL     1       1.529  12.771  19.186  0.00  0.00    +0.000 A 
ATOM     21  C   UNL     1       2.764  13.438  19.128  0.00  0.00    +0.000 A 
ATOM     22  C   UNL     1       2.800  14.808  18.940  0.00  0.00    +0.000 A 
ATOM     23  N   UNL     1       1.699  15.573  18.839  0.00  0.00    +0.000 NA
ATOM     24  C   UNL     1       0.496  14.950  18.896  0.00  0.00    +0.000 A 
ATOM     25  C   UNL     1      -0.700  15.860  18.842  0.00  0.00    +0.000 C 
ATOM     26  C   UNL     1       0.360  13.559  19.042  0.00  0.00    +0.000 A 
BRANCH  26  27
ATOM     27  C   UNL     1      -0.950  12.967  18.983  0.00  0.00    +0.000 C 
ATOM     28  C   UNL     1      -2.055  12.489  18.947  0.00  0.00    +0.000 C 
BRANCH  28  29
ATOM     29  C   UNL     1      -3.376  11.935  18.921  0.00  0.00    +0.000 A 
ATOM     30  C   UNL     1      -4.372  12.485  19.727  0.00  0.00    +0.000 A 
ATOM     31  C   UNL     1      -5.670  11.979  19.660  0.00  0.00    +0.000 A 
ATOM     32  C   UNL     1      -5.934  10.923  18.801  0.00  0.00    +0.000 A 
ATOM     33  N   UNL     1      -7.233  10.453  18.640  0.00  0.00    +0.000 N 
ATOM     34  N   UNL     1      -4.987  10.354  18.040  0.00  0.00    +0.000 NA
ATOM     35  C   UNL     1      -3.723  10.862  18.094  0.00  0.00    +0.000 A 
ATOM     36  C   UNL     1      -2.713  10.200  17.201  0.00  0.00    +0.000 C 
ATOM     37  H   UNL     1      -7.681  10.225  19.518  0.00  0.00    +0.000 HD
ATOM     38  H   UNL     1      -7.191   9.658  18.006  0.00  0.00    +0.000 HD
ENDBRANCH  28  29
ENDBRANCH  26  27
ENDBRANCH   4  20
TORSDOF 7
ENDMDL
MODEL 5
REMARK VINA RESULT:      -7.6      6.719     10.173
REMARK  Name = 
REMARK  10 active torsions:
REMARK  status: ('A' for Active; 'I' for Inactive)
REMARK    1  A    between atoms: C_1  and  O_2
REMARK    2  A    between atoms: O_2  and  C_3
REMARK    3  A    between atoms: C_3  and  C_4
REMARK    4  A    between atoms: C_4  and  N_5
REMARK    5  A    between atoms: C_9  and  C_11
REMARK    6  A    between atoms: C_14  and  C_15
REMARK    7  A    between atoms: C_19  and  C_20
REMARK    8  A    between atoms: C_21  and  C_22
REMARK    9  A    between atoms: C_23  and  C_24
REMARK   10  A    between atoms: C_30  and  C_31
REMARK                            x       y       z     vdW  Elec       q    Type
REMARK                         _______ _______ _______ _____ _____    ______ ____
ROOT
ATOM      1  C   UNL     1       4.088  15.775  18.760  0.00  0.00    +0.000 A 
ATOM      2  C   UNL     1       4.701  14.893  17.870  0.00  0.00    +0.000 A 
ATOM      3  C   UNL     1       6.095  14.825  17.792  0.00  0.00    +0.000 A 
ATOM      4  C   UNL     1       6.919  15.658  18.573  0.00  0.00    +0.000 A 
ATOM      5  C   UNL     1       6.278  16.618  19.374  0.00  0.00    +0.000 A 
ATOM      6  C   UNL     1       4.886  16.675  19.463  0.00  0.00    +0.000 A 
ATOM      7  F   UNL     1       4.350  17.609  20.261  0.00  0.00    +0.000 F 
ENDROOT
BRANCH   1  12
ATOM      8  N   UNL     1       0.283  12.276  19.430  0.00  0.00    +0.000 NA
ATOM      9  C   UNL     1      -0.189  13.545  18.821  0.00  0.00    +0.000 C 
ATOM     10  C   UNL     1       0.445  14.822  19.405  0.00  0.00    +0.000 C 
ATOM     11  N   UNL     1       1.906  14.734  19.376  0.00  0.00    +0.000 N 
ATOM     12  C   UNL     1       2.618  15.836  18.903  0.00  0.00    +0.000 C 
ATOM     13  O   UNL     1       2.060  16.875  18.556  0.00  0.00    +0.000 OA
ATOM     14  C   UNL     1       2.428  13.518  20.020  0.00  0.00    +0.000 C 
ATOM     15  C   UNL     1       1.766  12.261  19.410  0.00  0.00    +0.000 C 
BRANCH   8  16
ATOM     16  C   UNL     1      -0.232  12.063  20.797  0.00  0.00    +0.000 C 
BRANCH  16  17
ATOM     17  C   UNL     1       0.336  10.803  21.465  0.00  0.00    +0.000 C 
BRANCH  17  19
ATOM     18  C   UNL     1       1.004   8.667  20.765  0.00  0.00    +0.000 C 
ATOM     19  O   UNL     1      -0.034   9.641  20.717  0.00  0.00    +0.000 OA
ENDBRANCH  17  19
ENDBRANCH  16  17
ENDBRANCH   8  16
ENDBRANCH   1  12
BRANCH   4  20
ATOM     20  C   UNL     1       8.400  15.552  18.531  0.00  0.00    +0.000 A 
ATOM     21  C   UNL     1       9.104  16.231  17.522  0.00  0.00    +0.000 A 
ATOM     22  C   UNL     1      10.483  16.144  17.466  0.00  0.00    +0.000 A 
ATOM     23  N   UNL     1      11.216  15.406  18.317  0.00  0.00    +0.000 NA
ATOM     24  C   UNL     1      10.556  14.739  19.297  0.00  0.00    +0.000 A 
ATOM     25  C   UNL     1      11.419  13.880  20.180  0.00  0.00    +0.000 C 
ATOM     26  C   UNL     1       9.162  14.801  19.459  0.00  0.00    +0.000 A 
BRANCH  26  27
ATOM     27  C   UNL     1       8.553  14.152  20.590  0.00  0.00    +0.000 C 
ATOM     28  C   UNL     1       8.021  13.610  21.525  0.00  0.00    +0.000 C 
BRANCH  28  29
ATOM     29  C   UNL     1       7.368  12.971  22.628  0.00  0.00    +0.000 A 
ATOM     30  C   UNL     1       8.051  12.016  23.379  0.00  0.00    +0.000 A 
ATOM     31  C   UNL     1       7.431  11.436  24.486  0.00  0.00    +0.000 A 
ATOM     32  C   UNL     1       6.135  11.814  24.803  0.00  0.00    +0.000 A 
ATOM     33  N   UNL     1       5.519  11.327  25.950  0.00  0.00    +0.000 N 
ATOM     34  N   UNL     1       5.443  12.706  24.077  0.00  0.00    +0.000 NA
ATOM     35  C   UNL     1       6.058  13.285  23.007  0.00  0.00    +0.000 A 
ATOM     36  C   UNL     1       5.241  14.293  22.250  0.00  0.00    +0.000 C 
ATOM     37  H   UNL     1       5.545  10.317  26.011  0.00  0.00    +0.000 HD
ATOM     38  H   UNL     1       4.570  11.694  25.964  0.00  0.00    +0.000 HD
ENDBRANCH  28  29
ENDBRANCH  26  27
ENDBRANCH   4  20
TORSDOF 7
ENDMDL
MODEL 6
REMARK VINA RESULT:      -7.5      6.850     10.402
REMARK  Name = 
REMARK  10 active torsions:
REMARK  status: ('A' for Active; 'I' for Inactive)
REMARK    1  A    between atoms: C_1  and  O_2
REMARK    2  A    between atoms: O_2  and  C_3
REMARK    3  A    between atoms: C_3  and  C_4
REMARK    4  A    between atoms: C_4  and  N_5
REMARK    5  A    between atoms: C_9  and  C_11
REMARK    6  A    between atoms: C_14  and  C_15
REMARK    7  A    between atoms: C_19  and  C_20
REMARK    8  A    between atoms: C_21  and  C_22
REMARK    9  A    between atoms: C_23  and  C_24
REMARK   10  A    between atoms: C_30  and  C_31
REMARK                            x       y       z     vdW  Elec       q    Type
REMARK                         _______ _______ _______ _____ _____    ______ ____
ROOT
ATOM      1  C   UNL     1       3.471  16.081  19.017  0.00  0.00    +0.000 A 
ATOM      2  C   UNL     1       4.055  16.889  19.993  0.00  0.00    +0.000 A 
ATOM      3  C   UNL     1       5.442  17.057  20.032  0.00  0.00    +0.000 A 
ATOM      4  C   UNL     1       6.290  16.398  19.123  0.00  0.00    +0.000 A 
ATOM      5  C   UNL     1       5.689  15.500  18.225  0.00  0.00    +0.000 A 
ATOM      6  C   UNL     1       4.303  15.345  18.176  0.00  0.00    +0.000 A 
ATOM      7  F   UNL     1       3.803  14.480  17.281  0.00  0.00    +0.000 F 
ENDROOT
BRANCH   1  12
ATOM      8  N   UNL     1       0.172  12.046  18.990  0.00  0.00    +0.000 NA
ATOM      9  C   UNL     1      -0.380  13.257  18.332  0.00  0.00    +0.000 C 
ATOM     10  C   UNL     1      -0.045  14.587  19.033  0.00  0.00    +0.000 C 
ATOM     11  N   UNL     1       1.397  14.712  19.246  0.00  0.00    +0.000 N 
ATOM     12  C   UNL     1       2.004  15.923  18.915  0.00  0.00    +0.000 C 
ATOM     13  O   UNL     1       1.362  16.885  18.496  0.00  0.00    +0.000 OA
ATOM     14  C   UNL     1       1.983  13.559  19.948  0.00  0.00    +0.000 C 
ATOM     15  C   UNL     1       1.624  12.245  19.217  0.00  0.00    +0.000 C 
BRANCH   8  16
ATOM     16  C   UNL     1      -0.521  11.706  20.249  0.00  0.00    +0.000 C 
BRANCH  16  17
ATOM     17  C   UNL     1       0.008  10.420  20.900  0.00  0.00    +0.000 C 
BRANCH  17  19
ATOM     18  C   UNL     1      -0.756  10.302  23.113  0.00  0.00    +0.000 C 
ATOM     19  O   UNL     1       0.335  10.662  22.271  0.00  0.00    +0.000 OA
ENDBRANCH  17  19
ENDBRANCH  16  17
ENDBRANCH   8  16
ENDBRANCH   1  12
BRANCH   4  20
ATOM     20  C   UNL     1       7.760  16.615  19.129  0.00  0.00    +0.000 A 
ATOM     21  C   UNL     1       8.309  17.592  18.282  0.00  0.00    +0.000 A 
ATOM     22  C   UNL     1       9.675  17.809  18.272  0.00  0.00    +0.000 A 
ATOM     23  N   UNL     1      10.544  17.103  19.016  0.00  0.00    +0.000 NA
ATOM     24  C   UNL     1      10.036  16.151  19.839  0.00  0.00    +0.000 A 
ATOM     25  C   UNL     1      11.056  15.350  20.599  0.00  0.00    +0.000 C 
ATOM     26  C   UNL     1       8.660  15.889  19.948  0.00  0.00    +0.000 A 
BRANCH  26  27
ATOM     27  C   UNL     1       8.196  14.939  20.924  0.00  0.00    +0.000 C 
ATOM     28  C   UNL     1       7.787  14.155  21.741  0.00  0.00    +0.000 C 
BRANCH  28  29
ATOM     29  C   UNL     1       7.281  13.236  22.718  0.00  0.00    +0.000 A 
ATOM     30  C   UNL     1       8.166  12.430  23.433  0.00  0.00    +0.000 A 
ATOM     31  C   UNL     1       7.675  11.577  24.421  0.00  0.00    +0.000 A 
ATOM     32  C   UNL     1       6.309  11.537  24.656  0.00  0.00    +0.000 A 
ATOM     33  N   UNL     1       5.793  10.769  25.693  0.00  0.00    +0.000 N 
ATOM     34  N   UNL     1       5.433  12.278  23.959  0.00  0.00    +0.000 NA
ATOM     35  C   UNL     1       5.917  13.125  23.006  0.00  0.00    +0.000 A 
ATOM     36  C   UNL     1       4.890  13.944  22.278  0.00  0.00    +0.000 C 
ATOM     37  H   UNL     1       6.105   9.806  25.662  0.00  0.00    +0.000 HD
ATOM     38  H   UNL     1       4.780  10.851  25.657  0.00  0.00    +0.000 HD
ENDBRANCH  28  29
ENDBRANCH  26  27
ENDBRANCH   4  20
TORSDOF 7
ENDMDL
MODEL 7
REMARK VINA RESULT:      -7.5      2.976     10.541
REMARK  Name = 
REMARK  10 active torsions:
REMARK  status: ('A' for Active; 'I' for Inactive)
REMARK    1  A    between atoms: C_1  and  O_2
REMARK    2  A    between atoms: O_2  and  C_3
REMARK    3  A    between atoms: C_3  and  C_4
REMARK    4  A    between atoms: C_4  and  N_5
REMARK    5  A    between atoms: C_9  and  C_11
REMARK    6  A    between atoms: C_14  and  C_15
REMARK    7  A    between atoms: C_19  and  C_20
REMARK    8  A    between atoms: C_21  and  C_22
REMARK    9  A    between atoms: C_23  and  C_24
REMARK   10  A    between atoms: C_30  and  C_31
REMARK                            x       y       z     vdW  Elec       q    Type
REMARK                         _______ _______ _______ _____ _____    ______ ____
ROOT
ATOM      1  C   UNL     1       1.461   8.673  20.057  0.00  0.00    +0.000 A 
ATOM      2  C   UNL     1       1.533   9.162  18.753  0.00  0.00    +0.000 A 
ATOM      3  C   UNL     1       1.532  10.540  18.515  0.00  0.00    +0.000 A 
ATOM      4  C   UNL     1       1.423  11.469  19.566  0.00  0.00    +0.000 A 
ATOM      5  C   UNL     1       1.234  10.951  20.859  0.00  0.00    +0.000 A 
ATOM      6  C   UNL     1       1.251   9.576  21.097  0.00  0.00    +0.000 A 
ATOM      7  F   UNL     1       1.079   9.160  22.360  0.00  0.00    +0.000 F 
ENDROOT
BRANCH   1  12
ATOM      8  N   UNL     1       3.656   4.518  17.801  0.00  0.00    +0.000 NA
ATOM      9  C   UNL     1       2.486   4.174  18.648  0.00  0.00    +0.000 C 
ATOM     10  C   UNL     1       2.383   4.967  19.965  0.00  0.00    +0.000 C 
ATOM     11  N   UNL     1       2.445   6.406  19.711  0.00  0.00    +0.000 N 
ATOM     12  C   UNL     1       1.512   7.224  20.347  0.00  0.00    +0.000 C 
ATOM     13  O   UNL     1       0.680   6.777  21.135  0.00  0.00    +0.000 OA
ATOM     14  C   UNL     1       3.621   6.806  18.920  0.00  0.00    +0.000 C 
ATOM     15  C   UNL     1       3.691   5.988  17.610  0.00  0.00    +0.000 C 
BRANCH   8  16
ATOM     16  C   UNL     1       4.934   4.023  18.350  0.00  0.00    +0.000 C 
BRANCH  16  17
ATOM     17  C   UNL     1       6.153   4.454  17.522  0.00  0.00    +0.000 C 
BRANCH  17  19
ATOM     18  C   UNL     1       7.307   5.668  19.163  0.00  0.00    +0.000 C 
ATOM     19  O   UNL     1       7.318   4.498  18.351  0.00  0.00    +0.000 OA
ENDBRANCH  17  19
ENDBRANCH  16  17
ENDBRANCH   8  16
ENDBRANCH   1  12
BRANCH   4  20
ATOM     20  C   UNL     1       1.474  12.933  19.322  0.00  0.00    +0.000 A 
ATOM     21  C   UNL     1       2.724  13.573  19.272  0.00  0.00    +0.000 A 
ATOM     22  C   UNL     1       2.792  14.936  19.046  0.00  0.00    +0.000 A 
ATOM     23  N   UNL     1       1.709  15.720  18.901  0.00  0.00    +0.000 NA
ATOM     24  C   UNL     1       0.492  15.123  18.950  0.00  0.00    +0.000 A 
ATOM     25  C   UNL     1      -0.683  16.055  18.845  0.00  0.00    +0.000 C 
ATOM     26  C   UNL     1       0.325  13.740  19.131  0.00  0.00    +0.000 A 
BRANCH  26  27
ATOM     27  C   UNL     1      -0.995  13.173  19.062  0.00  0.00    +0.000 C 
ATOM     28  C   UNL     1      -2.091  12.677  18.993  0.00  0.00    +0.000 C 
BRANCH  28  29
ATOM     29  C   UNL     1      -3.386  12.073  18.896  0.00  0.00    +0.000 A 
ATOM     30  C   UNL     1      -3.622  11.093  17.933  0.00  0.00    +0.000 A 
ATOM     31  C   UNL     1      -4.867  10.467  17.876  0.00  0.00    +0.000 A 
ATOM     32  C   UNL     1      -5.852  10.852  18.772  0.00  0.00    +0.000 A 
ATOM     33  N   UNL     1      -7.074  10.189  18.806  0.00  0.00    +0.000 N 
ATOM     34  N   UNL     1      -5.663  11.817  19.687  0.00  0.00    +0.000 NA
ATOM     35  C   UNL     1      -4.438  12.413  19.752  0.00  0.00    +0.000 A 
ATOM     36  C   UNL     1      -4.280  13.466  20.811  0.00  0.00    +0.000 C 
ATOM     37  H   UNL     1      -7.519  10.138  17.898  0.00  0.00    +0.000 HD
ATOM     38  H   UNL     1      -7.654  10.657  19.498  0.00  0.00    +0.000 HD
ENDBRANCH  28  29
ENDBRANCH  26  27
ENDBRANCH   4  20
TORSDOF 7
ENDMDL
MODEL 8
REMARK VINA RESULT:      -7.5      3.495      9.605
REMARK  Name = 
REMARK  10 active torsions:
REMARK  status: ('A' for Active; 'I' for Inactive)
REMARK    1  A    between atoms: C_1  and  O_2
REMARK    2  A    between atoms: O_2  and  C_3
REMARK    3  A    between atoms: C_3  and  C_4
REMARK    4  A    between atoms: C_4  and  N_5
REMARK    5  A    between atoms: C_9  and  C_11
REMARK    6  A    between atoms: C_14  and  C_15
REMARK    7  A    between atoms: C_19  and  C_20
REMARK    8  A    between atoms: C_21  and  C_22
REMARK    9  A    between atoms: C_23  and  C_24
REMARK   10  A    between atoms: C_30  and  C_31
REMARK                            x       y       z     vdW  Elec       q    Type
REMARK                         _______ _______ _______ _____ _____    ______ ____
ROOT
ATOM      1  C   UNL     1       1.655   8.501  19.397  0.00  0.00    +0.000 A 
ATOM      2  C   UNL     1       1.317   8.376  20.744  0.00  0.00    +0.000 A 
ATOM      3  C   UNL     1       0.520   9.343  21.364  0.00  0.00    +0.000 A 
ATOM      4  C   UNL     1       0.065  10.479  20.669  0.00  0.00    +0.000 A 
ATOM      5  C   UNL     1       0.515  10.641  19.348  0.00  0.00    +0.000 A 
ATOM      6  C   UNL     1       1.298   9.668  18.725  0.00  0.00    +0.000 A 
ATOM      7  F   UNL     1       1.675   9.888  17.457  0.00  0.00    +0.000 F 
ENDROOT
BRANCH   1  12
ATOM      8  N   UNL     1       3.361   3.714  20.560  0.00  0.00    +0.000 NA
ATOM      9  C   UNL     1       4.174   4.388  19.517  0.00  0.00    +0.000 C 
ATOM     10  C   UNL     1       3.368   5.208  18.492  0.00  0.00    +0.000 C 
ATOM     11  N   UNL     1       2.484   6.158  19.168  0.00  0.00    +0.000 N 
ATOM     12  C   UNL     1       2.453   7.471  18.698  0.00  0.00    +0.000 C 
ATOM     13  O   UNL     1       3.107   7.831  17.721  0.00  0.00    +0.000 OA
ATOM     14  C   UNL     1       1.614   5.528  20.174  0.00  0.00    +0.000 C 
ATOM     15  C   UNL     1       2.459   4.714  21.181  0.00  0.00    +0.000 C 
BRANCH   8  16
ATOM     16  C   UNL     1       2.599   2.560  20.043  0.00  0.00    +0.000 C 
BRANCH  16  17
ATOM     17  C   UNL     1       3.023   2.142  18.628  0.00  0.00    +0.000 C 
BRANCH  17  19
ATOM     18  C   UNL     1       0.696   2.398  18.497  0.00  0.00    +0.000 C 
ATOM     19  O   UNL     1       1.878   2.068  17.774  0.00  0.00    +0.000 OA
ENDBRANCH  17  19
ENDBRANCH  16  17
ENDBRANCH   8  16
ENDBRANCH   1  12
BRANCH   4  20
ATOM     20  C   UNL     1      -0.825  11.482  21.309  0.00  0.00    +0.000 A 
ATOM     21  C   UNL     1      -0.479  11.993  22.572  0.00  0.00    +0.000 A 
ATOM     22  C   UNL     1      -1.295  12.927  23.184  0.00  0.00    +0.000 A 
ATOM     23  N   UNL     1      -2.449  13.367  22.653  0.00  0.00    +0.000 NA
ATOM     24  C   UNL     1      -2.804  12.883  21.437  0.00  0.00    +0.000 A 
ATOM     25  C   UNL     1      -4.133  13.361  20.920  0.00  0.00    +0.000 C 
ATOM     26  C   UNL     1      -2.018  11.965  20.720  0.00  0.00    +0.000 A 
BRANCH  26  27
ATOM     27  C   UNL     1      -2.413  11.586  19.389  0.00  0.00    +0.000 C 
ATOM     28  C   UNL     1      -2.720  11.274  18.267  0.00  0.00    +0.000 C 
BRANCH  28  29
ATOM     29  C   UNL     1      -3.067  10.914  16.924  0.00  0.00    +0.000 A 
ATOM     30  C   UNL     1      -2.182  10.153  16.161  0.00  0.00    +0.000 A 
ATOM     31  C   UNL     1      -2.546   9.759  14.873  0.00  0.00    +0.000 A 
ATOM     32  C   UNL     1      -3.778  10.152  14.375  0.00  0.00    +0.000 A 
ATOM     33  N   UNL     1      -4.213   9.702  13.133  0.00  0.00    +0.000 N 
ATOM     34  N   UNL     1      -4.634  10.912  15.075  0.00  0.00    +0.000 NA
ATOM     35  C   UNL     1      -4.284  11.281  16.341  0.00  0.00    +0.000 A 
ATOM     36  C   UNL     1      -5.293  12.109  17.083  0.00  0.00    +0.000 C 
ATOM     37  H   UNL     1      -3.541   9.871  12.396  0.00  0.00    +0.000 HD
ATOM     38  H   UNL     1      -5.111  10.141  12.949  0.00  0.00    +0.000 HD
ENDBRANCH  28  29
ENDBRANCH  26  27
ENDBRANCH   4  20
TORSDOF 7
ENDMDL
MODEL 9
REMARK VINA RESULT:      -7.5      3.058     10.947
REMARK  Name = 
REMARK  10 active torsions:
REMARK  status: ('A' for Active; 'I' for Inactive)
REMARK    1  A    between atoms: C_1  and  O_2
REMARK    2  A    between atoms: O_2  and  C_3
REMARK    3  A    between atoms: C_3  and  C_4
REMARK    4  A    between atoms: C_4  and  N_5
REMARK    5  A    between atoms: C_9  and  C_11
REMARK    6  A    between atoms: C_14  and  C_15
REMARK    7  A    between atoms: C_19  and  C_20
REMARK    8  A    between atoms: C_21  and  C_22
REMARK    9  A    between atoms: C_23  and  C_24
REMARK   10  A    between atoms: C_30  and  C_31
REMARK                            x       y       z     vdW  Elec       q    Type
REMARK                         _______ _______ _______ _____ _____    ______ ____
ROOT
ATOM      1  C   UNL     1       1.154   9.032  20.295  0.00  0.00    +0.000 A 
ATOM      2  C   UNL     1       1.118   9.397  18.949  0.00  0.00    +0.000 A 
ATOM      3  C   UNL     1       1.157  10.746  18.584  0.00  0.00    +0.000 A 
ATOM      4  C   UNL     1       1.197  11.770  19.548  0.00  0.00    +0.000 A 
ATOM      5  C   UNL     1       1.115  11.381  20.896  0.00  0.00    +0.000 A 
ATOM      6  C   UNL     1       1.091  10.034  21.260  0.00  0.00    +0.000 A 
ATOM      7  F   UNL     1       1.028   9.742  22.567  0.00  0.00    +0.000 F 
ENDROOT
BRANCH   1  12
ATOM      8  N   UNL     1       3.006   4.591  18.288  0.00  0.00    +0.000 NA
ATOM      9  C   UNL     1       1.888   4.381  19.243  0.00  0.00    +0.000 C 
ATOM     10  C   UNL     1       1.913   5.292  20.484  0.00  0.00    +0.000 C 
ATOM     11  N   UNL     1       2.016   6.698  20.093  0.00  0.00    +0.000 N 
ATOM     12  C   UNL     1       1.166   7.613  20.714  0.00  0.00    +0.000 C 
ATOM     13  O   UNL     1       0.376   7.279  21.595  0.00  0.00    +0.000 OA
ATOM     14  C   UNL     1       3.147   6.969  19.190  0.00  0.00    +0.000 C 
ATOM     15  C   UNL     1       3.087   6.035  17.960  0.00  0.00    +0.000 C 
BRANCH   8  16
ATOM     16  C   UNL     1       4.299   4.087  18.792  0.00  0.00    +0.000 C 
BRANCH  16  17
ATOM     17  C   UNL     1       5.465   4.353  17.830  0.00  0.00    +0.000 C 
BRANCH  17  19
ATOM     18  C   UNL     1       6.833   5.567  19.297  0.00  0.00    +0.000 C 
ATOM     19  O   UNL     1       6.702   4.363  18.549  0.00  0.00    +0.000 OA
ENDBRANCH  17  19
ENDBRANCH  16  17
ENDBRANCH   8  16
ENDBRANCH   1  12
BRANCH   4  20
ATOM     20  C   UNL     1       1.291  13.202  19.163  0.00  0.00    +0.000 A 
ATOM     21  C   UNL     1       2.503  13.691  18.646  0.00  0.00    +0.000 A 
ATOM     22  C   UNL     1       2.610  15.021  18.282  0.00  0.00    +0.000 A 
ATOM     23  N   UNL     1       1.615  15.913  18.426  0.00  0.00    +0.000 NA
ATOM     24  C   UNL     1       0.437  15.463  18.927  0.00  0.00    +0.000 A 
ATOM     25  C   UNL     1      -0.619  16.515  19.124  0.00  0.00    +0.000 C 
ATOM     26  C   UNL     1       0.220  14.122  19.283  0.00  0.00    +0.000 A 
BRANCH  26  27
ATOM     27  C   UNL     1      -1.091  13.705  19.704  0.00  0.00    +0.000 C 
ATOM     28  C   UNL     1      -2.185  13.367  20.077  0.00  0.00    +0.000 C 
BRANCH  28  29
ATOM     29  C   UNL     1      -3.479  12.967  20.545  0.00  0.00    +0.000 A 
ATOM     30  C   UNL     1      -3.882  13.301  21.837  0.00  0.00    +0.000 A 
ATOM     31  C   UNL     1      -5.163  12.958  22.270  0.00  0.00    +0.000 A 
ATOM     32  C   UNL     1      -6.002  12.272  21.405  0.00  0.00    +0.000 A 
ATOM     33  N   UNL     1      -7.315  11.995  21.767  0.00  0.00    +0.000 N 
ATOM     34  N   UNL     1      -5.627  11.909  20.168  0.00  0.00    +0.000 NA
ATOM     35  C   UNL     1      -4.381  12.262  19.741  0.00  0.00    +0.000 A 
ATOM     36  C   UNL     1      -4.030  11.850  18.340  0.00  0.00    +0.000 C 
ATOM     37  H   UNL     1      -7.385  11.527  22.662  0.00  0.00    +0.000 HD
ATOM     38  H   UNL     1      -7.730  11.454  21.013  0.00  0.00    +0.000 HD
ENDBRANCH  28  29
ENDBRANCH  26  27
ENDBRANCH   4  20
TORSDOF 7
ENDMDL
