MODEL 1
REMARK VINA RESULT:      -8.6      0.000      0.000
REMARK  Name = 
REMARK  7 active torsions:
REMARK  status: ('A' for Active; 'I' for Inactive)
REMARK    1  A    between atoms: C_1  and  N_2
REMARK    2  A    between atoms: C_3  and  C_5
REMARK    3  A    between atoms: C_7  and  C_8
REMARK    4  A    between atoms: C_11  and  N_12
REMARK    5  A    between atoms: C_14  and  C_15
REMARK    6  A    between atoms: C_15  and  N_16
REMARK    7  A    between atoms: C_17  and  C_18
REMARK                            x       y       z     vdW  Elec       q    Type
REMARK                         _______ _______ _______ _____ _____    ______ ____
ROOT
ATOM      1  C   UNL     1       1.435   8.808  19.363  0.00  0.00    +0.000 A 
ATOM      2  C   UNL     1       2.027   8.941  18.103  0.00  0.00    +0.000 A 
ATOM      3  C   UNL     1       2.898   7.953  17.622  0.00  0.00    +0.000 A 
ATOM      4  C   UNL     1       3.177   6.802  18.374  0.00  0.00    +0.000 A 
ATOM      5  C   UNL     1       2.573   6.676  19.629  0.00  0.00    +0.000 A 
ATOM      6  C   UNL     1       1.729   7.674  20.117  0.00  0.00    +0.000 A 
ATOM      7  F   UNL     1       1.207   7.495  21.339  0.00  0.00    +0.000 F 
ENDROOT
BRANCH   4   8
ATOM      8  N   UNL     1       4.022   5.782  17.877  0.00  0.00    +0.000 N 
ATOM      9  C   UNL     1       5.417   5.965  17.610  0.00  0.00    +0.000 C 
ATOM     10  C   UNL     1       5.908   4.548  17.404  0.00  0.00    +0.000 C 
ATOM     11  O   UNL     1       4.727   3.818  17.029  0.00  0.00    +0.000 OA
ATOM     12  C   UNL     1       3.631   4.521  17.459  0.00  0.00    +0.000 C 
ATOM     13  O   UNL     1       2.506   4.054  17.400  0.00  0.00    +0.000 OA
BRANCH  10  14
ATOM     14  C   UNL     1       6.950   4.444  16.292  0.00  0.00    +0.000 C 
BRANCH  14  15
ATOM     15  N   UNL     1       6.407   3.841  15.087  0.00  0.00    +0.000 N 
ATOM     16  C   UNL     1       6.700   4.334  13.838  0.00  0.00    +0.000 C 
ATOM     17  C   UNL     1       6.070   3.568  12.704  0.00  0.00    +0.000 C 
ATOM     18  O   UNL     1       7.408   5.318  13.654  0.00  0.00    +0.000 OA
ATOM     19  H   UNL     1       6.032   2.903  15.164  0.00  0.00    +0.000 HD
ENDBRANCH  14  15
ENDBRANCH  10  14
ENDBRANCH   4   8
BRANCH   1  22
ATOM     20  C   UNL     1      -0.406  11.565  21.064  0.00  0.00    +0.000 C 
ATOM     21  C   UNL     1       0.718  10.564  21.131  0.00  0.00    +0.000 C 
ATOM     22  C   UNL     1       0.502   9.853  19.845  0.00  0.00    +0.000 C 
ATOM     23  N   UNL     1      -0.564  10.199  19.200  0.00  0.00    +0.000 NA
ATOM     24  O   UNL     1      -1.229  11.184  19.960  0.00  0.00    +0.000 OA
BRANCH  20  27
ATOM     25  C   UNL     1      -3.203  12.387  23.520  0.00  0.00    +0.000 C 
ATOM     26  N   UNL     1      -2.336  12.325  22.375  0.00  0.00    +0.000 N 
ATOM     27  C   UNL     1      -1.182  11.576  22.383  0.00  0.00    +0.000 C 
ATOM     28  O   UNL     1      -0.800  10.948  23.369  0.00  0.00    +0.000 OA
ATOM     29  H   UNL     1      -2.616  12.757  21.498  0.00  0.00    +0.000 HD
ENDBRANCH  20  27
ENDBRANCH   1  22
TORSDOF 5
ENDMDL
MODEL 2
REMARK VINA RESULT:      -8.5      1.269      1.567
REMARK  Name = 
REMARK  7 active torsions:
REMARK  status: ('A' for Active; 'I' for Inactive)
REMARK    1  A    between atoms: C_1  and  N_2
REMARK    2  A    between atoms: C_3  and  C_5
REMARK    3  A    between atoms: C_7  and  C_8
REMARK    4  A    between atoms: C_11  and  N_12
REMARK    5  A    between atoms: C_14  and  C_15
REMARK    6  A    between atoms: C_15  and  N_16
REMARK    7  A    between atoms: C_17  and  C_18
REMARK                            x       y       z     vdW  Elec       q    Type
REMARK                         _______ _______ _______ _____ _____    ______ ____
ROOT
ATOM      1  C   UNL     1       1.242   9.005  19.556  0.00  0.00    +0.000 A 
ATOM      2  C   UNL     1       1.493   7.951  20.439  0.00  0.00    +0.000 A 
ATOM      3  C   UNL     1       2.302   6.875  20.046  0.00  0.00    +0.000 A 
ATOM      4  C   UNL     1       2.897   6.840  18.776  0.00  0.00    +0.000 A 
ATOM      5  C   UNL     1       2.646   7.904  17.905  0.00  0.00    +0.000 A 
ATOM      6  C   UNL     1       1.818   8.960  18.288  0.00  0.00    +0.000 A 
ATOM      7  F   UNL     1       1.603   9.931  17.389  0.00  0.00    +0.000 F 
ENDROOT
BRANCH   4   8
ATOM      8  N   UNL     1       3.748   5.779  18.388  0.00  0.00    +0.000 N 
ATOM      9  C   UNL     1       5.170   5.900  18.277  0.00  0.00    +0.000 C 
ATOM     10  C   UNL     1       5.620   4.461  18.142  0.00  0.00    +0.000 C 
ATOM     11  O   UNL     1       4.459   3.774  17.645  0.00  0.00    +0.000 OA
ATOM     12  C   UNL     1       3.353   4.528  17.942  0.00  0.00    +0.000 C 
ATOM     13  O   UNL     1       2.223   4.107  17.762  0.00  0.00    +0.000 OA
BRANCH  10  14
ATOM     14  C   UNL     1       6.774   4.297  17.155  0.00  0.00    +0.000 C 
BRANCH  14  15
ATOM     15  N   UNL     1       6.323   3.826  15.858  0.00  0.00    +0.000 N 
ATOM     16  C   UNL     1       6.737   4.420  14.689  0.00  0.00    +0.000 C 
ATOM     17  C   UNL     1       6.188   3.782  13.439  0.00  0.00    +0.000 C 
ATOM     18  O   UNL     1       7.483   5.392  14.659  0.00  0.00    +0.000 OA
ATOM     19  H   UNL     1       5.918   2.897  15.815  0.00  0.00    +0.000 HD
ENDBRANCH  14  15
ENDBRANCH  10  14
ENDBRANCH   4   8
BRANCH   1  22
ATOM     20  C   UNL     1      -0.269  12.114  20.949  0.00  0.00    +0.000 C 
ATOM     21  C   UNL     1       0.899  11.162  20.954  0.00  0.00    +0.000 C 
ATOM     22  C   UNL     1       0.400  10.143  19.997  0.00  0.00    +0.000 C 
ATOM     23  N   UNL     1      -0.820  10.310  19.604  0.00  0.00    +0.000 NA
ATOM     24  O   UNL     1      -1.326  11.461  20.245  0.00  0.00    +0.000 OA
BRANCH  20  27
ATOM     25  C   UNL     1      -1.323  14.291  23.896  0.00  0.00    +0.000 C 
ATOM     26  N   UNL     1      -0.887  13.808  22.613  0.00  0.00    +0.000 N 
ATOM     27  C   UNL     1      -0.666  12.470  22.384  0.00  0.00    +0.000 C 
ATOM     28  O   UNL     1      -0.790  11.612  23.256  0.00  0.00    +0.000 OA
ATOM     29  H   UNL     1      -0.831  14.442  21.820  0.00  0.00    +0.000 HD
ENDBRANCH  20  27
ENDBRANCH   1  22
TORSDOF 5
ENDMDL
MODEL 3
REMARK VINA RESULT:      -8.2      2.206      2.674
REMARK  Name = 
REMARK  7 active torsions:
REMARK  status: ('A' for Active; 'I' for Inactive)
REMARK    1  A    between atoms: C_1  and  N_2
REMARK    2  A    between atoms: C_3  and  C_5
REMARK    3  A    between atoms: C_7  and  C_8
REMARK    4  A    between atoms: C_11  and  N_12
REMARK    5  A    between atoms: C_14  and  C_15
REMARK    6  A    between atoms: C_15  and  N_16
REMARK    7  A    between atoms: C_17  and  C_18
REMARK                            x       y       z     vdW  Elec       q    Type
REMARK                         _______ _______ _______ _____ _____    ______ ____
ROOT
ATOM      1  C   UNL     1       1.160   9.160  18.723  0.00  0.00    +0.000 A 
ATOM      2  C   UNL     1       1.965   8.973  17.596  0.00  0.00    +0.000 A 
ATOM      3  C   UNL     1       2.949   7.974  17.586  0.00  0.00    +0.000 A 
ATOM      4  C   UNL     1       3.133   7.126  18.688  0.00  0.00    +0.000 A 
ATOM      5  C   UNL     1       2.316   7.317  19.806  0.00  0.00    +0.000 A 
ATOM      6  C   UNL     1       1.357   8.330  19.824  0.00  0.00    +0.000 A 
ATOM      7  F   UNL     1       0.629   8.468  20.941  0.00  0.00    +0.000 F 
ENDROOT
BRANCH   4   8
ATOM      8  N   UNL     1       4.095   6.089  18.669  0.00  0.00    +0.000 N 
ATOM      9  C   UNL     1       5.426   6.248  18.166  0.00  0.00    +0.000 C 
ATOM     10  C   UNL     1       6.118   4.989  18.643  0.00  0.00    +0.000 C 
ATOM     11  O   UNL     1       5.046   4.054  18.846  0.00  0.00    +0.000 OA
ATOM     12  C   UNL     1       3.881   4.761  19.002  0.00  0.00    +0.000 C 
ATOM     13  O   UNL     1       2.841   4.219  19.335  0.00  0.00    +0.000 OA
BRANCH  10  14
ATOM     14  C   UNL     1       7.096   4.431  17.610  0.00  0.00    +0.000 C 
BRANCH  14  15
ATOM     15  N   UNL     1       6.428   4.027  16.385  0.00  0.00    +0.000 N 
ATOM     16  C   UNL     1       6.803   4.525  15.160  0.00  0.00    +0.000 C 
ATOM     17  C   UNL     1       6.016   3.975  13.999  0.00  0.00    +0.000 C 
ATOM     18  O   UNL     1       7.697   5.351  15.017  0.00  0.00    +0.000 OA
ATOM     19  H   UNL     1       5.868   3.183  16.417  0.00  0.00    +0.000 HD
ENDBRANCH  14  15
ENDBRANCH  10  14
ENDBRANCH   4   8
BRANCH   1  22
ATOM     20  C   UNL     1      -1.926  11.250  18.767  0.00  0.00    +0.000 C 
ATOM     21  C   UNL     1      -1.332   9.873  18.624  0.00  0.00    +0.000 C 
ATOM     22  C   UNL     1       0.112  10.209  18.706  0.00  0.00    +0.000 C 
ATOM     23  N   UNL     1       0.380  11.473  18.735  0.00  0.00    +0.000 NA
ATOM     24  O   UNL     1      -0.842  12.175  18.668  0.00  0.00    +0.000 OA
BRANCH  20  27
ATOM     25  C   UNL     1      -5.301  12.176  17.258  0.00  0.00    +0.000 C 
ATOM     26  N   UNL     1      -4.221  11.864  18.153  0.00  0.00    +0.000 N 
ATOM     27  C   UNL     1      -2.983  11.484  17.686  0.00  0.00    +0.000 C 
ATOM     28  O   UNL     1      -2.731  11.353  16.490  0.00  0.00    +0.000 OA
ATOM     29  H   UNL     1      -4.325  12.016  19.153  0.00  0.00    +0.000 HD
ENDBRANCH  20  27
ENDBRANCH   1  22
TORSDOF 5
ENDMDL
MODEL 4
REMARK VINA RESULT:      -8.2      3.581      8.976
REMARK  Name = 
REMARK  7 active torsions:
REMARK  status: ('A' for Active; 'I' for Inactive)
REMARK    1  A    between atoms: C_1  and  N_2
REMARK    2  A    between atoms: C_3  and  C_5
REMARK    3  A    between atoms: C_7  and  C_8
REMARK    4  A    between atoms: C_11  and  N_12
REMARK    5  A    between atoms: C_14  and  C_15
REMARK    6  A    between atoms: C_15  and  N_16
REMARK    7  A    between atoms: C_17  and  C_18
REMARK                            x       y       z     vdW  Elec       q    Type
REMARK                         _______ _______ _______ _____ _____    ______ ____
ROOT
ATOM      1  C   UNL     1       3.029   6.612  19.131  0.00  0.00    +0.000 A 
ATOM      2  C   UNL     1       2.233   7.039  20.199  0.00  0.00    +0.000 A 
ATOM      3  C   UNL     1       1.485   8.221  20.095  0.00  0.00    +0.000 A 
ATOM      4  C   UNL     1       1.494   8.986  18.920  0.00  0.00    +0.000 A 
ATOM      5  C   UNL     1       2.288   8.544  17.856  0.00  0.00    +0.000 A 
ATOM      6  C   UNL     1       3.053   7.383  17.972  0.00  0.00    +0.000 A 
ATOM      7  F   UNL     1       3.808   7.037  16.920  0.00  0.00    +0.000 F 
ENDROOT
BRANCH   4   8
ATOM      8  N   UNL     1       0.710  10.156  18.794  0.00  0.00    +0.000 N 
ATOM      9  C   UNL     1      -0.718  10.149  18.685  0.00  0.00    +0.000 C 
ATOM     10  C   UNL     1      -1.077  11.606  18.883  0.00  0.00    +0.000 C 
ATOM     11  O   UNL     1       0.122  12.315  18.528  0.00  0.00    +0.000 OA
ATOM     12  C   UNL     1       1.181  11.448  18.630  0.00  0.00    +0.000 C 
ATOM     13  O   UNL     1       2.334  11.831  18.526  0.00  0.00    +0.000 OA
BRANCH  10  14
ATOM     14  C   UNL     1      -2.224  12.054  17.979  0.00  0.00    +0.000 C 
BRANCH  14  15
ATOM     15  N   UNL     1      -2.168  11.425  16.670  0.00  0.00    +0.000 N 
ATOM     16  C   UNL     1      -3.300  10.963  16.043  0.00  0.00    +0.000 C 
ATOM     17  C   UNL     1      -3.056  10.363  14.682  0.00  0.00    +0.000 C 
ATOM     18  O   UNL     1      -4.417  11.024  16.544  0.00  0.00    +0.000 OA
ATOM     19  H   UNL     1      -1.331  11.572  16.118  0.00  0.00    +0.000 HD
ENDBRANCH  14  15
ENDBRANCH  10  14
ENDBRANCH   4   8
BRANCH   1  22
ATOM     20  C   UNL     1       4.317   3.127  19.428  0.00  0.00    +0.000 C 
ATOM     21  C   UNL     1       3.133   4.052  19.534  0.00  0.00    +0.000 C 
ATOM     22  C   UNL     1       3.797   5.350  19.253  0.00  0.00    +0.000 C 
ATOM     23  N   UNL     1       5.084   5.296  19.149  0.00  0.00    +0.000 NA
ATOM     24  O   UNL     1       5.478   3.956  19.354  0.00  0.00    +0.000 OA
BRANCH  20  27
ATOM     25  C   UNL     1       5.619   0.382  21.730  0.00  0.00    +0.000 C 
ATOM     26  N   UNL     1       5.411   1.295  20.638  0.00  0.00    +0.000 N 
ATOM     27  C   UNL     1       4.360   2.182  20.630  0.00  0.00    +0.000 C 
ATOM     28  O   UNL     1       3.518   2.230  21.526  0.00  0.00    +0.000 OA
ATOM     29  H   UNL     1       6.100   1.368  19.894  0.00  0.00    +0.000 HD
ENDBRANCH  20  27
ENDBRANCH   1  22
TORSDOF 5
ENDMDL
MODEL 5
REMARK VINA RESULT:      -8.1      2.215      9.528
REMARK  Name = 
REMARK  7 active torsions:
REMARK  status: ('A' for Active; 'I' for Inactive)
REMARK    1  A    between atoms: C_1  and  N_2
REMARK    2  A    between atoms: C_3  and  C_5
REMARK    3  A    between atoms: C_7  and  C_8
REMARK    4  A    between atoms: C_11  and  N_12
REMARK    5  A    between atoms: C_14  and  C_15
REMARK    6  A    between atoms: C_15  and  N_16
REMARK    7  A    between atoms: C_17  and  C_18
REMARK                            x       y       z     vdW  Elec       q    Type
REMARK                         _______ _______ _______ _____ _____    ______ ____
ROOT
ATOM      1  C   UNL     1       2.829   7.042  18.455  0.00  0.00    +0.000 A 
ATOM      2  C   UNL     1       2.656   8.068  17.522  0.00  0.00    +0.000 A 
ATOM      3  C   UNL     1       1.869   9.186  17.836  0.00  0.00    +0.000 A 
ATOM      4  C   UNL     1       1.261   9.315  19.093  0.00  0.00    +0.000 A 
ATOM      5  C   UNL     1       1.447   8.286  20.021  0.00  0.00    +0.000 A 
ATOM      6  C   UNL     1       2.208   7.162  19.696  0.00  0.00    +0.000 A 
ATOM      7  F   UNL     1       2.320   6.205  20.628  0.00  0.00    +0.000 F 
ENDROOT
BRANCH   4   8
ATOM      8  N   UNL     1       0.501  10.459  19.432  0.00  0.00    +0.000 N 
ATOM      9  C   UNL     1      -0.912  10.435  19.663  0.00  0.00    +0.000 C 
ATOM     10  C   UNL     1      -1.176  11.795  20.273  0.00  0.00    +0.000 C 
ATOM     11  O   UNL     1      -0.075  12.602  19.823  0.00  0.00    +0.000 OA
ATOM     12  C   UNL     1       0.954  11.768  19.468  0.00  0.00    +0.000 C 
ATOM     13  O   UNL     1       2.061  12.197  19.189  0.00  0.00    +0.000 OA
BRANCH  10  14
ATOM     14  C   UNL     1      -2.490  12.407  19.794  0.00  0.00    +0.000 C 
BRANCH  14  15
ATOM     15  N   UNL     1      -2.833  11.984  18.448  0.00  0.00    +0.000 N 
ATOM     16  C   UNL     1      -4.119  11.641  18.104  0.00  0.00    +0.000 C 
ATOM     17  C   UNL     1      -4.293  11.252  16.658  0.00  0.00    +0.000 C 
ATOM     18  O   UNL     1      -5.049  11.642  18.902  0.00  0.00    +0.000 OA
ATOM     19  H   UNL     1      -2.174  12.201  17.709  0.00  0.00    +0.000 HD
ENDBRANCH  14  15
ENDBRANCH  10  14
ENDBRANCH   4   8
BRANCH   1  22
ATOM     20  C   UNL     1       5.512   4.567  17.700  0.00  0.00    +0.000 C 
ATOM     21  C   UNL     1       5.140   6.017  17.876  0.00  0.00    +0.000 C 
ATOM     22  C   UNL     1       3.680   5.878  18.111  0.00  0.00    +0.000 C 
ATOM     23  N   UNL     1       3.213   4.681  17.969  0.00  0.00    +0.000 NA
ATOM     24  O   UNL     1       4.286   3.839  17.607  0.00  0.00    +0.000 OA
BRANCH  20  27
ATOM     25  C   UNL     1       6.361   4.026  14.023  0.00  0.00    +0.000 C 
ATOM     26  N   UNL     1       5.688   4.155  15.288  0.00  0.00    +0.000 N 
ATOM     27  C   UNL     1       6.380   4.393  16.452  0.00  0.00    +0.000 C 
ATOM     28  O   UNL     1       7.607   4.476  16.497  0.00  0.00    +0.000 OA
ATOM     29  H   UNL     1       4.672   4.170  15.327  0.00  0.00    +0.000 HD
ENDBRANCH  20  27
ENDBRANCH   1  22
TORSDOF 5
ENDMDL
MODEL 6
REMARK VINA RESULT:      -8.1      1.202     10.129
REMARK  Name = 
REMARK  7 active torsions:
REMARK  status: ('A' for Active; 'I' for Inactive)
REMARK    1  A    between atoms: C_1  and  N_2
REMARK    2  A    between atoms: C_3  and  C_5
REMARK    3  A    between atoms: C_7  and  C_8
REMARK    4  A    between atoms: C_11  and  N_12
REMARK    5  A    between atoms: C_14  and  C_15
REMARK    6  A    between atoms: C_15  and  N_16
REMARK    7  A    between atoms: C_17  and  C_18
REMARK                            x       y       z     vdW  Elec       q    Type
REMARK                         _______ _______ _______ _____ _____    ______ ____
ROOT
ATOM      1  C   UNL     1       3.071   6.742  18.370  0.00  0.00    +0.000 A 
ATOM      2  C   UNL     1       2.761   7.917  17.679  0.00  0.00    +0.000 A 
ATOM      3  C   UNL     1       1.932   8.885  18.265  0.00  0.00    +0.000 A 
ATOM      4  C   UNL     1       1.417   8.714  19.558  0.00  0.00    +0.000 A 
ATOM      5  C   UNL     1       1.740   7.538  20.242  0.00  0.00    +0.000 A 
ATOM      6  C   UNL     1       2.542   6.564  19.646  0.00  0.00    +0.000 A 
ATOM      7  F   UNL     1       2.787   5.452  20.353  0.00  0.00    +0.000 F 
ENDROOT
BRANCH   4   8
ATOM      8  N   UNL     1       0.615   9.705  20.171  0.00  0.00    +0.000 N 
ATOM      9  C   UNL     1       0.624   9.977  21.577  0.00  0.00    +0.000 C 
ATOM     10  C   UNL     1      -0.142  11.280  21.671  0.00  0.00    +0.000 C 
ATOM     11  O   UNL     1      -0.942  11.305  20.477  0.00  0.00    +0.000 OA
ATOM     12  C   UNL     1      -0.371  10.461  19.558  0.00  0.00    +0.000 C 
ATOM     13  O   UNL     1      -0.765  10.406  18.406  0.00  0.00    +0.000 OA
BRANCH  10  14
ATOM     14  C   UNL     1      -1.051  11.338  22.898  0.00  0.00    +0.000 C 
BRANCH  14  15
ATOM     15  N   UNL     1      -1.670  12.642  23.059  0.00  0.00    +0.000 N 
ATOM     16  C   UNL     1      -2.926  12.783  23.599  0.00  0.00    +0.000 C 
ATOM     17  C   UNL     1      -3.397  14.209  23.713  0.00  0.00    +0.000 C 
ATOM     18  O   UNL     1      -3.614  11.832  23.953  0.00  0.00    +0.000 OA
ATOM     19  H   UNL     1      -1.064  13.453  23.018  0.00  0.00    +0.000 HD
ENDBRANCH  14  15
ENDBRANCH  10  14
ENDBRANCH   4   8
BRANCH   1  22
ATOM     20  C   UNL     1       5.828   4.707  16.905  0.00  0.00    +0.000 C 
ATOM     21  C   UNL     1       5.361   6.066  17.359  0.00  0.00    +0.000 C 
ATOM     22  C   UNL     1       3.964   5.740  17.741  0.00  0.00    +0.000 C 
ATOM     23  N   UNL     1       3.586   4.535  17.462  0.00  0.00    +0.000 NA
ATOM     24  O   UNL     1       4.668   3.876  16.842  0.00  0.00    +0.000 OA
BRANCH  20  27
ATOM     25  C   UNL     1       6.592   3.977  13.242  0.00  0.00    +0.000 C 
ATOM     26  N   UNL     1       6.070   3.955  14.582  0.00  0.00    +0.000 N 
ATOM     27  C   UNL     1       6.532   4.815  15.551  0.00  0.00    +0.000 C 
ATOM     28  O   UNL     1       7.435   5.626  15.350  0.00  0.00    +0.000 OA
ATOM     29  H   UNL     1       5.274   3.365  14.811  0.00  0.00    +0.000 HD
ENDBRANCH  20  27
ENDBRANCH   1  22
TORSDOF 5
ENDMDL
MODEL 7
REMARK VINA RESULT:      -8.1      1.592      1.850
REMARK  Name = 
REMARK  7 active torsions:
REMARK  status: ('A' for Active; 'I' for Inactive)
REMARK    1  A    between atoms: C_1  and  N_2
REMARK    2  A    between atoms: C_3  and  C_5
REMARK    3  A    between atoms: C_7  and  C_8
REMARK    4  A    between atoms: C_11  and  N_12
REMARK    5  A    between atoms: C_14  and  C_15
REMARK    6  A    between atoms: C_15  and  N_16
REMARK    7  A    between atoms: C_17  and  C_18
REMARK                            x       y       z     vdW  Elec       q    Type
REMARK                         _______ _______ _______ _____ _____    ______ ____
ROOT
ATOM      1  C   UNL     1       1.180   9.379  19.121  0.00  0.00    +0.000 A 
ATOM      2  C   UNL     1       1.736   9.215  17.849  0.00  0.00    +0.000 A 
ATOM      3  C   UNL     1       2.557   8.113  17.572  0.00  0.00    +0.000 A 
ATOM      4  C   UNL     1       2.820   7.139  18.546  0.00  0.00    +0.000 A 
ATOM      5  C   UNL     1       2.252   7.310  19.813  0.00  0.00    +0.000 A 
ATOM      6  C   UNL     1       1.458   8.422  20.094  0.00  0.00    +0.000 A 
ATOM      7  F   UNL     1       0.969   8.530  21.338  0.00  0.00    +0.000 F 
ENDROOT
BRANCH   4   8
ATOM      8  N   UNL     1       3.613   6.003  18.261  0.00  0.00    +0.000 N 
ATOM      9  C   UNL     1       5.044   6.013  18.258  0.00  0.00    +0.000 C 
ATOM     10  C   UNL     1       5.390   4.540  18.206  0.00  0.00    +0.000 C 
ATOM     11  O   UNL     1       4.221   3.924  17.641  0.00  0.00    +0.000 OA
ATOM     12  C   UNL     1       3.157   4.769  17.826  0.00  0.00    +0.000 C 
ATOM     13  O   UNL     1       2.015   4.427  17.571  0.00  0.00    +0.000 OA
BRANCH  10  14
ATOM     14  C   UNL     1       6.600   4.254  17.319  0.00  0.00    +0.000 C 
BRANCH  14  15
ATOM     15  N   UNL     1       6.213   3.815  15.989  0.00  0.00    +0.000 N 
ATOM     16  C   UNL     1       6.693   4.430  14.858  0.00  0.00    +0.000 C 
ATOM     17  C   UNL     1       6.204   3.825  13.567  0.00  0.00    +0.000 C 
ATOM     18  O   UNL     1       7.450   5.394  14.888  0.00  0.00    +0.000 OA
ATOM     19  H   UNL     1       5.802   2.892  15.905  0.00  0.00    +0.000 HD
ENDBRANCH  14  15
ENDBRANCH  10  14
ENDBRANCH   4   8
BRANCH   1  22
ATOM     20  C   UNL     1      -1.458  11.819  20.110  0.00  0.00    +0.000 C 
ATOM     21  C   UNL     1      -1.082  10.374  19.908  0.00  0.00    +0.000 C 
ATOM     22  C   UNL     1       0.299  10.541  19.388  0.00  0.00    +0.000 C 
ATOM     23  N   UNL     1       0.658  11.763  19.168  0.00  0.00    +0.000 NA
ATOM     24  O   UNL     1      -0.430  12.599  19.496  0.00  0.00    +0.000 OA
BRANCH  20  27
ATOM     25  C   UNL     1      -5.058  13.055  19.910  0.00  0.00    +0.000 C 
ATOM     26  N   UNL     1      -3.743  12.679  20.353  0.00  0.00    +0.000 N 
ATOM     27  C   UNL     1      -2.833  12.097  19.500  0.00  0.00    +0.000 C 
ATOM     28  O   UNL     1      -3.092  11.829  18.328  0.00  0.00    +0.000 OA
ATOM     29  H   UNL     1      -3.426  12.931  21.285  0.00  0.00    +0.000 HD
ENDBRANCH  20  27
ENDBRANCH   1  22
TORSDOF 5
ENDMDL
MODEL 8
REMARK VINA RESULT:      -8.0      2.423      9.410
REMARK  Name = 
REMARK  7 active torsions:
REMARK  status: ('A' for Active; 'I' for Inactive)
REMARK    1  A    between atoms: C_1  and  N_2
REMARK    2  A    between atoms: C_3  and  C_5
REMARK    3  A    between atoms: C_7  and  C_8
REMARK    4  A    between atoms: C_11  and  N_12
REMARK    5  A    between atoms: C_14  and  C_15
REMARK    6  A    between atoms: C_15  and  N_16
REMARK    7  A    between atoms: C_17  and  C_18
REMARK                            x       y       z     vdW  Elec       q    Type
REMARK                         _______ _______ _______ _____ _____    ______ ____
ROOT
ATOM      1  C   UNL     1       3.012   6.936  18.774  0.00  0.00    +0.000 A 
ATOM      2  C   UNL     1       2.368   6.978  20.014  0.00  0.00    +0.000 A 
ATOM      3  C   UNL     1       1.492   8.029  20.321  0.00  0.00    +0.000 A 
ATOM      4  C   UNL     1       1.221   9.044  19.391  0.00  0.00    +0.000 A 
ATOM      5  C   UNL     1       1.866   8.987  18.152  0.00  0.00    +0.000 A 
ATOM      6  C   UNL     1       2.758   7.956  17.859  0.00  0.00    +0.000 A 
ATOM      7  F   UNL     1       3.358   7.982  16.660  0.00  0.00    +0.000 F 
ENDROOT
BRANCH   4   8
ATOM      8  N   UNL     1       0.307  10.084  19.679  0.00  0.00    +0.000 N 
ATOM      9  C   UNL     1      -0.956  10.238  19.021  0.00  0.00    +0.000 C 
ATOM     10  C   UNL     1      -1.656  11.273  19.876  0.00  0.00    +0.000 C 
ATOM     11  O   UNL     1      -0.584  11.969  20.534  0.00  0.00    +0.000 OA
ATOM     12  C   UNL     1       0.525  11.163  20.520  0.00  0.00    +0.000 C 
ATOM     13  O   UNL     1       1.535  11.451  21.141  0.00  0.00    +0.000 OA
BRANCH  10  14
ATOM     14  C   UNL     1      -2.476  12.260  19.047  0.00  0.00    +0.000 C 
BRANCH  14  15
ATOM     15  N   UNL     1      -2.481  11.918  17.635  0.00  0.00    +0.000 N 
ATOM     16  C   UNL     1      -3.565  11.315  17.042  0.00  0.00    +0.000 C 
ATOM     17  C   UNL     1      -3.402  11.057  15.566  0.00  0.00    +0.000 C 
ATOM     18  O   UNL     1      -4.579  11.004  17.657  0.00  0.00    +0.000 OA
ATOM     19  H   UNL     1      -1.791  12.367  17.045  0.00  0.00    +0.000 HD
ENDBRANCH  14  15
ENDBRANCH  10  14
ENDBRANCH   4   8
BRANCH   1  22
ATOM     20  C   UNL     1       5.809   4.589  18.025  0.00  0.00    +0.000 C 
ATOM     21  C   UNL     1       5.348   6.021  18.116  0.00  0.00    +0.000 C 
ATOM     22  C   UNL     1       3.920   5.806  18.461  0.00  0.00    +0.000 C 
ATOM     23  N   UNL     1       3.531   4.574  18.443  0.00  0.00    +0.000 NA
ATOM     24  O   UNL     1       4.635   3.777  18.074  0.00  0.00    +0.000 OA
BRANCH  20  27
ATOM     25  C   UNL     1       6.450   3.985  14.316  0.00  0.00    +0.000 C 
ATOM     26  N   UNL     1       5.848   4.149  15.612  0.00  0.00    +0.000 N 
ATOM     27  C   UNL     1       6.607   4.372  16.737  0.00  0.00    +0.000 C 
ATOM     28  O   UNL     1       7.836   4.410  16.719  0.00  0.00    +0.000 OA
ATOM     29  H   UNL     1       4.837   4.203  15.702  0.00  0.00    +0.000 HD
ENDBRANCH  20  27
ENDBRANCH   1  22
TORSDOF 5
ENDMDL
MODEL 9
REMARK VINA RESULT:      -8.0      1.770      1.870
REMARK  Name = 
REMARK  7 active torsions:
REMARK  status: ('A' for Active; 'I' for Inactive)
REMARK    1  A    between atoms: C_1  and  N_2
REMARK    2  A    between atoms: C_3  and  C_5
REMARK    3  A    between atoms: C_7  and  C_8
REMARK    4  A    between atoms: C_11  and  N_12
REMARK    5  A    between atoms: C_14  and  C_15
REMARK    6  A    between atoms: C_15  and  N_16
REMARK    7  A    between atoms: C_17  and  C_18
REMARK                            x       y       z     vdW  Elec       q    Type
REMARK                         _______ _______ _______ _____ _____    ______ ____
ROOT
ATOM      1  C   UNL     1       1.099   9.359  18.926  0.00  0.00    +0.000 A 
ATOM      2  C   UNL     1       1.760   9.155  17.712  0.00  0.00    +0.000 A 
ATOM      3  C   UNL     1       2.647   8.079  17.561  0.00  0.00    +0.000 A 
ATOM      4  C   UNL     1       2.873   7.171  18.606  0.00  0.00    +0.000 A 
ATOM      5  C   UNL     1       2.200   7.382  19.813  0.00  0.00    +0.000 A 
ATOM      6  C   UNL     1       1.340   8.469  19.970  0.00  0.00    +0.000 A 
ATOM      7  F   UNL     1       0.750   8.620  21.165  0.00  0.00    +0.000 F 
ENDROOT
BRANCH   4   8
ATOM      8  N   UNL     1       3.733   6.060  18.447  0.00  0.00    +0.000 N 
ATOM      9  C   UNL     1       5.156   6.167  18.327  0.00  0.00    +0.000 C 
ATOM     10  C   UNL     1       5.615   4.733  18.488  0.00  0.00    +0.000 C 
ATOM     11  O   UNL     1       4.463   3.952  18.127  0.00  0.00    +0.000 OA
ATOM     12  C   UNL     1       3.350   4.742  18.257  0.00  0.00    +0.000 C 
ATOM     13  O   UNL     1       2.224   4.285  18.154  0.00  0.00    +0.000 OA
BRANCH  10  14
ATOM     14  C   UNL     1       6.781   4.384  17.565  0.00  0.00    +0.000 C 
BRANCH  14  15
ATOM     15  N   UNL     1       6.330   3.931  16.260  0.00  0.00    +0.000 N 
ATOM     16  C   UNL     1       6.758   4.530  15.100  0.00  0.00    +0.000 C 
ATOM     17  C   UNL     1       6.207   3.912  13.841  0.00  0.00    +0.000 C 
ATOM     18  O   UNL     1       7.519   5.491  15.083  0.00  0.00    +0.000 OA
ATOM     19  H   UNL     1       5.912   3.009  16.206  0.00  0.00    +0.000 HD
ENDBRANCH  14  15
ENDBRANCH  10  14
ENDBRANCH   4   8
BRANCH   1  22
ATOM     20  C   UNL     1      -0.731  12.603  19.049  0.00  0.00    +0.000 C 
ATOM     21  C   UNL     1       0.602  11.903  18.984  0.00  0.00    +0.000 C 
ATOM     22  C   UNL     1       0.151  10.491  19.060  0.00  0.00    +0.000 C 
ATOM     23  N   UNL     1      -1.114  10.330  19.272  0.00  0.00    +0.000 NA
ATOM     24  O   UNL     1      -1.700  11.608  19.382  0.00  0.00    +0.000 OA
BRANCH  20  27
ATOM     25  C   UNL     1      -1.346  16.050  20.557  0.00  0.00    +0.000 C 
ATOM     26  N   UNL     1      -1.259  14.915  19.678  0.00  0.00    +0.000 N 
ATOM     27  C   UNL     1      -0.685  13.732  20.081  0.00  0.00    +0.000 C 
ATOM     28  O   UNL     1      -0.182  13.577  21.193  0.00  0.00    +0.000 OA
ATOM     29  H   UNL     1      -1.714  14.937  18.769  0.00  0.00    +0.000 HD
ENDBRANCH  20  27
ENDBRANCH   1  22
TORSDOF 5
ENDMDL
