MODEL 1
REMARK VINA RESULT:      -8.4      0.000      0.000
REMARK  Name = 
REMARK  11 active torsions:
REMARK  status: ('A' for Active; 'I' for Inactive)
REMARK    1  A    between atoms: C_1  and  C_2
REMARK    2  A    between atoms: C_2  and  O_3
REMARK    3  A    between atoms: O_3  and  C_4
REMARK    4  A    between atoms: C_7  and  N_8
REMARK    5  A    between atoms: C_10  and  C_11
REMARK    6  A    between atoms: N_13  and  C_14
REMARK    7  A    between atoms: C_19  and  C_20
REMARK    8  A    between atoms: N_22  and  C_23
REMARK    9  A    between atoms: C_23  and  C_24
REMARK   10  A    between atoms: C_27  and  O_28
REMARK   11  A    between atoms: O_28  and  C_29
REMARK                            x       y       z     vdW  Elec       q    Type
REMARK                         _______ _______ _______ _____ _____    ______ ____
ROOT
ATOM      1  C   UNL     1       2.212   6.158  20.114  0.00  0.00    +0.000 C 
ATOM      2  O   UNL     1       2.288   5.550  21.174  0.00  0.00    +0.000 OA
ATOM      3  N   UNL     1       2.140   5.567  18.852  0.00  0.00    +0.000 N 
ATOM      4  H   UNL     1       2.495   6.163  18.112  0.00  0.00    +0.000 HD
ENDROOT
BRANCH   1   7
ATOM      5  N   UNL     1       0.726   9.492  19.512  0.00  0.00    +0.000 N 
ATOM      6  C   UNL     1       0.930   8.425  20.478  0.00  0.00    +0.000 C 
ATOM      7  C   UNL     1       2.187   7.684  20.004  0.00  0.00    +0.000 C 
ATOM      8  C   UNL     1       2.304   8.036  18.530  0.00  0.00    +0.000 C 
ATOM      9  C   UNL     1       1.527   9.301  18.378  0.00  0.00    +0.000 C 
ATOM     10  O   UNL     1       1.657  10.009  17.389  0.00  0.00    +0.000 OA
BRANCH   5  14
ATOM     11  C   UNL     1      -2.073  12.678  20.133  0.00  0.00    +0.000 A 
ATOM     12  C   UNL     1      -0.931  12.546  20.909  0.00  0.00    +0.000 A 
ATOM     13  C   UNL     1      -0.009  11.525  20.666  0.00  0.00    +0.000 A 
ATOM     14  C   UNL     1      -0.198  10.571  19.652  0.00  0.00    +0.000 A 
ATOM     15  C   UNL     1      -1.332  10.746  18.835  0.00  0.00    +0.000 A 
ATOM     16  C   UNL     1      -2.269  11.785  19.080  0.00  0.00    +0.000 A 
BRANCH  11  17
ATOM     17  O   UNL     1      -2.912  13.663  20.562  0.00  0.00    +0.000 OA
BRANCH  17  19
ATOM     18  C   UNL     1      -4.696  12.806  21.866  0.00  0.00    +0.000 C 
ATOM     19  C   UNL     1      -4.315  13.433  20.529  0.00  0.00    +0.000 C 
ENDBRANCH  17  19
ENDBRANCH  11  17
ENDBRANCH   5  14
ENDBRANCH   1   7
BRANCH   3  20
ATOM     20  C   UNL     1       2.291   4.182  18.586  0.00  0.00    +0.000 A 
ATOM     21  C   UNL     1       1.532   3.351  19.439  0.00  0.00    +0.000 A 
ATOM     22  C   UNL     1       1.636   1.959  19.413  0.00  0.00    +0.000 A 
ATOM     23  C   UNL     1       2.519   1.362  18.534  0.00  0.00    +0.000 A 
ATOM     24  C   UNL     1       3.299   2.162  17.697  0.00  0.00    +0.000 A 
ATOM     25  C   UNL     1       3.210   3.577  17.708  0.00  0.00    +0.000 A 
BRANCH  25  26
ATOM     26  C   UNL     1       4.319   4.237  16.954  0.00  0.00    +0.000 C 
ATOM     27  O   UNL     1       4.181   5.414  16.616  0.00  0.00    +0.000 OA
ATOM     28  N   UNL     1       5.483   3.553  16.705  0.00  0.00    +0.000 N 
ATOM     29  H   UNL     1       5.649   2.672  17.187  0.00  0.00    +0.000 HD
BRANCH  28  30
ATOM     30  C   UNL     1       6.607   4.269  16.128  0.00  0.00    +0.000 C 
BRANCH  30  31
ATOM     31  C   UNL     1       7.082   5.396  17.004  0.00  0.00    +0.000 A 
ATOM     32  C   UNL     1       7.086   6.706  16.514  0.00  0.00    +0.000 A 
ATOM     33  C   UNL     1       7.642   7.739  17.269  0.00  0.00    +0.000 A 
ATOM     34  C   UNL     1       8.185   7.498  18.526  0.00  0.00    +0.000 A 
ATOM     35  C   UNL     1       8.110   6.206  19.062  0.00  0.00    +0.000 A 
ATOM     36  C   UNL     1       7.556   5.163  18.304  0.00  0.00    +0.000 A 
BRANCH  34  37
ATOM     37  O   UNL     1       8.775   8.583  19.098  0.00  0.00    +0.000 OA
ATOM     38  C   UNL     1       8.771   9.806  18.380  0.00  0.00    +0.000 C 
ENDBRANCH  34  37
ENDBRANCH  30  31
ENDBRANCH  28  30
ENDBRANCH  25  26
ENDBRANCH   3  20
TORSDOF 9
ENDMDL
MODEL 2
REMARK VINA RESULT:      -8.4      1.556      2.156
REMARK  Name = 
REMARK  11 active torsions:
REMARK  status: ('A' for Active; 'I' for Inactive)
REMARK    1  A    between atoms: C_1  and  C_2
REMARK    2  A    between atoms: C_2  and  O_3
REMARK    3  A    between atoms: O_3  and  C_4
REMARK    4  A    between atoms: C_7  and  N_8
REMARK    5  A    between atoms: C_10  and  C_11
REMARK    6  A    between atoms: N_13  and  C_14
REMARK    7  A    between atoms: C_19  and  C_20
REMARK    8  A    between atoms: N_22  and  C_23
REMARK    9  A    between atoms: C_23  and  C_24
REMARK   10  A    between atoms: C_27  and  O_28
REMARK   11  A    between atoms: O_28  and  C_29
REMARK                            x       y       z     vdW  Elec       q    Type
REMARK                         _______ _______ _______ _____ _____    ______ ____
ROOT
ATOM      1  C   UNL     1       2.915   6.669  18.194  0.00  0.00    +0.000 C 
ATOM      2  O   UNL     1       3.560   6.462  17.173  0.00  0.00    +0.000 OA
ATOM      3  N   UNL     1       2.381   5.680  19.021  0.00  0.00    +0.000 N 
ATOM      4  H   UNL     1       1.569   5.991  19.542  0.00  0.00    +0.000 HD
ENDROOT
BRANCH   1   7
ATOM      5  N   UNL     1       0.869   9.271  19.846  0.00  0.00    +0.000 N 
ATOM      6  C   UNL     1       1.797   8.168  20.042  0.00  0.00    +0.000 C 
ATOM      7  C   UNL     1       2.584   8.064  18.729  0.00  0.00    +0.000 C 
ATOM      8  C   UNL     1       1.701   8.749  17.699  0.00  0.00    +0.000 C 
ATOM      9  C   UNL     1       0.809   9.641  18.497  0.00  0.00    +0.000 C 
ATOM     10  O   UNL     1       0.181  10.547  17.965  0.00  0.00    +0.000 OA
BRANCH   5  14
ATOM     11  C   UNL     1      -1.410  11.268  22.877  0.00  0.00    +0.000 A 
ATOM     12  C   UNL     1      -1.345  11.747  21.577  0.00  0.00    +0.000 A 
ATOM     13  C   UNL     1      -0.630  11.061  20.592  0.00  0.00    +0.000 A 
ATOM     14  C   UNL     1       0.076   9.877  20.866  0.00  0.00    +0.000 A 
ATOM     15  C   UNL     1      -0.042   9.371  22.175  0.00  0.00    +0.000 A 
ATOM     16  C   UNL     1      -0.770  10.067  23.176  0.00  0.00    +0.000 A 
BRANCH  11  17
ATOM     17  O   UNL     1      -2.065  12.105  23.731  0.00  0.00    +0.000 OA
BRANCH  17  19
ATOM     18  C   UNL     1      -4.266  12.510  24.510  0.00  0.00    +0.000 C 
ATOM     19  C   UNL     1      -3.311  12.660  23.330  0.00  0.00    +0.000 C 
ENDBRANCH  17  19
ENDBRANCH  11  17
ENDBRANCH   5  14
ENDBRANCH   1   7
BRANCH   3  20
ATOM     20  C   UNL     1       2.373   4.290  18.737  0.00  0.00    +0.000 A 
ATOM     21  C   UNL     1       1.100   3.690  18.860  0.00  0.00    +0.000 A 
ATOM     22  C   UNL     1       0.907   2.313  18.737  0.00  0.00    +0.000 A 
ATOM     23  C   UNL     1       1.997   1.495  18.500  0.00  0.00    +0.000 A 
ATOM     24  C   UNL     1       3.269   2.060  18.399  0.00  0.00    +0.000 A 
ATOM     25  C   UNL     1       3.486   3.457  18.522  0.00  0.00    +0.000 A 
BRANCH  25  26
ATOM     26  C   UNL     1       4.931   3.811  18.666  0.00  0.00    +0.000 C 
ATOM     27  O   UNL     1       5.465   3.662  19.766  0.00  0.00    +0.000 OA
ATOM     28  N   UNL     1       5.647   4.233  17.574  0.00  0.00    +0.000 N 
ATOM     29  H   UNL     1       5.239   4.131  16.647  0.00  0.00    +0.000 HD
BRANCH  28  30
ATOM     30  C   UNL     1       7.084   4.402  17.700  0.00  0.00    +0.000 C 
BRANCH  30  31
ATOM     31  C   UNL     1       7.486   5.848  17.806  0.00  0.00    +0.000 A 
ATOM     32  C   UNL     1       8.253   6.281  18.893  0.00  0.00    +0.000 A 
ATOM     33  C   UNL     1       8.523   7.638  19.069  0.00  0.00    +0.000 A 
ATOM     34  C   UNL     1       8.056   8.587  18.165  0.00  0.00    +0.000 A 
ATOM     35  C   UNL     1       7.359   8.157  17.028  0.00  0.00    +0.000 A 
ATOM     36  C   UNL     1       7.082   6.792  16.850  0.00  0.00    +0.000 A 
BRANCH  34  37
ATOM     37  O   UNL     1       8.316   9.875  18.521  0.00  0.00    +0.000 OA
ATOM     38  C   UNL     1       9.595  10.409  18.221  0.00  0.00    +0.000 C 
ENDBRANCH  34  37
ENDBRANCH  30  31
ENDBRANCH  28  30
ENDBRANCH  25  26
ENDBRANCH   3  20
TORSDOF 9
ENDMDL
MODEL 3
REMARK VINA RESULT:      -8.3      2.377      3.652
REMARK  Name = 
REMARK  11 active torsions:
REMARK  status: ('A' for Active; 'I' for Inactive)
REMARK    1  A    between atoms: C_1  and  C_2
REMARK    2  A    between atoms: C_2  and  O_3
REMARK    3  A    between atoms: O_3  and  C_4
REMARK    4  A    between atoms: C_7  and  N_8
REMARK    5  A    between atoms: C_10  and  C_11
REMARK    6  A    between atoms: N_13  and  C_14
REMARK    7  A    between atoms: C_19  and  C_20
REMARK    8  A    between atoms: N_22  and  C_23
REMARK    9  A    between atoms: C_23  and  C_24
REMARK   10  A    between atoms: C_27  and  O_28
REMARK   11  A    between atoms: O_28  and  C_29
REMARK                            x       y       z     vdW  Elec       q    Type
REMARK                         _______ _______ _______ _____ _____    ______ ____
ROOT
ATOM      1  C   UNL     1       2.207   7.228  18.821  0.00  0.00    +0.000 C 
ATOM      2  O   UNL     1       2.092   6.704  17.720  0.00  0.00    +0.000 OA
ATOM      3  N   UNL     1       2.487   6.550  20.008  0.00  0.00    +0.000 N 
ATOM      4  H   UNL     1       2.144   7.030  20.833  0.00  0.00    +0.000 HD
ENDROOT
BRANCH   1   7
ATOM      5  N   UNL     1       0.637  10.303  20.152  0.00  0.00    +0.000 N 
ATOM      6  C   UNL     1       1.521   9.184  20.439  0.00  0.00    +0.000 C 
ATOM      7  C   UNL     1       2.055   8.730  19.074  0.00  0.00    +0.000 C 
ATOM      8  C   UNL     1       1.043   9.261  18.073  0.00  0.00    +0.000 C 
ATOM      9  C   UNL     1       0.359  10.382  18.781  0.00  0.00    +0.000 C 
ATOM     10  O   UNL     1      -0.302  11.209  18.167  0.00  0.00    +0.000 OA
BRANCH   5  14
ATOM     11  C   UNL     1      -1.247  12.889  23.003  0.00  0.00    +0.000 A 
ATOM     12  C   UNL     1      -1.532  11.533  22.945  0.00  0.00    +0.000 A 
ATOM     13  C   UNL     1      -0.879  10.697  22.036  0.00  0.00    +0.000 A 
ATOM     14  C   UNL     1       0.073  11.183  21.123  0.00  0.00    +0.000 A 
ATOM     15  C   UNL     1       0.395  12.550  21.228  0.00  0.00    +0.000 A 
ATOM     16  C   UNL     1      -0.267  13.399  22.152  0.00  0.00    +0.000 A 
BRANCH  11  17
ATOM     17  O   UNL     1      -2.039  13.575  23.875  0.00  0.00    +0.000 OA
BRANCH  17  19
ATOM     18  C   UNL     1      -4.167  14.577  24.163  0.00  0.00    +0.000 C 
ATOM     19  C   UNL     1      -3.426  13.265  23.932  0.00  0.00    +0.000 C 
ENDBRANCH  17  19
ENDBRANCH  11  17
ENDBRANCH   5  14
ENDBRANCH   1   7
BRANCH   3  20
ATOM     20  C   UNL     1       2.537   5.139  20.154  0.00  0.00    +0.000 A 
ATOM     21  C   UNL     1       1.518   4.615  20.981  0.00  0.00    +0.000 A 
ATOM     22  C   UNL     1       1.469   3.268  21.342  0.00  0.00    +0.000 A 
ATOM     23  C   UNL     1       2.454   2.409  20.892  0.00  0.00    +0.000 A 
ATOM     24  C   UNL     1       3.485   2.907  20.094  0.00  0.00    +0.000 A 
ATOM     25  C   UNL     1       3.555   4.273  19.717  0.00  0.00    +0.000 A 
BRANCH  25  26
ATOM     26  C   UNL     1       4.871   4.644  19.113  0.00  0.00    +0.000 C 
ATOM     27  O   UNL     1       5.875   4.023  19.463  0.00  0.00    +0.000 OA
ATOM     28  N   UNL     1       4.933   5.616  18.144  0.00  0.00    +0.000 N 
ATOM     29  H   UNL     1       4.067   5.947  17.723  0.00  0.00    +0.000 HD
BRANCH  28  30
ATOM     30  C   UNL     1       6.189   5.835  17.450  0.00  0.00    +0.000 C 
BRANCH  30  31
ATOM     31  C   UNL     1       6.192   5.244  16.067  0.00  0.00    +0.000 A 
ATOM     32  C   UNL     1       5.204   4.325  15.698  0.00  0.00    +0.000 A 
ATOM     33  C   UNL     1       5.270   3.676  14.465  0.00  0.00    +0.000 A 
ATOM     34  C   UNL     1       6.302   3.938  13.570  0.00  0.00    +0.000 A 
ATOM     35  C   UNL     1       7.249   4.917  13.892  0.00  0.00    +0.000 A 
ATOM     36  C   UNL     1       7.189   5.570  15.134  0.00  0.00    +0.000 A 
BRANCH  34  37
ATOM     37  O   UNL     1       6.284   3.159  12.453  0.00  0.00    +0.000 OA
ATOM     38  C   UNL     1       5.088   3.098  11.696  0.00  0.00    +0.000 C 
ENDBRANCH  34  37
ENDBRANCH  30  31
ENDBRANCH  28  30
ENDBRANCH  25  26
ENDBRANCH   3  20
TORSDOF 9
ENDMDL
MODEL 4
REMARK VINA RESULT:      -8.3      1.028      1.097
REMARK  Name = 
REMARK  11 active torsions:
REMARK  status: ('A' for Active; 'I' for Inactive)
REMARK    1  A    between atoms: C_1  and  C_2
REMARK    2  A    between atoms: C_2  and  O_3
REMARK    3  A    between atoms: O_3  and  C_4
REMARK    4  A    between atoms: C_7  and  N_8
REMARK    5  A    between atoms: C_10  and  C_11
REMARK    6  A    between atoms: N_13  and  C_14
REMARK    7  A    between atoms: C_19  and  C_20
REMARK    8  A    between atoms: N_22  and  C_23
REMARK    9  A    between atoms: C_23  and  C_24
REMARK   10  A    between atoms: C_27  and  O_28
REMARK   11  A    between atoms: O_28  and  C_29
REMARK                            x       y       z     vdW  Elec       q    Type
REMARK                         _______ _______ _______ _____ _____    ______ ____
ROOT
ATOM      1  C   UNL     1       2.171   6.159  20.047  0.00  0.00    +0.000 C 
ATOM      2  O   UNL     1       2.040   5.566  21.111  0.00  0.00    +0.000 OA
ATOM      3  N   UNL     1       2.215   5.554  18.790  0.00  0.00    +0.000 N 
ATOM      4  H   UNL     1       2.725   6.099  18.103  0.00  0.00    +0.000 HD
ENDROOT
BRANCH   1   7
ATOM      5  N   UNL     1       1.039   9.637  19.494  0.00  0.00    +0.000 N 
ATOM      6  C   UNL     1       1.170   8.556  20.457  0.00  0.00    +0.000 C 
ATOM      7  C   UNL     1       2.311   7.678  19.926  0.00  0.00    +0.000 C 
ATOM      8  C   UNL     1       2.393   8.012  18.446  0.00  0.00    +0.000 C 
ATOM      9  C   UNL     1       1.755   9.356  18.324  0.00  0.00    +0.000 C 
ATOM     10  O   UNL     1       1.915  10.043  17.324  0.00  0.00    +0.000 OA
BRANCH   5  14
ATOM     11  C   UNL     1      -1.290  13.159  20.232  0.00  0.00    +0.000 A 
ATOM     12  C   UNL     1       0.039  13.068  20.616  0.00  0.00    +0.000 A 
ATOM     13  C   UNL     1       0.795  11.928  20.331  0.00  0.00    +0.000 A 
ATOM     14  C   UNL     1       0.249  10.813  19.672  0.00  0.00    +0.000 A 
ATOM     15  C   UNL     1      -1.084  10.938  19.238  0.00  0.00    +0.000 A 
ATOM     16  C   UNL     1      -1.852  12.097  19.525  0.00  0.00    +0.000 A 
BRANCH  11  17
ATOM     17  O   UNL     1      -1.906  14.293  20.670  0.00  0.00    +0.000 OA
BRANCH  17  19
ATOM     18  C   UNL     1      -4.235  14.642  20.933  0.00  0.00    +0.000 C 
ATOM     19  C   UNL     1      -2.956  14.180  21.623  0.00  0.00    +0.000 C 
ENDBRANCH  17  19
ENDBRANCH  11  17
ENDBRANCH   5  14
ENDBRANCH   1   7
BRANCH   3  20
ATOM     20  C   UNL     1       2.264   4.156  18.554  0.00  0.00    +0.000 A 
ATOM     21  C   UNL     1       1.022   3.505  18.727  0.00  0.00    +0.000 A 
ATOM     22  C   UNL     1       0.891   2.117  18.655  0.00  0.00    +0.000 A 
ATOM     23  C   UNL     1       2.011   1.341  18.421  0.00  0.00    +0.000 A 
ATOM     24  C   UNL     1       3.254   1.959  18.272  0.00  0.00    +0.000 A 
ATOM     25  C   UNL     1       3.410   3.367  18.342  0.00  0.00    +0.000 A 
BRANCH  25  26
ATOM     26  C   UNL     1       4.839   3.791  18.441  0.00  0.00    +0.000 C 
ATOM     27  O   UNL     1       5.365   3.828  19.554  0.00  0.00    +0.000 OA
ATOM     28  N   UNL     1       5.554   4.069  17.302  0.00  0.00    +0.000 N 
ATOM     29  H   UNL     1       5.160   3.815  16.399  0.00  0.00    +0.000 HD
BRANCH  28  30
ATOM     30  C   UNL     1       6.982   4.307  17.411  0.00  0.00    +0.000 C 
BRANCH  30  31
ATOM     31  C   UNL     1       7.304   5.743  17.726  0.00  0.00    +0.000 A 
ATOM     32  C   UNL     1       6.864   6.760  16.873  0.00  0.00    +0.000 A 
ATOM     33  C   UNL     1       7.263   8.079  17.084  0.00  0.00    +0.000 A 
ATOM     34  C   UNL     1       8.086   8.418  18.153  0.00  0.00    +0.000 A 
ATOM     35  C   UNL     1       8.463   7.423  19.062  0.00  0.00    +0.000 A 
ATOM     36  C   UNL     1       8.067   6.092  18.850  0.00  0.00    +0.000 A 
BRANCH  34  37
ATOM     37  O   UNL     1       8.468   9.725  18.173  0.00  0.00    +0.000 OA
ATOM     38  C   UNL     1       9.248  10.180  19.266  0.00  0.00    +0.000 C 
ENDBRANCH  34  37
ENDBRANCH  30  31
ENDBRANCH  28  30
ENDBRANCH  25  26
ENDBRANCH   3  20
TORSDOF 9
ENDMDL
MODEL 5
REMARK VINA RESULT:      -8.3      1.904      2.235
REMARK  Name = 
REMARK  11 active torsions:
REMARK  status: ('A' for Active; 'I' for Inactive)
REMARK    1  A    between atoms: C_1  and  C_2
REMARK    2  A    between atoms: C_2  and  O_3
REMARK    3  A    between atoms: O_3  and  C_4
REMARK    4  A    between atoms: C_7  and  N_8
REMARK    5  A    between atoms: C_10  and  C_11
REMARK    6  A    between atoms: N_13  and  C_14
REMARK    7  A    between atoms: C_19  and  C_20
REMARK    8  A    between atoms: N_22  and  C_23
REMARK    9  A    between atoms: C_23  and  C_24
REMARK   10  A    between atoms: C_27  and  O_28
REMARK   11  A    between atoms: O_28  and  C_29
REMARK                            x       y       z     vdW  Elec       q    Type
REMARK                         _______ _______ _______ _____ _____    ______ ____
ROOT
ATOM      1  C   UNL     1       2.166   6.871  18.893  0.00  0.00    +0.000 C 
ATOM      2  O   UNL     1       1.737   6.325  17.884  0.00  0.00    +0.000 OA
ATOM      3  N   UNL     1       2.761   6.212  19.970  0.00  0.00    +0.000 N 
ATOM      4  H   UNL     1       2.672   6.717  20.845  0.00  0.00    +0.000 HD
ENDROOT
BRANCH   1   7
ATOM      5  N   UNL     1       0.756  10.059  20.131  0.00  0.00    +0.000 N 
ATOM      6  C   UNL     1       1.534   8.878  20.469  0.00  0.00    +0.000 C 
ATOM      7  C   UNL     1       2.113   8.380  19.138  0.00  0.00    +0.000 C 
ATOM      8  C   UNL     1       1.206   8.983  18.079  0.00  0.00    +0.000 C 
ATOM      9  C   UNL     1       0.567  10.154  18.746  0.00  0.00    +0.000 C 
ATOM     10  O   UNL     1       0.009  11.027  18.095  0.00  0.00    +0.000 OA
BRANCH   5  14
ATOM     11  C   UNL     1      -1.095  12.761  22.895  0.00  0.00    +0.000 A 
ATOM     12  C   UNL     1      -1.310  11.393  22.955  0.00  0.00    +0.000 A 
ATOM     13  C   UNL     1      -0.667  10.522  22.071  0.00  0.00    +0.000 A 
ATOM     14  C   UNL     1       0.203  10.982  21.068  0.00  0.00    +0.000 A 
ATOM     15  C   UNL     1       0.457  12.367  21.051  0.00  0.00    +0.000 A 
ATOM     16  C   UNL     1      -0.195  13.252  21.950  0.00  0.00    +0.000 A 
BRANCH  11  17
ATOM     17  O   UNL     1      -1.871  13.472  23.761  0.00  0.00    +0.000 OA
BRANCH  17  19
ATOM     18  C   UNL     1      -2.388  15.201  25.297  0.00  0.00    +0.000 C 
ATOM     19  C   UNL     1      -1.391  14.719  24.249  0.00  0.00    +0.000 C 
ENDBRANCH  17  19
ENDBRANCH  11  17
ENDBRANCH   5  14
ENDBRANCH   1   7
BRANCH   3  20
ATOM     20  C   UNL     1       2.831   4.804  20.134  0.00  0.00    +0.000 A 
ATOM     21  C   UNL     1       2.154   4.330  21.279  0.00  0.00    +0.000 A 
ATOM     22  C   UNL     1       2.206   2.993  21.677  0.00  0.00    +0.000 A 
ATOM     23  C   UNL     1       2.955   2.095  20.939  0.00  0.00    +0.000 A 
ATOM     24  C   UNL     1       3.653   2.544  19.817  0.00  0.00    +0.000 A 
ATOM     25  C   UNL     1       3.615   3.898  19.396  0.00  0.00    +0.000 A 
BRANCH  25  26
ATOM     26  C   UNL     1       4.644   4.217  18.361  0.00  0.00    +0.000 C 
ATOM     27  O   UNL     1       4.277   4.741  17.309  0.00  0.00    +0.000 OA
ATOM     28  N   UNL     1       5.972   3.981  18.617  0.00  0.00    +0.000 N 
ATOM     29  H   UNL     1       6.259   3.761  19.569  0.00  0.00    +0.000 HD
BRANCH  28  30
ATOM     30  C   UNL     1       6.965   4.459  17.671  0.00  0.00    +0.000 C 
BRANCH  30  31
ATOM     31  C   UNL     1       7.344   5.895  17.912  0.00  0.00    +0.000 A 
ATOM     32  C   UNL     1       6.942   6.884  17.008  0.00  0.00    +0.000 A 
ATOM     33  C   UNL     1       7.393   8.196  17.152  0.00  0.00    +0.000 A 
ATOM     34  C   UNL     1       8.234   8.556  18.200  0.00  0.00    +0.000 A 
ATOM     35  C   UNL     1       8.575   7.593  19.158  0.00  0.00    +0.000 A 
ATOM     36  C   UNL     1       8.126   6.270  19.015  0.00  0.00    +0.000 A 
BRANCH  34  37
ATOM     37  O   UNL     1       8.667   9.845  18.152  0.00  0.00    +0.000 OA
ATOM     38  C   UNL     1       9.324  10.375  19.292  0.00  0.00    +0.000 C 
ENDBRANCH  34  37
ENDBRANCH  30  31
ENDBRANCH  28  30
ENDBRANCH  25  26
ENDBRANCH   3  20
TORSDOF 9
ENDMDL
MODEL 6
REMARK VINA RESULT:      -8.2      1.640      1.910
REMARK  Name = 
REMARK  11 active torsions:
REMARK  status: ('A' for Active; 'I' for Inactive)
REMARK    1  A    between atoms: C_1  and  C_2
REMARK    2  A    between atoms: C_2  and  O_3
REMARK    3  A    between atoms: O_3  and  C_4
REMARK    4  A    between atoms: C_7  and  N_8
REMARK    5  A    between atoms: C_10  and  C_11
REMARK    6  A    between atoms: N_13  and  C_14
REMARK    7  A    between atoms: C_19  and  C_20
REMARK    8  A    between atoms: N_22  and  C_23
REMARK    9  A    between atoms: C_23  and  C_24
REMARK   10  A    between atoms: C_27  and  O_28
REMARK   11  A    between atoms: O_28  and  C_29
REMARK                            x       y       z     vdW  Elec       q    Type
REMARK                         _______ _______ _______ _____ _____    ______ ____
ROOT
ATOM      1  C   UNL     1       2.484   6.837  18.530  0.00  0.00    +0.000 C 
ATOM      2  O   UNL     1       2.694   6.571  17.353  0.00  0.00    +0.000 OA
ATOM      3  N   UNL     1       2.284   5.897  19.542  0.00  0.00    +0.000 N 
ATOM      4  H   UNL     1       1.733   6.254  20.315  0.00  0.00    +0.000 HD
ENDROOT
BRANCH   1   7
ATOM      5  N   UNL     1       0.870   9.791  20.065  0.00  0.00    +0.000 N 
ATOM      6  C   UNL     1       1.514   8.510  20.311  0.00  0.00    +0.000 C 
ATOM      7  C   UNL     1       2.401   8.261  19.083  0.00  0.00    +0.000 C 
ATOM      8  C   UNL     1       1.802   9.138  17.997  0.00  0.00    +0.000 C 
ATOM      9  C   UNL     1       1.038  10.188  18.733  0.00  0.00    +0.000 C 
ATOM     10  O   UNL     1       0.680  11.217  18.176  0.00  0.00    +0.000 OA
BRANCH   5  14
ATOM     11  C   UNL     1      -1.226  12.152  22.964  0.00  0.00    +0.000 A 
ATOM     12  C   UNL     1      -0.651  12.719  21.837  0.00  0.00    +0.000 A 
ATOM     13  C   UNL     1      -0.006  11.929  20.882  0.00  0.00    +0.000 A 
ATOM     14  C   UNL     1       0.117  10.536  21.021  0.00  0.00    +0.000 A 
ATOM     15  C   UNL     1      -0.518   9.964  22.141  0.00  0.00    +0.000 A 
ATOM     16  C   UNL     1      -1.175  10.766  23.111  0.00  0.00    +0.000 A 
BRANCH  11  17
ATOM     17  O   UNL     1      -1.727  13.069  23.838  0.00  0.00    +0.000 OA
BRANCH  17  19
ATOM     18  C   UNL     1      -3.994  12.763  24.460  0.00  0.00    +0.000 C 
ATOM     19  C   UNL     1      -3.032  13.591  23.615  0.00  0.00    +0.000 C 
ENDBRANCH  17  19
ENDBRANCH  11  17
ENDBRANCH   5  14
ENDBRANCH   1   7
BRANCH   3  20
ATOM     20  C   UNL     1       2.148   4.498  19.348  0.00  0.00    +0.000 A 
ATOM     21  C   UNL     1       0.945   3.966  19.863  0.00  0.00    +0.000 A 
ATOM     22  C   UNL     1       0.679   2.596  19.875  0.00  0.00    +0.000 A 
ATOM     23  C   UNL     1       1.626   1.718  19.380  0.00  0.00    +0.000 A 
ATOM     24  C   UNL     1       2.833   2.217  18.887  0.00  0.00    +0.000 A 
ATOM     25  C   UNL     1       3.123   3.605  18.868  0.00  0.00    +0.000 A 
BRANCH  25  26
ATOM     26  C   UNL     1       4.559   3.896  18.572  0.00  0.00    +0.000 C 
ATOM     27  O   UNL     1       5.411   3.529  19.381  0.00  0.00    +0.000 OA
ATOM     28  N   UNL     1       4.908   4.505  17.392  0.00  0.00    +0.000 N 
ATOM     29  H   UNL     1       4.209   4.591  16.656  0.00  0.00    +0.000 HD
BRANCH  28  30
ATOM     30  C   UNL     1       6.315   4.618  17.051  0.00  0.00    +0.000 C 
BRANCH  30  31
ATOM     31  C   UNL     1       6.953   5.845  17.641  0.00  0.00    +0.000 A 
ATOM     32  C   UNL     1       6.780   7.088  17.023  0.00  0.00    +0.000 A 
ATOM     33  C   UNL     1       7.469   8.208  17.486  0.00  0.00    +0.000 A 
ATOM     34  C   UNL     1       8.325   8.124  18.580  0.00  0.00    +0.000 A 
ATOM     35  C   UNL     1       8.441   6.905  19.259  0.00  0.00    +0.000 A 
ATOM     36  C   UNL     1       7.752   5.773  18.792  0.00  0.00    +0.000 A 
BRANCH  34  37
ATOM     37  O   UNL     1       8.998   9.275  18.853  0.00  0.00    +0.000 OA
ATOM     38  C   UNL     1       8.740  10.412  18.046  0.00  0.00    +0.000 C 
ENDBRANCH  34  37
ENDBRANCH  30  31
ENDBRANCH  28  30
ENDBRANCH  25  26
ENDBRANCH   3  20
TORSDOF 9
ENDMDL
MODEL 7
REMARK VINA RESULT:      -8.1      3.193      9.329
REMARK  Name = 
REMARK  11 active torsions:
REMARK  status: ('A' for Active; 'I' for Inactive)
REMARK    1  A    between atoms: C_1  and  C_2
REMARK    2  A    between atoms: C_2  and  O_3
REMARK    3  A    between atoms: O_3  and  C_4
REMARK    4  A    between atoms: C_7  and  N_8
REMARK    5  A    between atoms: C_10  and  C_11
REMARK    6  A    between atoms: N_13  and  C_14
REMARK    7  A    between atoms: C_19  and  C_20
REMARK    8  A    between atoms: N_22  and  C_23
REMARK    9  A    between atoms: C_23  and  C_24
REMARK   10  A    between atoms: C_27  and  O_28
REMARK   11  A    between atoms: O_28  and  C_29
REMARK                            x       y       z     vdW  Elec       q    Type
REMARK                         _______ _______ _______ _____ _____    ______ ____
ROOT
ATOM      1  C   UNL     1       0.543   8.674  20.517  0.00  0.00    +0.000 C 
ATOM      2  O   UNL     1      -0.265   8.451  21.409  0.00  0.00    +0.000 OA
ATOM      3  N   UNL     1       0.402   9.653  19.532  0.00  0.00    +0.000 N 
ATOM      4  H   UNL     1       0.906   9.436  18.678  0.00  0.00    +0.000 HD
ENDROOT
BRANCH   1   7
ATOM      5  N   UNL     1       2.910   6.347  18.884  0.00  0.00    +0.000 N 
ATOM      6  C   UNL     1       2.382   7.702  18.909  0.00  0.00    +0.000 C 
ATOM      7  C   UNL     1       1.852   7.903  20.335  0.00  0.00    +0.000 C 
ATOM      8  C   UNL     1       1.628   6.495  20.860  0.00  0.00    +0.000 C 
ATOM      9  C   UNL     1       2.502   5.629  20.016  0.00  0.00    +0.000 C 
ATOM     10  O   UNL     1       2.784   4.489  20.358  0.00  0.00    +0.000 OA
BRANCH   5  14
ATOM     11  C   UNL     1       5.328   4.505  15.862  0.00  0.00    +0.000 A 
ATOM     12  C   UNL     1       4.349   3.800  16.544  0.00  0.00    +0.000 A 
ATOM     13  C   UNL     1       3.542   4.427  17.498  0.00  0.00    +0.000 A 
ATOM     14  C   UNL     1       3.695   5.783  17.833  0.00  0.00    +0.000 A 
ATOM     15  C   UNL     1       4.655   6.503  17.096  0.00  0.00    +0.000 A 
ATOM     16  C   UNL     1       5.474   5.867  16.125  0.00  0.00    +0.000 A 
BRANCH  11  17
ATOM     17  O   UNL     1       6.087   3.726  15.041  0.00  0.00    +0.000 OA
BRANCH  17  19
ATOM     18  C   UNL     1       5.842   3.486  12.696  0.00  0.00    +0.000 C 
ATOM     19  C   UNL     1       6.540   4.266  13.805  0.00  0.00    +0.000 C 
ENDBRANCH  17  19
ENDBRANCH  11  17
ENDBRANCH   5  14
ENDBRANCH   1   7
BRANCH   3  20
ATOM     20  C   UNL     1      -0.758  10.441  19.319  0.00  0.00    +0.000 A 
ATOM     21  C   UNL     1      -1.648   9.900  18.364  0.00  0.00    +0.000 A 
ATOM     22  C   UNL     1      -2.785  10.584  17.931  0.00  0.00    +0.000 A 
ATOM     23  C   UNL     1      -3.054  11.842  18.437  0.00  0.00    +0.000 A 
ATOM     24  C   UNL     1      -2.177  12.409  19.364  0.00  0.00    +0.000 A 
ATOM     25  C   UNL     1      -1.015  11.732  19.816  0.00  0.00    +0.000 A 
BRANCH  25  26
ATOM     26  C   UNL     1      -0.081  12.619  20.573  0.00  0.00    +0.000 C 
ATOM     27  O   UNL     1       0.586  12.129  21.485  0.00  0.00    +0.000 OA
ATOM     28  N   UNL     1       0.065  13.935  20.208  0.00  0.00    +0.000 N 
ATOM     29  H   UNL     1      -0.326  14.246  19.321  0.00  0.00    +0.000 HD
BRANCH  28  30
ATOM     30  C   UNL     1       1.103  14.728  20.842  0.00  0.00    +0.000 C 
BRANCH  30  31
ATOM     31  C   UNL     1       2.366  14.779  20.027  0.00  0.00    +0.000 A 
ATOM     32  C   UNL     1       3.611  14.750  20.666  0.00  0.00    +0.000 A 
ATOM     33  C   UNL     1       4.784  14.926  19.932  0.00  0.00    +0.000 A 
ATOM     34  C   UNL     1       4.748  15.113  18.554  0.00  0.00    +0.000 A 
ATOM     35  C   UNL     1       3.515  15.058  17.893  0.00  0.00    +0.000 A 
ATOM     36  C   UNL     1       2.331  14.887  18.629  0.00  0.00    +0.000 A 
BRANCH  34  37
ATOM     37  O   UNL     1       5.962  15.366  17.992  0.00  0.00    +0.000 OA
ATOM     38  C   UNL     1       7.102  15.378  18.835  0.00  0.00    +0.000 C 
ENDBRANCH  34  37
ENDBRANCH  30  31
ENDBRANCH  28  30
ENDBRANCH  25  26
ENDBRANCH   3  20
TORSDOF 9
ENDMDL
MODEL 8
REMARK VINA RESULT:      -8.1      2.235      3.551
REMARK  Name = 
REMARK  11 active torsions:
REMARK  status: ('A' for Active; 'I' for Inactive)
REMARK    1  A    between atoms: C_1  and  C_2
REMARK    2  A    between atoms: C_2  and  O_3
REMARK    3  A    between atoms: O_3  and  C_4
REMARK    4  A    between atoms: C_7  and  N_8
REMARK    5  A    between atoms: C_10  and  C_11
REMARK    6  A    between atoms: N_13  and  C_14
REMARK    7  A    between atoms: C_19  and  C_20
REMARK    8  A    between atoms: N_22  and  C_23
REMARK    9  A    between atoms: C_23  and  C_24
REMARK   10  A    between atoms: C_27  and  O_28
REMARK   11  A    between atoms: O_28  and  C_29
REMARK                            x       y       z     vdW  Elec       q    Type
REMARK                         _______ _______ _______ _____ _____    ______ ____
ROOT
ATOM      1  C   UNL     1       2.136   7.406  19.272  0.00  0.00    +0.000 C 
ATOM      2  O   UNL     1       2.003   7.027  18.115  0.00  0.00    +0.000 OA
ATOM      3  N   UNL     1       2.496   6.591  20.347  0.00  0.00    +0.000 N 
ATOM      4  H   UNL     1       2.164   6.939  21.240  0.00  0.00    +0.000 HD
ENDROOT
BRANCH   1   7
ATOM      5  N   UNL     1       0.207  10.375  20.343  0.00  0.00    +0.000 N 
ATOM      6  C   UNL     1       0.825   9.127  20.764  0.00  0.00    +0.000 C 
ATOM      7  C   UNL     1       1.923   8.850  19.729  0.00  0.00    +0.000 C 
ATOM      8  C   UNL     1       1.511   9.658  18.510  0.00  0.00    +0.000 C 
ATOM      9  C   UNL     1       0.604  10.716  19.044  0.00  0.00    +0.000 C 
ATOM     10  O   UNL     1       0.329  11.707  18.380  0.00  0.00    +0.000 OA
BRANCH   5  14
ATOM     11  C   UNL     1      -2.539  12.835  22.529  0.00  0.00    +0.000 A 
ATOM     12  C   UNL     1      -2.619  12.695  21.152  0.00  0.00    +0.000 A 
ATOM     13  C   UNL     1      -1.741  11.856  20.460  0.00  0.00    +0.000 A 
ATOM     14  C   UNL     1      -0.723  11.139  21.110  0.00  0.00    +0.000 A 
ATOM     15  C   UNL     1      -0.684  11.246  22.514  0.00  0.00    +0.000 A 
ATOM     16  C   UNL     1      -1.578  12.096  23.217  0.00  0.00    +0.000 A 
BRANCH  11  17
ATOM     17  O   UNL     1      -3.402  13.761  23.032  0.00  0.00    +0.000 OA
BRANCH  17  19
ATOM     18  C   UNL     1      -4.638  15.644  22.295  0.00  0.00    +0.000 C 
ATOM     19  C   UNL     1      -4.546  14.122  22.267  0.00  0.00    +0.000 C 
ENDBRANCH  17  19
ENDBRANCH  11  17
ENDBRANCH   5  14
ENDBRANCH   1   7
BRANCH   3  20
ATOM     20  C   UNL     1       2.621   5.179  20.301  0.00  0.00    +0.000 A 
ATOM     21  C   UNL     1       1.703   4.499  21.133  0.00  0.00    +0.000 A 
ATOM     22  C   UNL     1       1.745   3.115  21.315  0.00  0.00    +0.000 A 
ATOM     23  C   UNL     1       2.721   2.376  20.675  0.00  0.00    +0.000 A 
ATOM     24  C   UNL     1       3.654   3.027  19.866  0.00  0.00    +0.000 A 
ATOM     25  C   UNL     1       3.631   4.432  19.668  0.00  0.00    +0.000 A 
BRANCH  25  26
ATOM     26  C   UNL     1       4.870   4.949  19.011  0.00  0.00    +0.000 C 
ATOM     27  O   UNL     1       5.961   4.536  19.407  0.00  0.00    +0.000 OA
ATOM     28  N   UNL     1       4.775   5.815  17.950  0.00  0.00    +0.000 N 
ATOM     29  H   UNL     1       3.868   5.958  17.510  0.00  0.00    +0.000 HD
BRANCH  28  30
ATOM     30  C   UNL     1       5.980   6.164  17.219  0.00  0.00    +0.000 C 
BRANCH  30  31
ATOM     31  C   UNL     1       6.162   5.331  15.980  0.00  0.00    +0.000 A 
ATOM     32  C   UNL     1       7.237   5.583  15.121  0.00  0.00    +0.000 A 
ATOM     33  C   UNL     1       7.343   4.905  13.907  0.00  0.00    +0.000 A 
ATOM     34  C   UNL     1       6.401   3.954  13.530  0.00  0.00    +0.000 A 
ATOM     35  C   UNL     1       5.368   3.632  14.419  0.00  0.00    +0.000 A 
ATOM     36  C   UNL     1       5.254   4.316  15.640  0.00  0.00    +0.000 A 
BRANCH  34  37
ATOM     37  O   UNL     1       6.585   3.448  12.280  0.00  0.00    +0.000 OA
ATOM     38  C   UNL     1       5.544   2.674  11.708  0.00  0.00    +0.000 C 
ENDBRANCH  34  37
ENDBRANCH  30  31
ENDBRANCH  28  30
ENDBRANCH  25  26
ENDBRANCH   3  20
TORSDOF 9
ENDMDL
MODEL 9
REMARK VINA RESULT:      -8.1      1.399      1.621
REMARK  Name = 
REMARK  11 active torsions:
REMARK  status: ('A' for Active; 'I' for Inactive)
REMARK    1  A    between atoms: C_1  and  C_2
REMARK    2  A    between atoms: C_2  and  O_3
REMARK    3  A    between atoms: O_3  and  C_4
REMARK    4  A    between atoms: C_7  and  N_8
REMARK    5  A    between atoms: C_10  and  C_11
REMARK    6  A    between atoms: N_13  and  C_14
REMARK    7  A    between atoms: C_19  and  C_20
REMARK    8  A    between atoms: N_22  and  C_23
REMARK    9  A    between atoms: C_23  and  C_24
REMARK   10  A    between atoms: C_27  and  O_28
REMARK   11  A    between atoms: O_28  and  C_29
REMARK                            x       y       z     vdW  Elec       q    Type
REMARK                         _______ _______ _______ _____ _____    ______ ____
ROOT
ATOM      1  C   UNL     1       2.019   6.194  20.254  0.00  0.00    +0.000 C 
ATOM      2  O   UNL     1       1.816   5.430  21.189  0.00  0.00    +0.000 OA
ATOM      3  N   UNL     1       2.314   5.803  18.947  0.00  0.00    +0.000 N 
ATOM      4  H   UNL     1       2.844   6.499  18.432  0.00  0.00    +0.000 HD
ENDROOT
BRANCH   1   7
ATOM      5  N   UNL     1       0.471   9.548  20.451  0.00  0.00    +0.000 N 
ATOM      6  C   UNL     1       0.857   8.358  21.192  0.00  0.00    +0.000 C 
ATOM      7  C   UNL     1       1.986   7.719  20.373  0.00  0.00    +0.000 C 
ATOM      8  C   UNL     1       1.806   8.281  18.972  0.00  0.00    +0.000 C 
ATOM      9  C   UNL     1       1.025   9.539  19.164  0.00  0.00    +0.000 C 
ATOM     10  O   UNL     1       0.959  10.384  18.282  0.00  0.00    +0.000 OA
BRANCH   5  14
ATOM     11  C   UNL     1      -2.234  12.490  21.999  0.00  0.00    +0.000 A 
ATOM     12  C   UNL     1      -1.476  11.684  22.834  0.00  0.00    +0.000 A 
ATOM     13  C   UNL     1      -0.569  10.758  22.312  0.00  0.00    +0.000 A 
ATOM     14  C   UNL     1      -0.396  10.576  20.929  0.00  0.00    +0.000 A 
ATOM     15  C   UNL     1      -1.131  11.438  20.091  0.00  0.00    +0.000 A 
ATOM     16  C   UNL     1      -2.051  12.380  20.621  0.00  0.00    +0.000 A 
BRANCH  11  17
ATOM     17  O   UNL     1      -3.136  13.266  22.665  0.00  0.00    +0.000 OA
BRANCH  17  19
ATOM     18  C   UNL     1      -4.490  12.589  24.488  0.00  0.00    +0.000 C 
ATOM     19  C   UNL     1      -3.162  13.223  24.086  0.00  0.00    +0.000 C 
ENDBRANCH  17  19
ENDBRANCH  11  17
ENDBRANCH   5  14
ENDBRANCH   1   7
BRANCH   3  20
ATOM     20  C   UNL     1       2.569   4.472  18.527  0.00  0.00    +0.000 A 
ATOM     21  C   UNL     1       1.423   3.647  18.522  0.00  0.00    +0.000 A 
ATOM     22  C   UNL     1       1.489   2.278  18.253  0.00  0.00    +0.000 A 
ATOM     23  C   UNL     1       2.717   1.697  17.994  0.00  0.00    +0.000 A 
ATOM     24  C   UNL     1       3.867   2.487  18.017  0.00  0.00    +0.000 A 
ATOM     25  C   UNL     1       3.822   3.879  18.289  0.00  0.00    +0.000 A 
BRANCH  25  26
ATOM     26  C   UNL     1       5.172   4.467  18.544  0.00  0.00    +0.000 C 
ATOM     27  O   UNL     1       5.366   5.054  19.610  0.00  0.00    +0.000 OA
ATOM     28  N   UNL     1       6.181   4.294  17.629  0.00  0.00    +0.000 N 
ATOM     29  H   UNL     1       6.053   3.622  16.875  0.00  0.00    +0.000 HD
BRANCH  28  30
ATOM     30  C   UNL     1       7.525   4.721  17.977  0.00  0.00    +0.000 C 
BRANCH  30  31
ATOM     31  C   UNL     1       7.651   6.218  18.053  0.00  0.00    +0.000 A 
ATOM     32  C   UNL     1       6.973   7.023  17.132  0.00  0.00    +0.000 A 
ATOM     33  C   UNL     1       7.182   8.402  17.112  0.00  0.00    +0.000 A 
ATOM     34  C   UNL     1       8.049   9.010  18.015  0.00  0.00    +0.000 A 
ATOM     35  C   UNL     1       8.668   8.225  18.996  0.00  0.00    +0.000 A 
ATOM     36  C   UNL     1       8.463   6.836  19.016  0.00  0.00    +0.000 A 
BRANCH  34  37
ATOM     37  O   UNL     1       8.223  10.345  17.810  0.00  0.00    +0.000 OA
ATOM     38  C   UNL     1       9.387  10.958  18.340  0.00  0.00    +0.000 C 
ENDBRANCH  34  37
ENDBRANCH  30  31
ENDBRANCH  28  30
ENDBRANCH  25  26
ENDBRANCH   3  20
TORSDOF 9
ENDMDL
