MODEL 1
REMARK VINA RESULT:      -6.7      0.000      0.000
REMARK  Name = 
REMARK  8 active torsions:
REMARK  status: ('A' for Active; 'I' for Inactive)
REMARK    1  A    between atoms: C_1  and  O_2
REMARK    2  A    between atoms: O_2  and  C_3
REMARK    3  A    between atoms: C_5  and  O_6
REMARK    4  A    between atoms: O_6  and  C_7
REMARK    5  A    between atoms: C_8  and  N_9
REMARK    6  A    between atoms: C_10  and  S_11
REMARK    7  A    between atoms: N_12  and  C_13
REMARK    8  A    between atoms: C_13  and  C_14
REMARK                            x       y       z     vdW  Elec       q    Type
REMARK                         _______ _______ _______ _____ _____    ______ ____
ROOT
ATOM      1  N   UNL     1       3.279   5.699  17.604  0.00  0.00    +0.000 N 
ATOM      2  C   UNL     1       4.532   5.236  17.309  0.00  0.00    +0.000 C 
ATOM      3  N   UNL     1       4.607   4.405  16.309  0.00  0.00    +0.000 NA
ATOM      4  H   UNL     1       2.628   5.374  16.898  0.00  0.00    +0.000 HD
ENDROOT
BRANCH   1   8
ATOM      5  C   UNL     1       1.435   8.433  20.301  0.00  0.00    +0.000 A 
ATOM      6  C   UNL     1       1.753   7.150  20.750  0.00  0.00    +0.000 A 
ATOM      7  C   UNL     1       2.361   6.193  19.912  0.00  0.00    +0.000 A 
ATOM      8  C   UNL     1       2.669   6.522  18.576  0.00  0.00    +0.000 A 
ATOM      9  C   UNL     1       2.339   7.826  18.139  0.00  0.00    +0.000 A 
ATOM     10  C   UNL     1       1.722   8.761  18.979  0.00  0.00    +0.000 A 
ATOM     11 CL   UNL     1       1.343  10.317  18.331  0.00  0.00    +0.000 Cl
BRANCH   5  13
ATOM     12  C   UNL     1      -0.297   8.894  21.860  0.00  0.00    +0.000 C 
ATOM     13  O   UNL     1       0.796   9.366  21.077  0.00  0.00    +0.000 OA
ENDBRANCH   5  13
BRANCH   7  14
ATOM     14  O   UNL     1       2.609   4.914  20.340  0.00  0.00    +0.000 OA
ATOM     15  C   UNL     1       1.507   4.128  20.792  0.00  0.00    +0.000 C 
ENDBRANCH   7  14
ENDBRANCH   1   8
BRANCH   2  16
ATOM     16  S   UNL     1       5.950   5.824  18.156  0.00  0.00    +0.000 S 
ATOM     17  H   UNL     1       6.079   6.940  17.433  0.00  0.00    +0.000 HD
ENDBRANCH   2  16
BRANCH   3  18
ATOM     18  C   UNL     1       5.913   3.862  15.927  0.00  0.00    +0.000 C 
BRANCH  18  19
ATOM     19  C   UNL     1       6.358   4.170  14.512  0.00  0.00    +0.000 A 
ATOM     20  C   UNL     1       7.405   5.066  14.229  0.00  0.00    +0.000 A 
ATOM     21  C   UNL     1       7.862   5.224  12.917  0.00  0.00    +0.000 A 
ATOM     22  C   UNL     1       7.288   4.494  11.876  0.00  0.00    +0.000 A 
ATOM     23  C   UNL     1       6.255   3.604  12.144  0.00  0.00    +0.000 A 
ATOM     24  C   UNL     1       5.798   3.442  13.453  0.00  0.00    +0.000 A 
ENDBRANCH  18  19
ENDBRANCH   3  18
TORSDOF 6
ENDMDL
MODEL 2
REMARK VINA RESULT:      -6.5      2.958      8.586
REMARK  Name = 
REMARK  8 active torsions:
REMARK  status: ('A' for Active; 'I' for Inactive)
REMARK    1  A    between atoms: C_1  and  O_2
REMARK    2  A    between atoms: O_2  and  C_3
REMARK    3  A    between atoms: C_5  and  O_6
REMARK    4  A    between atoms: O_6  and  C_7
REMARK    5  A    between atoms: C_8  and  N_9
REMARK    6  A    between atoms: C_10  and  S_11
REMARK    7  A    between atoms: N_12  and  C_13
REMARK    8  A    between atoms: C_13  and  C_14
REMARK                            x       y       z     vdW  Elec       q    Type
REMARK                         _______ _______ _______ _____ _____    ______ ____
ROOT
ATOM      1  N   UNL     1       2.796   6.924  18.717  0.00  0.00    +0.000 N 
ATOM      2  C   UNL     1       2.163   6.929  19.930  0.00  0.00    +0.000 C 
ATOM      3  N   UNL     1       1.602   8.054  20.269  0.00  0.00    +0.000 NA
ATOM      4  H   UNL     1       2.618   7.802  18.243  0.00  0.00    +0.000 HD
ENDROOT
BRANCH   1   8
ATOM      5  C   UNL     1       5.397   4.462  16.411  0.00  0.00    +0.000 A 
ATOM      6  C   UNL     1       4.094   4.027  16.654  0.00  0.00    +0.000 A 
ATOM      7  C   UNL     1       3.179   4.788  17.410  0.00  0.00    +0.000 A 
ATOM      8  C   UNL     1       3.574   6.032  17.946  0.00  0.00    +0.000 A 
ATOM      9  C   UNL     1       4.899   6.455  17.690  0.00  0.00    +0.000 A 
ATOM     10  C   UNL     1       5.799   5.681  16.949  0.00  0.00    +0.000 A 
ATOM     11 CL   UNL     1       7.401   6.287  16.719  0.00  0.00    +0.000 Cl
BRANCH   5  13
ATOM     12  C   UNL     1       6.302   3.842  14.304  0.00  0.00    +0.000 C 
ATOM     13  O   UNL     1       6.323   3.720  15.724  0.00  0.00    +0.000 OA
ENDBRANCH   5  13
BRANCH   7  14
ATOM     14  O   UNL     1       1.922   4.324  17.701  0.00  0.00    +0.000 OA
ATOM     15  C   UNL     1       1.780   2.959  18.092  0.00  0.00    +0.000 C 
ENDBRANCH   7  14
ENDBRANCH   1   8
BRANCH   2  16
ATOM     16  S   UNL     1       2.025   5.474  20.898  0.00  0.00    +0.000 S 
ATOM     17  H   UNL     1       2.098   6.097  22.078  0.00  0.00    +0.000 HD
ENDBRANCH   2  16
BRANCH   3  18
ATOM     18  C   UNL     1       0.901   8.145  21.554  0.00  0.00    +0.000 C 
BRANCH  18  19
ATOM     19  C   UNL     1       0.017   9.363  21.729  0.00  0.00    +0.000 A 
ATOM     20  C   UNL     1      -0.489   9.753  22.982  0.00  0.00    +0.000 A 
ATOM     21  C   UNL     1      -1.197  10.951  23.115  0.00  0.00    +0.000 A 
ATOM     22  C   UNL     1      -1.408  11.773  22.008  0.00  0.00    +0.000 A 
ATOM     23  C   UNL     1      -0.911  11.399  20.765  0.00  0.00    +0.000 A 
ATOM     24  C   UNL     1      -0.202  10.205  20.630  0.00  0.00    +0.000 A 
ENDBRANCH  18  19
ENDBRANCH   3  18
TORSDOF 6
ENDMDL
MODEL 3
REMARK VINA RESULT:      -6.5      0.227      1.053
REMARK  Name = 
REMARK  8 active torsions:
REMARK  status: ('A' for Active; 'I' for Inactive)
REMARK    1  A    between atoms: C_1  and  O_2
REMARK    2  A    between atoms: O_2  and  C_3
REMARK    3  A    between atoms: C_5  and  O_6
REMARK    4  A    between atoms: O_6  and  C_7
REMARK    5  A    between atoms: C_8  and  N_9
REMARK    6  A    between atoms: C_10  and  S_11
REMARK    7  A    between atoms: N_12  and  C_13
REMARK    8  A    between atoms: C_13  and  C_14
REMARK                            x       y       z     vdW  Elec       q    Type
REMARK                         _______ _______ _______ _____ _____    ______ ____
ROOT
ATOM      1  N   UNL     1       3.371   6.042  17.522  0.00  0.00    +0.000 N 
ATOM      2  C   UNL     1       4.567   5.399  17.347  0.00  0.00    +0.000 C 
ATOM      3  N   UNL     1       4.713   4.777  16.213  0.00  0.00    +0.000 NA
ATOM      4  H   UNL     1       2.838   5.997  16.661  0.00  0.00    +0.000 HD
ENDROOT
BRANCH   1   8
ATOM      5  C   UNL     1       1.377   8.506  20.368  0.00  0.00    +0.000 A 
ATOM      6  C   UNL     1       1.733   7.205  20.730  0.00  0.00    +0.000 A 
ATOM      7  C   UNL     1       2.392   6.334  19.839  0.00  0.00    +0.000 A 
ATOM      8  C   UNL     1       2.713   6.770  18.537  0.00  0.00    +0.000 A 
ATOM      9  C   UNL     1       2.344   8.090  18.189  0.00  0.00    +0.000 A 
ATOM     10  C   UNL     1       1.677   8.939  19.080  0.00  0.00    +0.000 A 
ATOM     11 CL   UNL     1       1.254  10.524  18.538  0.00  0.00    +0.000 Cl
BRANCH   5  13
ATOM     12  C   UNL     1      -0.401   8.791  21.917  0.00  0.00    +0.000 C 
ATOM     13  O   UNL     1       0.690   9.356  21.195  0.00  0.00    +0.000 OA
ENDBRANCH   5  13
BRANCH   7  14
ATOM     14  O   UNL     1       2.679   5.036  20.179  0.00  0.00    +0.000 OA
ATOM     15  C   UNL     1       1.696   4.296  20.902  0.00  0.00    +0.000 C 
ENDBRANCH   7  14
ENDBRANCH   1   8
BRANCH   2  16
ATOM     16  S   UNL     1       5.851   5.515  18.534  0.00  0.00    +0.000 S 
ATOM     17  H   UNL     1       6.303   6.701  18.121  0.00  0.00    +0.000 HD
ENDBRANCH   2  16
BRANCH   3  18
ATOM     18  C   UNL     1       5.965   4.064  15.945  0.00  0.00    +0.000 C 
BRANCH  18  19
ATOM     19  C   UNL     1       6.462   4.133  14.515  0.00  0.00    +0.000 A 
ATOM     20  C   UNL     1       5.862   3.405  13.472  0.00  0.00    +0.000 A 
ATOM     21  C   UNL     1       6.275   3.596  12.150  0.00  0.00    +0.000 A 
ATOM     22  C   UNL     1       7.285   4.510  11.851  0.00  0.00    +0.000 A 
ATOM     23  C   UNL     1       7.883   5.237  12.873  0.00  0.00    +0.000 A 
ATOM     24  C   UNL     1       7.471   5.051  14.193  0.00  0.00    +0.000 A 
ENDBRANCH  18  19
ENDBRANCH   3  18
TORSDOF 6
ENDMDL
MODEL 4
REMARK VINA RESULT:      -6.5      2.992      8.602
REMARK  Name = 
REMARK  8 active torsions:
REMARK  status: ('A' for Active; 'I' for Inactive)
REMARK    1  A    between atoms: C_1  and  O_2
REMARK    2  A    between atoms: O_2  and  C_3
REMARK    3  A    between atoms: C_5  and  O_6
REMARK    4  A    between atoms: O_6  and  C_7
REMARK    5  A    between atoms: C_8  and  N_9
REMARK    6  A    between atoms: C_10  and  S_11
REMARK    7  A    between atoms: N_12  and  C_13
REMARK    8  A    between atoms: C_13  and  C_14
REMARK                            x       y       z     vdW  Elec       q    Type
REMARK                         _______ _______ _______ _____ _____    ______ ____
ROOT
ATOM      1  N   UNL     1       2.776   6.949  18.705  0.00  0.00    +0.000 N 
ATOM      2  C   UNL     1       2.159   6.976  19.926  0.00  0.00    +0.000 C 
ATOM      3  N   UNL     1       1.608   8.108  20.255  0.00  0.00    +0.000 NA
ATOM      4  H   UNL     1       2.596   7.821  18.220  0.00  0.00    +0.000 HD
ENDROOT
BRANCH   1   8
ATOM      5  C   UNL     1       5.339   4.436  16.410  0.00  0.00    +0.000 A 
ATOM      6  C   UNL     1       4.028   4.025  16.651  0.00  0.00    +0.000 A 
ATOM      7  C   UNL     1       3.125   4.804  17.404  0.00  0.00    +0.000 A 
ATOM      8  C   UNL     1       3.540   6.042  17.938  0.00  0.00    +0.000 A 
ATOM      9  C   UNL     1       4.873   6.441  17.684  0.00  0.00    +0.000 A 
ATOM     10  C   UNL     1       5.761   5.649  16.947  0.00  0.00    +0.000 A 
ATOM     11 CL   UNL     1       7.374   6.227  16.719  0.00  0.00    +0.000 Cl
BRANCH   5  13
ATOM     12  C   UNL     1       6.274   3.837  14.311  0.00  0.00    +0.000 C 
ATOM     13  O   UNL     1       6.253   3.677  15.727  0.00  0.00    +0.000 OA
ENDBRANCH   5  13
BRANCH   7  14
ATOM     14  O   UNL     1       1.859   4.363  17.693  0.00  0.00    +0.000 OA
ATOM     15  C   UNL     1       1.700   3.020  18.149  0.00  0.00    +0.000 C 
ENDBRANCH   7  14
ENDBRANCH   1   8
BRANCH   2  16
ATOM     16  S   UNL     1       2.028   5.537  20.919  0.00  0.00    +0.000 S 
ATOM     17  H   UNL     1       3.218   5.677  21.508  0.00  0.00    +0.000 HD
ENDBRANCH   2  16
BRANCH   3  18
ATOM     18  C   UNL     1       0.925   8.222  21.547  0.00  0.00    +0.000 C 
BRANCH  18  19
ATOM     19  C   UNL     1       0.359   9.591  21.867  0.00  0.00    +0.000 A 
ATOM     20  C   UNL     1       0.642  10.726  21.087  0.00  0.00    +0.000 A 
ATOM     21  C   UNL     1      -0.001  11.940  21.347  0.00  0.00    +0.000 A 
ATOM     22  C   UNL     1      -0.930  12.038  22.382  0.00  0.00    +0.000 A 
ATOM     23  C   UNL     1      -1.221  10.923  23.159  0.00  0.00    +0.000 A 
ATOM     24  C   UNL     1      -0.583   9.709  22.900  0.00  0.00    +0.000 A 
ENDBRANCH  18  19
ENDBRANCH   3  18
TORSDOF 6
ENDMDL
MODEL 5
REMARK VINA RESULT:      -6.5      4.804      6.499
REMARK  Name = 
REMARK  8 active torsions:
REMARK  status: ('A' for Active; 'I' for Inactive)
REMARK    1  A    between atoms: C_1  and  O_2
REMARK    2  A    between atoms: O_2  and  C_3
REMARK    3  A    between atoms: C_5  and  O_6
REMARK    4  A    between atoms: O_6  and  C_7
REMARK    5  A    between atoms: C_8  and  N_9
REMARK    6  A    between atoms: C_10  and  S_11
REMARK    7  A    between atoms: N_12  and  C_13
REMARK    8  A    between atoms: C_13  and  C_14
REMARK                            x       y       z     vdW  Elec       q    Type
REMARK                         _______ _______ _______ _____ _____    ______ ____
ROOT
ATOM      1  N   UNL     1       5.394   6.982  17.463  0.00  0.00    +0.000 N 
ATOM      2  C   UNL     1       6.707   7.229  17.760  0.00  0.00    +0.000 C 
ATOM      3  N   UNL     1       7.166   8.384  17.369  0.00  0.00    +0.000 NA
ATOM      4  H   UNL     1       4.978   7.817  17.066  0.00  0.00    +0.000 HD
ENDROOT
BRANCH   1   8
ATOM      5  C   UNL     1       2.503   3.930  18.150  0.00  0.00    +0.000 A 
ATOM      6  C   UNL     1       3.356   3.818  17.051  0.00  0.00    +0.000 A 
ATOM      7  C   UNL     1       4.335   4.791  16.761  0.00  0.00    +0.000 A 
ATOM      8  C   UNL     1       4.473   5.919  17.596  0.00  0.00    +0.000 A 
ATOM      9  C   UNL     1       3.599   6.015  18.703  0.00  0.00    +0.000 A 
ATOM     10  C   UNL     1       2.623   5.048  18.970  0.00  0.00    +0.000 A 
ATOM     11 CL   UNL     1       1.594   5.280  20.339  0.00  0.00    +0.000 Cl
BRANCH   5  13
ATOM     12  C   UNL     1       1.882   1.898  19.212  0.00  0.00    +0.000 C 
ATOM     13  O   UNL     1       1.509   3.027  18.426  0.00  0.00    +0.000 OA
ENDBRANCH   5  13
BRANCH   7  14
ATOM     14  O   UNL     1       5.124   4.709  15.643  0.00  0.00    +0.000 OA
ATOM     15  C   UNL     1       6.341   3.968  15.729  0.00  0.00    +0.000 C 
ENDBRANCH   7  14
ENDBRANCH   1   8
BRANCH   2  16
ATOM     16  S   UNL     1       7.660   6.104  18.707  0.00  0.00    +0.000 S 
ATOM     17  H   UNL     1       8.757   6.194  17.950  0.00  0.00    +0.000 HD
ENDBRANCH   2  16
BRANCH   3  18
ATOM     18  C   UNL     1       8.563   8.728  17.648  0.00  0.00    +0.000 C 
BRANCH  18  19
ATOM     19  C   UNL     1       8.779  10.042  18.371  0.00  0.00    +0.000 A 
ATOM     20  C   UNL     1       9.324  10.111  19.665  0.00  0.00    +0.000 A 
ATOM     21  C   UNL     1       9.618  11.350  20.242  0.00  0.00    +0.000 A 
ATOM     22  C   UNL     1       9.378  12.531  19.540  0.00  0.00    +0.000 A 
ATOM     23  C   UNL     1       8.843  12.475  18.258  0.00  0.00    +0.000 A 
ATOM     24  C   UNL     1       8.549  11.241  17.679  0.00  0.00    +0.000 A 
ENDBRANCH  18  19
ENDBRANCH   3  18
TORSDOF 6
ENDMDL
MODEL 6
REMARK VINA RESULT:      -6.4      5.399      7.142
REMARK  Name = 
REMARK  8 active torsions:
REMARK  status: ('A' for Active; 'I' for Inactive)
REMARK    1  A    between atoms: C_1  and  O_2
REMARK    2  A    between atoms: O_2  and  C_3
REMARK    3  A    between atoms: C_5  and  O_6
REMARK    4  A    between atoms: O_6  and  C_7
REMARK    5  A    between atoms: C_8  and  N_9
REMARK    6  A    between atoms: C_10  and  S_11
REMARK    7  A    between atoms: N_12  and  C_13
REMARK    8  A    between atoms: C_13  and  C_14
REMARK                            x       y       z     vdW  Elec       q    Type
REMARK                         _______ _______ _______ _____ _____    ______ ____
ROOT
ATOM      1  N   UNL     1       6.262   7.515  17.190  0.00  0.00    +0.000 N 
ATOM      2  C   UNL     1       7.406   7.883  17.844  0.00  0.00    +0.000 C 
ATOM      3  N   UNL     1       7.806   9.105  17.641  0.00  0.00    +0.000 NA
ATOM      4  H   UNL     1       5.866   8.326  16.727  0.00  0.00    +0.000 HD
ENDROOT
BRANCH   1   8
ATOM      5  C   UNL     1       3.702   4.119  16.943  0.00  0.00    +0.000 A 
ATOM      6  C   UNL     1       4.802   4.201  16.088  0.00  0.00    +0.000 A 
ATOM      7  C   UNL     1       5.690   5.296  16.112  0.00  0.00    +0.000 A 
ATOM      8  C   UNL     1       5.479   6.352  17.023  0.00  0.00    +0.000 A 
ATOM      9  C   UNL     1       4.359   6.251  17.881  0.00  0.00    +0.000 A 
ATOM     10  C   UNL     1       3.479   5.164  17.835  0.00  0.00    +0.000 A 
ATOM     11 CL   UNL     1       2.130   5.159  18.915  0.00  0.00    +0.000 Cl
BRANCH   5  13
ATOM     12  C   UNL     1       3.031   2.008  17.801  0.00  0.00    +0.000 C 
ATOM     13  O   UNL     1       2.794   3.093  16.906  0.00  0.00    +0.000 OA
ENDBRANCH   5  13
BRANCH   7  14
ATOM     14  O   UNL     1       6.729   5.402  15.223  0.00  0.00    +0.000 OA
ATOM     15  C   UNL     1       6.752   4.517  14.104  0.00  0.00    +0.000 C 
ENDBRANCH   7  14
ENDBRANCH   1   8
BRANCH   2  16
ATOM     16  S   UNL     1       8.204   6.802  18.972  0.00  0.00    +0.000 S 
ATOM     17  H   UNL     1       7.082   6.243  19.430  0.00  0.00    +0.000 HD
ENDBRANCH   2  16
BRANCH   3  18
ATOM     18  C   UNL     1       9.023   9.579  18.306  0.00  0.00    +0.000 C 
BRANCH  18  19
ATOM     19  C   UNL     1       9.435  10.999  17.976  0.00  0.00    +0.000 A 
ATOM     20  C   UNL     1       8.507  12.052  17.885  0.00  0.00    +0.000 A 
ATOM     21  C   UNL     1       8.946  13.367  17.701  0.00  0.00    +0.000 A 
ATOM     22  C   UNL     1      10.309  13.649  17.609  0.00  0.00    +0.000 A 
ATOM     23  C   UNL     1      11.236  12.617  17.700  0.00  0.00    +0.000 A 
ATOM     24  C   UNL     1      10.800  11.305  17.886  0.00  0.00    +0.000 A 
ENDBRANCH  18  19
ENDBRANCH   3  18
TORSDOF 6
ENDMDL
MODEL 7
REMARK VINA RESULT:      -6.4      4.752      6.552
REMARK  Name = 
REMARK  8 active torsions:
REMARK  status: ('A' for Active; 'I' for Inactive)
REMARK    1  A    between atoms: C_1  and  O_2
REMARK    2  A    between atoms: O_2  and  C_3
REMARK    3  A    between atoms: C_5  and  O_6
REMARK    4  A    between atoms: O_6  and  C_7
REMARK    5  A    between atoms: C_8  and  N_9
REMARK    6  A    between atoms: C_10  and  S_11
REMARK    7  A    between atoms: N_12  and  C_13
REMARK    8  A    between atoms: C_13  and  C_14
REMARK                            x       y       z     vdW  Elec       q    Type
REMARK                         _______ _______ _______ _____ _____    ______ ____
ROOT
ATOM      1  N   UNL     1       1.485   9.651  18.780  0.00  0.00    +0.000 N 
ATOM      2  C   UNL     1       1.615   8.613  19.661  0.00  0.00    +0.000 C 
ATOM      3  N   UNL     1       2.236   7.562  19.208  0.00  0.00    +0.000 NA
ATOM      4  H   UNL     1       2.004   9.440  17.935  0.00  0.00    +0.000 HD
ENDROOT
BRANCH   1   8
ATOM      5  C   UNL     1      -0.039  13.628  18.676  0.00  0.00    +0.000 A 
ATOM      6  C   UNL     1      -0.937  12.560  18.718  0.00  0.00    +0.000 A 
ATOM      7  C   UNL     1      -0.504  11.219  18.752  0.00  0.00    +0.000 A 
ATOM      8  C   UNL     1       0.875  10.925  18.745  0.00  0.00    +0.000 A 
ATOM      9  C   UNL     1       1.769  12.020  18.701  0.00  0.00    +0.000 A 
ATOM     10  C   UNL     1       1.323  13.346  18.653  0.00  0.00    +0.000 A 
ATOM     11 CL   UNL     1       2.506  14.604  18.578  0.00  0.00    +0.000 Cl
BRANCH   5  13
ATOM     12  C   UNL     1      -0.824  15.561  19.811  0.00  0.00    +0.000 C 
ATOM     13  O   UNL     1      -0.432  14.939  18.590  0.00  0.00    +0.000 OA
ENDBRANCH   5  13
BRANCH   7  14
ATOM     14  O   UNL     1      -1.392  10.174  18.726  0.00  0.00    +0.000 OA
ATOM     15  C   UNL     1      -2.378  10.151  17.694  0.00  0.00    +0.000 C 
ENDBRANCH   7  14
ENDBRANCH   1   8
BRANCH   2  16
ATOM     16  S   UNL     1       1.080   8.751  21.325  0.00  0.00    +0.000 S 
ATOM     17  H   UNL     1       2.304   8.879  21.844  0.00  0.00    +0.000 HD
ENDBRANCH   2  16
BRANCH   3  18
ATOM     18  C   UNL     1       2.418   6.405  20.089  0.00  0.00    +0.000 C 
BRANCH  18  19
ATOM     19  C   UNL     1       1.858   5.096  19.571  0.00  0.00    +0.000 A 
ATOM     20  C   UNL     1       2.011   4.686  18.234  0.00  0.00    +0.000 A 
ATOM     21  C   UNL     1       1.586   3.416  17.832  0.00  0.00    +0.000 A 
ATOM     22  C   UNL     1       1.008   2.542  18.752  0.00  0.00    +0.000 A 
ATOM     23  C   UNL     1       0.854   2.934  20.077  0.00  0.00    +0.000 A 
ATOM     24  C   UNL     1       1.279   4.200  20.481  0.00  0.00    +0.000 A 
ENDBRANCH  18  19
ENDBRANCH   3  18
TORSDOF 6
ENDMDL
MODEL 8
REMARK VINA RESULT:      -6.4      4.799      6.633
REMARK  Name = 
REMARK  8 active torsions:
REMARK  status: ('A' for Active; 'I' for Inactive)
REMARK    1  A    between atoms: C_1  and  O_2
REMARK    2  A    between atoms: O_2  and  C_3
REMARK    3  A    between atoms: C_5  and  O_6
REMARK    4  A    between atoms: O_6  and  C_7
REMARK    5  A    between atoms: C_8  and  N_9
REMARK    6  A    between atoms: C_10  and  S_11
REMARK    7  A    between atoms: N_12  and  C_13
REMARK    8  A    between atoms: C_13  and  C_14
REMARK                            x       y       z     vdW  Elec       q    Type
REMARK                         _______ _______ _______ _____ _____    ______ ____
ROOT
ATOM      1  N   UNL     1       1.356   9.670  18.909  0.00  0.00    +0.000 N 
ATOM      2  C   UNL     1       1.438   8.677  19.847  0.00  0.00    +0.000 C 
ATOM      3  N   UNL     1       2.002   7.572  19.452  0.00  0.00    +0.000 NA
ATOM      4  H   UNL     1       1.859   9.386  18.077  0.00  0.00    +0.000 HD
ENDROOT
BRANCH   1   8
ATOM      5  C   UNL     1       0.033  13.708  18.606  0.00  0.00    +0.000 A 
ATOM      6  C   UNL     1      -0.917  12.686  18.639  0.00  0.00    +0.000 A 
ATOM      7  C   UNL     1      -0.552  11.328  18.736  0.00  0.00    +0.000 A 
ATOM      8  C   UNL     1       0.811  10.969  18.804  0.00  0.00    +0.000 A 
ATOM      9  C   UNL     1       1.758  12.019  18.768  0.00  0.00    +0.000 A 
ATOM     10  C   UNL     1       1.380  13.362  18.657  0.00  0.00    +0.000 A 
ATOM     11 CL   UNL     1       2.625  14.559  18.599  0.00  0.00    +0.000 Cl
BRANCH   5  13
ATOM     12  C   UNL     1      -0.712  15.713  19.639  0.00  0.00    +0.000 C 
ATOM     13  O   UNL     1      -0.291  15.033  18.460  0.00  0.00    +0.000 OA
ENDBRANCH   5  13
BRANCH   7  14
ATOM     14  O   UNL     1      -1.487  10.325  18.701  0.00  0.00    +0.000 OA
ATOM     15  C   UNL     1      -2.154  10.068  17.466  0.00  0.00    +0.000 C 
ENDBRANCH   7  14
ENDBRANCH   1   8
BRANCH   2  16
ATOM     16  S   UNL     1       0.918   8.934  21.502  0.00  0.00    +0.000 S 
ATOM     17  H   UNL     1      -0.310   9.357  21.187  0.00  0.00    +0.000 HD
ENDBRANCH   2  16
BRANCH   3  18
ATOM     18  C   UNL     1       2.130   6.458  20.396  0.00  0.00    +0.000 C 
BRANCH  18  19
ATOM     19  C   UNL     1       1.867   5.082  19.820  0.00  0.00    +0.000 A 
ATOM     20  C   UNL     1       1.303   4.041  20.580  0.00  0.00    +0.000 A 
ATOM     21  C   UNL     1       0.964   2.828  19.973  0.00  0.00    +0.000 A 
ATOM     22  C   UNL     1       1.179   2.637  18.608  0.00  0.00    +0.000 A 
ATOM     23  C   UNL     1       1.733   3.660  17.846  0.00  0.00    +0.000 A 
ATOM     24  C   UNL     1       2.070   4.872  18.449  0.00  0.00    +0.000 A 
ENDBRANCH  18  19
ENDBRANCH   3  18
TORSDOF 6
ENDMDL
MODEL 9
REMARK VINA RESULT:      -6.4      3.677      8.096
REMARK  Name = 
REMARK  8 active torsions:
REMARK  status: ('A' for Active; 'I' for Inactive)
REMARK    1  A    between atoms: C_1  and  O_2
REMARK    2  A    between atoms: O_2  and  C_3
REMARK    3  A    between atoms: C_5  and  O_6
REMARK    4  A    between atoms: O_6  and  C_7
REMARK    5  A    between atoms: C_8  and  N_9
REMARK    6  A    between atoms: C_10  and  S_11
REMARK    7  A    between atoms: N_12  and  C_13
REMARK    8  A    between atoms: C_13  and  C_14
REMARK                            x       y       z     vdW  Elec       q    Type
REMARK                         _______ _______ _______ _____ _____    ______ ____
ROOT
ATOM      1  N   UNL     1       2.321   7.381  18.145  0.00  0.00    +0.000 N 
ATOM      2  C   UNL     1       1.779   8.438  18.823  0.00  0.00    +0.000 C 
ATOM      3  N   UNL     1       1.437   9.462  18.094  0.00  0.00    +0.000 NA
ATOM      4  H   UNL     1       2.261   7.557  17.148  0.00  0.00    +0.000 HD
ENDROOT
BRANCH   1   8
ATOM      5  C   UNL     1       3.727   3.500  19.200  0.00  0.00    +0.000 A 
ATOM      6  C   UNL     1       4.597   4.384  18.560  0.00  0.00    +0.000 A 
ATOM      7  C   UNL     1       4.199   5.682  18.179  0.00  0.00    +0.000 A 
ATOM      8  C   UNL     1       2.886   6.122  18.446  0.00  0.00    +0.000 A 
ATOM      9  C   UNL     1       2.020   5.212  19.095  0.00  0.00    +0.000 A 
ATOM     10  C   UNL     1       2.425   3.921  19.453  0.00  0.00    +0.000 A 
ATOM     11 CL   UNL     1       1.273   2.886  20.220  0.00  0.00    +0.000 Cl
BRANCH   5  13
ATOM     12  C   UNL     1       3.826   1.219  18.544  0.00  0.00    +0.000 C 
ATOM     13  O   UNL     1       4.070   2.216  19.534  0.00  0.00    +0.000 OA
ENDBRANCH   5  13
BRANCH   7  14
ATOM     14  O   UNL     1       5.039   6.521  17.491  0.00  0.00    +0.000 OA
ATOM     15  C   UNL     1       5.221   6.296  16.094  0.00  0.00    +0.000 C 
ENDBRANCH   7  14
ENDBRANCH   1   8
BRANCH   2  16
ATOM     16  S   UNL     1       1.464   8.358  20.546  0.00  0.00    +0.000 S 
ATOM     17  H   UNL     1       2.720   8.062  20.893  0.00  0.00    +0.000 HD
ENDBRANCH   2  16
BRANCH   3  18
ATOM     18  C   UNL     1       0.849  10.637  18.743  0.00  0.00    +0.000 C 
BRANCH  18  19
ATOM     19  C   UNL     1      -0.651  10.786  18.585  0.00  0.00    +0.000 A 
ATOM     20  C   UNL     1      -1.394  11.740  19.304  0.00  0.00    +0.000 A 
ATOM     21  C   UNL     1      -2.754  11.924  19.034  0.00  0.00    +0.000 A 
ATOM     22  C   UNL     1      -3.387  11.166  18.050  0.00  0.00    +0.000 A 
ATOM     23  C   UNL     1      -2.662  10.222  17.331  0.00  0.00    +0.000 A 
ATOM     24  C   UNL     1      -1.305  10.038  17.596  0.00  0.00    +0.000 A 
ENDBRANCH  18  19
ENDBRANCH   3  18
TORSDOF 6
ENDMDL
