MODEL 1
REMARK VINA RESULT:      -7.4      0.000      0.000
REMARK  Name = 
REMARK  11 active torsions:
REMARK  status: ('A' for Active; 'I' for Inactive)
REMARK    1  A    between atoms: C_1  and  C_2
REMARK    2  A    between atoms: C_2  and  N_3
REMARK    3  A    between atoms: N_3  and  C_4
REMARK    4  A    between atoms: N_3  and  C_6
REMARK    5  A    between atoms: C_4  and  C_5
REMARK    6  A    between atoms: C_6  and  C_7
REMARK    7  A    between atoms: C_6  and  C_20
REMARK    8  A    between atoms: C_7  and  N_8
REMARK    9  A    between atoms: C_9  and  C_11
REMARK   10  A    between atoms: C_11  and  N_12
REMARK   11  A    between atoms: C_13  and  C_15
REMARK                            x       y       z     vdW  Elec       q    Type
REMARK                         _______ _______ _______ _____ _____    ______ ____
ROOT
ATOM      1  N   UNL     1       5.273   5.671  18.321  0.00  0.00    +0.000 N 
ATOM      2  C   UNL     1       6.578   5.653  18.770  0.00  0.00    +0.000 C 
ATOM      3  O   UNL     1       6.893   5.321  19.912  0.00  0.00    +0.000 OA
ATOM      4  H   UNL     1       5.106   5.617  17.317  0.00  0.00    +0.000 HD
ENDROOT
BRANCH   1   5
ATOM      5  C   UNL     1       4.166   5.430  19.240  0.00  0.00    +0.000 C 
BRANCH   5   6
ATOM      6  C   UNL     1       2.725   5.603  18.653  0.00  0.00    +0.000 C 
BRANCH   6   7
ATOM      7  C   UNL     1       1.875   4.447  19.124  0.00  0.00    +0.000 A 
ATOM      8  C   UNL     1       1.318   4.089  20.337  0.00  0.00    +0.000 A 
ATOM      9  C   UNL     1       0.612   2.881  20.115  0.00  0.00    +0.000 A 
ATOM     10  C   UNL     1       0.776   2.581  18.784  0.00  0.00    +0.000 A 
ATOM     11  O   UNL     1       1.542   3.522  18.174  0.00  0.00    +0.000 OA
ENDBRANCH   6   7
BRANCH   6  12
ATOM     12  N   UNL     1       2.083   6.934  18.914  0.00  0.00    +0.000 NA
BRANCH  12  14
ATOM     13  C   UNL     1       1.073   7.851  21.061  0.00  0.00    +0.000 C 
ATOM     14  C   UNL     1       2.311   7.362  20.312  0.00  0.00    +0.000 C 
ENDBRANCH  12  14
BRANCH  12  15
ATOM     15  C   UNL     1       2.498   7.971  17.938  0.00  0.00    +0.000 C 
ATOM     16  C   UNL     1       1.615   9.213  17.813  0.00  0.00    +0.000 C 
ENDBRANCH  12  15
ENDBRANCH   6  12
ENDBRANCH   5   6
ENDBRANCH   1   5
BRANCH   2  17
ATOM     17  C   UNL     1       7.628   6.040  17.725  0.00  0.00    +0.000 C 
BRANCH  17  18
ATOM     18  N   UNL     1       7.606   5.154  16.578  0.00  0.00    +0.000 N 
ATOM     19  C   UNL     1       6.748   5.384  15.531  0.00  0.00    +0.000 C 
ATOM     20  O   UNL     1       5.987   6.351  15.515  0.00  0.00    +0.000 OA
ATOM     21  H   UNL     1       8.167   4.312  16.606  0.00  0.00    +0.000 HD
BRANCH  19  22
ATOM     22  C   UNL     1       6.840   4.361  14.407  0.00  0.00    +0.000 C 
ATOM     23  C   UNL     1       5.467   3.981  13.866  0.00  0.00    +0.000 C 
ATOM     24  C   UNL     1       5.754   3.402  12.487  0.00  0.00    +0.000 C 
ATOM     25  C   UNL     1       7.032   4.078  12.003  0.00  0.00    +0.000 C 
ATOM     26  C   UNL     1       7.560   4.900  13.172  0.00  0.00    +0.000 C 
ENDBRANCH  19  22
ENDBRANCH  17  18
ENDBRANCH   2  17
TORSDOF 9
ENDMDL
MODEL 2
REMARK VINA RESULT:      -7.4      1.492      3.422
REMARK  Name = 
REMARK  11 active torsions:
REMARK  status: ('A' for Active; 'I' for Inactive)
REMARK    1  A    between atoms: C_1  and  C_2
REMARK    2  A    between atoms: C_2  and  N_3
REMARK    3  A    between atoms: N_3  and  C_4
REMARK    4  A    between atoms: N_3  and  C_6
REMARK    5  A    between atoms: C_4  and  C_5
REMARK    6  A    between atoms: C_6  and  C_7
REMARK    7  A    between atoms: C_6  and  C_20
REMARK    8  A    between atoms: C_7  and  N_8
REMARK    9  A    between atoms: C_9  and  C_11
REMARK   10  A    between atoms: C_11  and  N_12
REMARK   11  A    between atoms: C_13  and  C_15
REMARK                            x       y       z     vdW  Elec       q    Type
REMARK                         _______ _______ _______ _____ _____    ______ ____
ROOT
ATOM      1  N   UNL     1       5.430   5.849  18.661  0.00  0.00    +0.000 N 
ATOM      2  C   UNL     1       6.808   5.895  18.714  0.00  0.00    +0.000 C 
ATOM      3  O   UNL     1       7.471   5.271  19.541  0.00  0.00    +0.000 OA
ATOM      4  H   UNL     1       4.971   6.092  17.784  0.00  0.00    +0.000 HD
ENDROOT
BRANCH   1   5
ATOM      5  C   UNL     1       4.667   5.156  19.694  0.00  0.00    +0.000 C 
BRANCH   5   6
ATOM      6  C   UNL     1       3.110   5.165  19.534  0.00  0.00    +0.000 C 
BRANCH   6   7
ATOM      7  C   UNL     1       2.678   6.558  19.141  0.00  0.00    +0.000 A 
ATOM      8  C   UNL     1       2.039   7.592  19.796  0.00  0.00    +0.000 A 
ATOM      9  C   UNL     1       1.933   8.655  18.866  0.00  0.00    +0.000 A 
ATOM     10  C   UNL     1       2.517   8.207  17.706  0.00  0.00    +0.000 A 
ATOM     11  O   UNL     1       2.969   6.936  17.859  0.00  0.00    +0.000 OA
ENDBRANCH   6   7
BRANCH   6  12
ATOM     12  N   UNL     1       2.553   4.111  18.623  0.00  0.00    +0.000 NA
BRANCH  12  14
ATOM     13  C   UNL     1       2.971   1.711  17.889  0.00  0.00    +0.000 C 
ATOM     14  C   UNL     1       3.540   3.030  18.406  0.00  0.00    +0.000 C 
ENDBRANCH  12  14
BRANCH  12  15
ATOM     15  C   UNL     1       1.245   3.587  19.085  0.00  0.00    +0.000 C 
ATOM     16  C   UNL     1       1.013   3.504  20.594  0.00  0.00    +0.000 C 
ENDBRANCH  12  15
ENDBRANCH   6  12
ENDBRANCH   5   6
ENDBRANCH   1   5
BRANCH   2  17
ATOM     17  C   UNL     1       7.469   6.756  17.635  0.00  0.00    +0.000 C 
BRANCH  17  18
ATOM     18  N   UNL     1       6.972   6.444  16.310  0.00  0.00    +0.000 N 
ATOM     19  C   UNL     1       7.226   5.222  15.736  0.00  0.00    +0.000 C 
ATOM     20  O   UNL     1       7.861   4.347  16.323  0.00  0.00    +0.000 OA
ATOM     21  H   UNL     1       6.516   7.174  15.779  0.00  0.00    +0.000 HD
BRANCH  19  22
ATOM     22  C   UNL     1       6.644   5.051  14.339  0.00  0.00    +0.000 C 
ATOM     23  C   UNL     1       7.721   5.094  13.261  0.00  0.00    +0.000 C 
ATOM     24  C   UNL     1       7.078   4.414  12.060  0.00  0.00    +0.000 C 
ATOM     25  C   UNL     1       6.059   3.431  12.626  0.00  0.00    +0.000 C 
ATOM     26  C   UNL     1       6.001   3.681  14.128  0.00  0.00    +0.000 C 
ENDBRANCH  19  22
ENDBRANCH  17  18
ENDBRANCH   2  17
TORSDOF 9
ENDMDL
MODEL 3
REMARK VINA RESULT:      -7.2      1.283      2.928
REMARK  Name = 
REMARK  11 active torsions:
REMARK  status: ('A' for Active; 'I' for Inactive)
REMARK    1  A    between atoms: C_1  and  C_2
REMARK    2  A    between atoms: C_2  and  N_3
REMARK    3  A    between atoms: N_3  and  C_4
REMARK    4  A    between atoms: N_3  and  C_6
REMARK    5  A    between atoms: C_4  and  C_5
REMARK    6  A    between atoms: C_6  and  C_7
REMARK    7  A    between atoms: C_6  and  C_20
REMARK    8  A    between atoms: C_7  and  N_8
REMARK    9  A    between atoms: C_9  and  C_11
REMARK   10  A    between atoms: C_11  and  N_12
REMARK   11  A    between atoms: C_13  and  C_15
REMARK                            x       y       z     vdW  Elec       q    Type
REMARK                         _______ _______ _______ _____ _____    ______ ____
ROOT
ATOM      1  N   UNL     1       5.333   5.537  18.653  0.00  0.00    +0.000 N 
ATOM      2  C   UNL     1       6.703   5.697  18.643  0.00  0.00    +0.000 C 
ATOM      3  O   UNL     1       7.434   5.303  19.550  0.00  0.00    +0.000 OA
ATOM      4  H   UNL     1       4.836   5.564  17.764  0.00  0.00    +0.000 HD
ENDROOT
BRANCH   1   5
ATOM      5  C   UNL     1       4.653   5.008  19.831  0.00  0.00    +0.000 C 
BRANCH   5   6
ATOM      6  C   UNL     1       3.102   5.212  19.889  0.00  0.00    +0.000 C 
BRANCH   6   7
ATOM      7  C   UNL     1       2.766   6.526  19.226  0.00  0.00    +0.000 A 
ATOM      8  C   UNL     1       2.001   7.620  19.580  0.00  0.00    +0.000 A 
ATOM      9  C   UNL     1       2.101   8.545  18.513  0.00  0.00    +0.000 A 
ATOM     10  C   UNL     1       2.922   7.963  17.578  0.00  0.00    +0.000 A 
ATOM     11  O   UNL     1       3.329   6.738  17.997  0.00  0.00    +0.000 OA
ENDBRANCH   6   7
BRANCH   6  12
ATOM     12  N   UNL     1       2.286   4.072  19.355  0.00  0.00    +0.000 NA
BRANCH  12  14
ATOM     13  C   UNL     1       1.240   2.847  21.324  0.00  0.00    +0.000 C 
ATOM     14  C   UNL     1       1.082   3.853  20.186  0.00  0.00    +0.000 C 
ENDBRANCH  12  14
BRANCH  12  15
ATOM     15  C   UNL     1       1.951   4.230  17.919  0.00  0.00    +0.000 C 
ATOM     16  C   UNL     1       2.800   3.456  16.909  0.00  0.00    +0.000 C 
ENDBRANCH  12  15
ENDBRANCH   6  12
ENDBRANCH   5   6
ENDBRANCH   1   5
BRANCH   2  17
ATOM     17  C   UNL     1       7.267   6.373  17.390  0.00  0.00    +0.000 C 
BRANCH  17  18
ATOM     18  N   UNL     1       7.388   5.447  16.281  0.00  0.00    +0.000 N 
ATOM     19  C   UNL     1       6.400   5.361  15.330  0.00  0.00    +0.000 C 
ATOM     20  O   UNL     1       5.396   6.070  15.369  0.00  0.00    +0.000 OA
ATOM     21  H   UNL     1       8.166   4.801  16.271  0.00  0.00    +0.000 HD
BRANCH  19  22
ATOM     22  C   UNL     1       6.671   4.337  14.235  0.00  0.00    +0.000 C 
ATOM     23  C   UNL     1       5.386   3.857  13.571  0.00  0.00    +0.000 C 
ATOM     24  C   UNL     1       5.843   3.288  12.235  0.00  0.00    +0.000 C 
ATOM     25  C   UNL     1       7.113   4.048  11.865  0.00  0.00    +0.000 C 
ATOM     26  C   UNL     1       7.467   4.915  13.067  0.00  0.00    +0.000 C 
ENDBRANCH  19  22
ENDBRANCH  17  18
ENDBRANCH   2  17
TORSDOF 9
ENDMDL
MODEL 4
REMARK VINA RESULT:      -7.1      1.494      3.418
REMARK  Name = 
REMARK  11 active torsions:
REMARK  status: ('A' for Active; 'I' for Inactive)
REMARK    1  A    between atoms: C_1  and  C_2
REMARK    2  A    between atoms: C_2  and  N_3
REMARK    3  A    between atoms: N_3  and  C_4
REMARK    4  A    between atoms: N_3  and  C_6
REMARK    5  A    between atoms: C_4  and  C_5
REMARK    6  A    between atoms: C_6  and  C_7
REMARK    7  A    between atoms: C_6  and  C_20
REMARK    8  A    between atoms: C_7  and  N_8
REMARK    9  A    between atoms: C_9  and  C_11
REMARK   10  A    between atoms: C_11  and  N_12
REMARK   11  A    between atoms: C_13  and  C_15
REMARK                            x       y       z     vdW  Elec       q    Type
REMARK                         _______ _______ _______ _____ _____    ______ ____
ROOT
ATOM      1  N   UNL     1       5.427   5.408  18.474  0.00  0.00    +0.000 N 
ATOM      2  C   UNL     1       6.749   5.802  18.528  0.00  0.00    +0.000 C 
ATOM      3  O   UNL     1       7.475   5.587  19.497  0.00  0.00    +0.000 OA
ATOM      4  H   UNL     1       4.991   5.303  17.559  0.00  0.00    +0.000 HD
ENDROOT
BRANCH   1   5
ATOM      5  C   UNL     1       4.772   4.832  19.643  0.00  0.00    +0.000 C 
BRANCH   5   6
ATOM      6  C   UNL     1       3.253   5.166  19.826  0.00  0.00    +0.000 C 
BRANCH   6   7
ATOM      7  C   UNL     1       2.952   6.445  19.081  0.00  0.00    +0.000 A 
ATOM      8  C   UNL     1       3.295   6.943  17.839  0.00  0.00    +0.000 A 
ATOM      9  C   UNL     1       2.678   8.213  17.730  0.00  0.00    +0.000 A 
ATOM     10  C   UNL     1       1.995   8.408  18.905  0.00  0.00    +0.000 A 
ATOM     11  O   UNL     1       2.156   7.345  19.734  0.00  0.00    +0.000 OA
ENDBRANCH   6   7
BRANCH   6  12
ATOM     12  N   UNL     1       2.307   4.057  19.473  0.00  0.00    +0.000 NA
BRANCH  12  14
ATOM     13  C   UNL     1       2.810   2.242  17.764  0.00  0.00    +0.000 C 
ATOM     14  C   UNL     1       2.432   3.694  18.044  0.00  0.00    +0.000 C 
ENDBRANCH  12  14
BRANCH  12  15
ATOM     15  C   UNL     1       2.447   2.879  20.362  0.00  0.00    +0.000 C 
ATOM     16  C   UNL     1       1.458   2.751  21.522  0.00  0.00    +0.000 C 
ENDBRANCH  12  15
ENDBRANCH   6  12
ENDBRANCH   5   6
ENDBRANCH   1   5
BRANCH   2  17
ATOM     17  C   UNL     1       7.270   6.498  17.269  0.00  0.00    +0.000 C 
BRANCH  17  18
ATOM     18  N   UNL     1       7.440   5.573  16.167  0.00  0.00    +0.000 N 
ATOM     19  C   UNL     1       6.463   5.434  15.210  0.00  0.00    +0.000 C 
ATOM     20  O   UNL     1       5.426   6.096  15.240  0.00  0.00    +0.000 OA
ATOM     21  H   UNL     1       8.248   4.964  16.165  0.00  0.00    +0.000 HD
BRANCH  19  22
ATOM     22  C   UNL     1       6.788   4.418  14.124  0.00  0.00    +0.000 C 
ATOM     23  C   UNL     1       5.529   3.834  13.492  0.00  0.00    +0.000 C 
ATOM     24  C   UNL     1       6.002   3.282  12.154  0.00  0.00    +0.000 C 
ATOM     25  C   UNL     1       7.204   4.128  11.749  0.00  0.00    +0.000 C 
ATOM     26  C   UNL     1       7.516   5.036  12.932  0.00  0.00    +0.000 C 
ENDBRANCH  19  22
ENDBRANCH  17  18
ENDBRANCH   2  17
TORSDOF 9
ENDMDL
MODEL 5
REMARK VINA RESULT:      -7.0      1.406      2.316
REMARK  Name = 
REMARK  11 active torsions:
REMARK  status: ('A' for Active; 'I' for Inactive)
REMARK    1  A    between atoms: C_1  and  C_2
REMARK    2  A    between atoms: C_2  and  N_3
REMARK    3  A    between atoms: N_3  and  C_4
REMARK    4  A    between atoms: N_3  and  C_6
REMARK    5  A    between atoms: C_4  and  C_5
REMARK    6  A    between atoms: C_6  and  C_7
REMARK    7  A    between atoms: C_6  and  C_20
REMARK    8  A    between atoms: C_7  and  N_8
REMARK    9  A    between atoms: C_9  and  C_11
REMARK   10  A    between atoms: C_11  and  N_12
REMARK   11  A    between atoms: C_13  and  C_15
REMARK                            x       y       z     vdW  Elec       q    Type
REMARK                         _______ _______ _______ _____ _____    ______ ____
ROOT
ATOM      1  N   UNL     1       5.259   5.947  18.459  0.00  0.00    +0.000 N 
ATOM      2  C   UNL     1       6.628   5.772  18.460  0.00  0.00    +0.000 C 
ATOM      3  O   UNL     1       7.231   5.191  19.360  0.00  0.00    +0.000 OA
ATOM      4  H   UNL     1       4.793   6.115  17.568  0.00  0.00    +0.000 HD
ENDROOT
BRANCH   1   5
ATOM      5  C   UNL     1       4.458   5.568  19.618  0.00  0.00    +0.000 C 
BRANCH   5   6
ATOM      6  C   UNL     1       2.955   5.227  19.345  0.00  0.00    +0.000 C 
BRANCH   6   7
ATOM      7  C   UNL     1       2.889   3.913  18.606  0.00  0.00    +0.000 A 
ATOM      8  C   UNL     1       2.094   3.412  17.592  0.00  0.00    +0.000 A 
ATOM      9  C   UNL     1       2.551   2.097  17.333  0.00  0.00    +0.000 A 
ATOM     10  C   UNL     1       3.596   1.878  18.197  0.00  0.00    +0.000 A 
ATOM     11  O   UNL     1       3.808   2.970  18.976  0.00  0.00    +0.000 OA
ENDBRANCH   6   7
BRANCH   6  12
ATOM     12  N   UNL     1       2.062   5.255  20.551  0.00  0.00    +0.000 NA
BRANCH  12  14
ATOM     13  C   UNL     1       1.625   7.696  21.118  0.00  0.00    +0.000 C 
ATOM     14  C   UNL     1       1.126   6.399  20.485  0.00  0.00    +0.000 C 
ENDBRANCH  12  14
BRANCH  12  15
ATOM     15  C   UNL     1       1.357   3.970  20.772  0.00  0.00    +0.000 C 
ATOM     16  C   UNL     1       1.905   3.044  21.859  0.00  0.00    +0.000 C 
ENDBRANCH  12  15
ENDBRANCH   6  12
ENDBRANCH   5   6
ENDBRANCH   1   5
BRANCH   2  17
ATOM     17  C   UNL     1       7.352   6.323  17.229  0.00  0.00    +0.000 C 
BRANCH  17  18
ATOM     18  N   UNL     1       7.404   5.355  16.151  0.00  0.00    +0.000 N 
ATOM     19  C   UNL     1       6.435   5.337  15.178  0.00  0.00    +0.000 C 
ATOM     20  O   UNL     1       5.505   6.143  15.171  0.00  0.00    +0.000 OA
ATOM     21  H   UNL     1       8.115   4.635  16.180  0.00  0.00    +0.000 HD
BRANCH  19  22
ATOM     22  C   UNL     1       6.626   4.257  14.121  0.00  0.00    +0.000 C 
ATOM     23  C   UNL     1       5.303   3.823  13.501  0.00  0.00    +0.000 C 
ATOM     24  C   UNL     1       5.701   3.177  12.181  0.00  0.00    +0.000 C 
ATOM     25  C   UNL     1       7.002   3.851  11.757  0.00  0.00    +0.000 C 
ATOM     26  C   UNL     1       7.428   4.743  12.916  0.00  0.00    +0.000 C 
ENDBRANCH  19  22
ENDBRANCH  17  18
ENDBRANCH   2  17
TORSDOF 9
ENDMDL
MODEL 6
REMARK VINA RESULT:      -7.0      1.784      2.962
REMARK  Name = 
REMARK  11 active torsions:
REMARK  status: ('A' for Active; 'I' for Inactive)
REMARK    1  A    between atoms: C_1  and  C_2
REMARK    2  A    between atoms: C_2  and  N_3
REMARK    3  A    between atoms: N_3  and  C_4
REMARK    4  A    between atoms: N_3  and  C_6
REMARK    5  A    between atoms: C_4  and  C_5
REMARK    6  A    between atoms: C_6  and  C_7
REMARK    7  A    between atoms: C_6  and  C_20
REMARK    8  A    between atoms: C_7  and  N_8
REMARK    9  A    between atoms: C_9  and  C_11
REMARK   10  A    between atoms: C_11  and  N_12
REMARK   11  A    between atoms: C_13  and  C_15
REMARK                            x       y       z     vdW  Elec       q    Type
REMARK                         _______ _______ _______ _____ _____    ______ ____
ROOT
ATOM      1  N   UNL     1       5.284   5.610  17.371  0.00  0.00    +0.000 N 
ATOM      2  C   UNL     1       5.757   5.760  16.083  0.00  0.00    +0.000 C 
ATOM      3  O   UNL     1       5.366   6.642  15.321  0.00  0.00    +0.000 OA
ATOM      4  H   UNL     1       5.863   5.110  18.044  0.00  0.00    +0.000 HD
ENDROOT
BRANCH   1   5
ATOM      5  C   UNL     1       4.170   6.419  17.854  0.00  0.00    +0.000 C 
BRANCH   5   6
ATOM      6  C   UNL     1       2.941   5.638  18.429  0.00  0.00    +0.000 C 
BRANCH   6   7
ATOM      7  C   UNL     1       3.197   4.158  18.270  0.00  0.00    +0.000 A 
ATOM      8  C   UNL     1       2.666   3.167  17.468  0.00  0.00    +0.000 A 
ATOM      9  C   UNL     1       3.352   1.972  17.796  0.00  0.00    +0.000 A 
ATOM     10  C   UNL     1       4.259   2.308  18.771  0.00  0.00    +0.000 A 
ATOM     11  O   UNL     1       4.173   3.630  19.069  0.00  0.00    +0.000 OA
ENDBRANCH   6   7
BRANCH   6  12
ATOM     12  N   UNL     1       2.545   6.007  19.828  0.00  0.00    +0.000 NA
BRANCH  12  14
ATOM     13  C   UNL     1       1.237   7.798  21.074  0.00  0.00    +0.000 C 
ATOM     14  C   UNL     1       2.145   7.429  19.903  0.00  0.00    +0.000 C 
ENDBRANCH  12  14
BRANCH  12  15
ATOM     15  C   UNL     1       1.508   5.105  20.387  0.00  0.00    +0.000 C 
ATOM     16  C   UNL     1       1.962   4.054  21.401  0.00  0.00    +0.000 C 
ENDBRANCH  12  15
ENDBRANCH   6  12
ENDBRANCH   5   6
ENDBRANCH   1   5
BRANCH   2  17
ATOM     17  C   UNL     1       6.846   4.765  15.674  0.00  0.00    +0.000 C 
BRANCH  17  18
ATOM     18  N   UNL     1       6.536   4.105  14.422  0.00  0.00    +0.000 N 
ATOM     19  C   UNL     1       7.069   4.557  13.239  0.00  0.00    +0.000 C 
ATOM     20  O   UNL     1       7.837   5.518  13.198  0.00  0.00    +0.000 OA
ATOM     21  H   UNL     1       5.848   3.363  14.423  0.00  0.00    +0.000 HD
BRANCH  19  22
ATOM     22  C   UNL     1       6.641   3.763  12.012  0.00  0.00    +0.000 C 
ATOM     23  C   UNL     1       7.482   2.506  11.823  0.00  0.00    +0.000 C 
ATOM     24  C   UNL     1       6.629   1.615  10.930  0.00  0.00    +0.000 C 
ATOM     25  C   UNL     1       5.180   1.995  11.214  0.00  0.00    +0.000 C 
ATOM     26  C   UNL     1       5.221   3.212  12.129  0.00  0.00    +0.000 C 
ENDBRANCH  19  22
ENDBRANCH  17  18
ENDBRANCH   2  17
TORSDOF 9
ENDMDL
MODEL 7
REMARK VINA RESULT:      -7.0      3.441      7.722
REMARK  Name = 
REMARK  11 active torsions:
REMARK  status: ('A' for Active; 'I' for Inactive)
REMARK    1  A    between atoms: C_1  and  C_2
REMARK    2  A    between atoms: C_2  and  N_3
REMARK    3  A    between atoms: N_3  and  C_4
REMARK    4  A    between atoms: N_3  and  C_6
REMARK    5  A    between atoms: C_4  and  C_5
REMARK    6  A    between atoms: C_6  and  C_7
REMARK    7  A    between atoms: C_6  and  C_20
REMARK    8  A    between atoms: C_7  and  N_8
REMARK    9  A    between atoms: C_9  and  C_11
REMARK   10  A    between atoms: C_11  and  N_12
REMARK   11  A    between atoms: C_13  and  C_15
REMARK                            x       y       z     vdW  Elec       q    Type
REMARK                         _______ _______ _______ _____ _____    ______ ____
ROOT
ATOM      1  N   UNL     1       2.844   7.607  18.138  0.00  0.00    +0.000 N 
ATOM      2  C   UNL     1       2.014   8.480  18.812  0.00  0.00    +0.000 C 
ATOM      3  O   UNL     1       1.654   8.303  19.975  0.00  0.00    +0.000 OA
ATOM      4  H   UNL     1       3.368   7.959  17.339  0.00  0.00    +0.000 HD
ENDROOT
BRANCH   1   5
ATOM      5  C   UNL     1       3.228   6.333  18.735  0.00  0.00    +0.000 C 
BRANCH   5   6
ATOM      6  C   UNL     1       3.181   5.082  17.795  0.00  0.00    +0.000 C 
BRANCH   6   7
ATOM      7  C   UNL     1       4.489   4.998  17.045  0.00  0.00    +0.000 A 
ATOM      8  C   UNL     1       5.016   4.120  16.117  0.00  0.00    +0.000 A 
ATOM      9  C   UNL     1       6.303   4.609  15.785  0.00  0.00    +0.000 A 
ATOM     10  C   UNL     1       6.479   5.754  16.524  0.00  0.00    +0.000 A 
ATOM     11  O   UNL     1       5.388   5.998  17.294  0.00  0.00    +0.000 OA
ENDBRANCH   6   7
BRANCH   6  12
ATOM     12  N   UNL     1       2.819   3.790  18.466  0.00  0.00    +0.000 NA
BRANCH  12  14
ATOM     13  C   UNL     1       4.360   2.270  19.802  0.00  0.00    +0.000 C 
ATOM     14  C   UNL     1       3.614   3.598  19.699  0.00  0.00    +0.000 C 
ENDBRANCH  12  14
BRANCH  12  15
ATOM     15  C   UNL     1       1.363   3.662  18.716  0.00  0.00    +0.000 C 
ATOM     16  C   UNL     1       0.895   3.663  20.172  0.00  0.00    +0.000 C 
ENDBRANCH  12  15
ENDBRANCH   6  12
ENDBRANCH   5   6
ENDBRANCH   1   5
BRANCH   2  17
ATOM     17  C   UNL     1       1.597   9.721  18.019  0.00  0.00    +0.000 C 
BRANCH  17  18
ATOM     18  N   UNL     1       0.189   9.700  17.677  0.00  0.00    +0.000 N 
ATOM     19  C   UNL     1      -0.730  10.374  18.445  0.00  0.00    +0.000 C 
ATOM     20  O   UNL     1      -0.396  11.031  19.430  0.00  0.00    +0.000 OA
ATOM     21  H   UNL     1      -0.117   9.104  16.918  0.00  0.00    +0.000 HD
BRANCH  19  22
ATOM     22  C   UNL     1      -2.168  10.248  17.960  0.00  0.00    +0.000 C 
ATOM     23  C   UNL     1      -2.956  11.536  18.164  0.00  0.00    +0.000 C 
ATOM     24  C   UNL     1      -4.128  11.416  17.199  0.00  0.00    +0.000 C 
ATOM     25  C   UNL     1      -3.642  10.536  16.052  0.00  0.00    +0.000 C 
ATOM     26  C   UNL     1      -2.267  10.018  16.452  0.00  0.00    +0.000 C 
ENDBRANCH  19  22
ENDBRANCH  17  18
ENDBRANCH   2  17
TORSDOF 9
ENDMDL
MODEL 8
REMARK VINA RESULT:      -7.0      0.958      1.782
REMARK  Name = 
REMARK  11 active torsions:
REMARK  status: ('A' for Active; 'I' for Inactive)
REMARK    1  A    between atoms: C_1  and  C_2
REMARK    2  A    between atoms: C_2  and  N_3
REMARK    3  A    between atoms: N_3  and  C_4
REMARK    4  A    between atoms: N_3  and  C_6
REMARK    5  A    between atoms: C_4  and  C_5
REMARK    6  A    between atoms: C_6  and  C_7
REMARK    7  A    between atoms: C_6  and  C_20
REMARK    8  A    between atoms: C_7  and  N_8
REMARK    9  A    between atoms: C_9  and  C_11
REMARK   10  A    between atoms: C_11  and  N_12
REMARK   11  A    between atoms: C_13  and  C_15
REMARK                            x       y       z     vdW  Elec       q    Type
REMARK                         _______ _______ _______ _____ _____    ______ ____
ROOT
ATOM      1  N   UNL     1       5.485   5.824  18.542  0.00  0.00    +0.000 N 
ATOM      2  C   UNL     1       6.835   5.865  18.827  0.00  0.00    +0.000 C 
ATOM      3  O   UNL     1       7.323   5.378  19.845  0.00  0.00    +0.000 OA
ATOM      4  H   UNL     1       5.192   5.924  17.572  0.00  0.00    +0.000 HD
ENDROOT
BRANCH   1   5
ATOM      5  C   UNL     1       4.531   5.316  19.523  0.00  0.00    +0.000 C 
BRANCH   5   6
ATOM      6  C   UNL     1       3.015   5.527  19.194  0.00  0.00    +0.000 C 
BRANCH   6   7
ATOM      7  C   UNL     1       2.221   4.442  19.881  0.00  0.00    +0.000 A 
ATOM      8  C   UNL     1       2.284   3.837  21.121  0.00  0.00    +0.000 A 
ATOM      9  C   UNL     1       1.236   2.884  21.159  0.00  0.00    +0.000 A 
ATOM     10  C   UNL     1       0.598   2.970  19.945  0.00  0.00    +0.000 A 
ATOM     11  O   UNL     1       1.188   3.908  19.161  0.00  0.00    +0.000 OA
ENDBRANCH   6   7
BRANCH   6  12
ATOM     12  N   UNL     1       2.482   6.900  19.481  0.00  0.00    +0.000 NA
BRANCH  12  14
ATOM     13  C   UNL     1       2.466   8.824  17.817  0.00  0.00    +0.000 C 
ATOM     14  C   UNL     1       1.874   7.491  18.269  0.00  0.00    +0.000 C 
ENDBRANCH  12  14
BRANCH  12  15
ATOM     15  C   UNL     1       1.556   6.925  20.639  0.00  0.00    +0.000 C 
ATOM     16  C   UNL     1       1.203   8.291  21.229  0.00  0.00    +0.000 C 
ENDBRANCH  12  15
ENDBRANCH   6  12
ENDBRANCH   5   6
ENDBRANCH   1   5
BRANCH   2  17
ATOM     17  C   UNL     1       7.702   6.531  17.756  0.00  0.00    +0.000 C 
BRANCH  17  18
ATOM     18  N   UNL     1       7.188   6.304  16.421  0.00  0.00    +0.000 N 
ATOM     19  C   UNL     1       7.310   5.073  15.822  0.00  0.00    +0.000 C 
ATOM     20  O   UNL     1       7.837   4.121  16.395  0.00  0.00    +0.000 OA
ATOM     21  H   UNL     1       6.822   7.092  15.902  0.00  0.00    +0.000 HD
BRANCH  19  22
ATOM     22  C   UNL     1       6.728   4.998  14.416  0.00  0.00    +0.000 C 
ATOM     23  C   UNL     1       7.807   5.093  13.344  0.00  0.00    +0.000 C 
ATOM     24  C   UNL     1       7.156   4.499  12.103  0.00  0.00    +0.000 C 
ATOM     25  C   UNL     1       6.122   3.497  12.606  0.00  0.00    +0.000 C 
ATOM     26  C   UNL     1       6.066   3.654  14.120  0.00  0.00    +0.000 C 
ENDBRANCH  19  22
ENDBRANCH  17  18
ENDBRANCH   2  17
TORSDOF 9
ENDMDL
MODEL 9
REMARK VINA RESULT:      -7.0      3.533      7.789
REMARK  Name = 
REMARK  11 active torsions:
REMARK  status: ('A' for Active; 'I' for Inactive)
REMARK    1  A    between atoms: C_1  and  C_2
REMARK    2  A    between atoms: C_2  and  N_3
REMARK    3  A    between atoms: N_3  and  C_4
REMARK    4  A    between atoms: N_3  and  C_6
REMARK    5  A    between atoms: C_4  and  C_5
REMARK    6  A    between atoms: C_6  and  C_7
REMARK    7  A    between atoms: C_6  and  C_20
REMARK    8  A    between atoms: C_7  and  N_8
REMARK    9  A    between atoms: C_9  and  C_11
REMARK   10  A    between atoms: C_11  and  N_12
REMARK   11  A    between atoms: C_13  and  C_15
REMARK                            x       y       z     vdW  Elec       q    Type
REMARK                         _______ _______ _______ _____ _____    ______ ____
ROOT
ATOM      1  N   UNL     1       2.408   7.626  18.667  0.00  0.00    +0.000 N 
ATOM      2  C   UNL     1       1.656   8.680  19.145  0.00  0.00    +0.000 C 
ATOM      3  O   UNL     1       1.287   8.767  20.315  0.00  0.00    +0.000 OA
ATOM      4  H   UNL     1       2.957   7.768  17.821  0.00  0.00    +0.000 HD
ENDROOT
BRANCH   1   5
ATOM      5  C   UNL     1       2.688   6.467  19.509  0.00  0.00    +0.000 C 
BRANCH   5   6
ATOM      6  C   UNL     1       3.406   5.261  18.817  0.00  0.00    +0.000 C 
BRANCH   6   7
ATOM      7  C   UNL     1       4.825   5.667  18.499  0.00  0.00    +0.000 A 
ATOM      8  C   UNL     1       6.064   5.325  19.005  0.00  0.00    +0.000 A 
ATOM      9  C   UNL     1       7.020   6.057  18.259  0.00  0.00    +0.000 A 
ATOM     10  C   UNL     1       6.308   6.794  17.344  0.00  0.00    +0.000 A 
ATOM     11  O   UNL     1       4.977   6.569  17.482  0.00  0.00    +0.000 OA
ENDBRANCH   6   7
BRANCH   6  12
ATOM     12  N   UNL     1       3.332   3.959  19.560  0.00  0.00    +0.000 NA
BRANCH  12  14
ATOM     13  C   UNL     1       1.134   3.266  20.636  0.00  0.00    +0.000 C 
ATOM     14  C   UNL     1       2.429   4.071  20.726  0.00  0.00    +0.000 C 
ENDBRANCH  12  14
BRANCH  12  15
ATOM     15  C   UNL     1       2.974   2.818  18.683  0.00  0.00    +0.000 C 
ATOM     16  C   UNL     1       2.493   3.143  17.268  0.00  0.00    +0.000 C 
ENDBRANCH  12  15
ENDBRANCH   6  12
ENDBRANCH   5   6
ENDBRANCH   1   5
BRANCH   2  17
ATOM     17  C   UNL     1       1.341   9.769  18.118  0.00  0.00    +0.000 C 
BRANCH  17  18
ATOM     18  N   UNL     1      -0.033   9.705  17.661  0.00  0.00    +0.000 N 
ATOM     19  C   UNL     1      -1.009  10.462  18.264  0.00  0.00    +0.000 C 
ATOM     20  O   UNL     1      -0.755  11.230  19.192  0.00  0.00    +0.000 OA
ATOM     21  H   UNL     1      -0.278   9.024  16.954  0.00  0.00    +0.000 HD
BRANCH  19  22
ATOM     22  C   UNL     1      -2.401  10.276  17.677  0.00  0.00    +0.000 C 
ATOM     23  C   UNL     1      -3.332  11.428  18.034  0.00  0.00    +0.000 C 
ATOM     24  C   UNL     1      -4.438  11.355  16.991  0.00  0.00    +0.000 C 
ATOM     25  C   UNL     1      -3.810  10.729  15.751  0.00  0.00    +0.000 C 
ATOM     26  C   UNL     1      -2.406  10.290  16.149  0.00  0.00    +0.000 C 
ENDBRANCH  19  22
ENDBRANCH  17  18
ENDBRANCH   2  17
TORSDOF 9
ENDMDL
