MODEL 1
REMARK VINA RESULT:      -8.3      0.000      0.000
REMARK  Name = 
REMARK  7 active torsions:
REMARK  status: ('A' for Active; 'I' for Inactive)
REMARK    1  A    between atoms: C_1  and  O_2
REMARK    2  A    between atoms: O_2  and  C_3
REMARK    3  A    between atoms: C_6  and  C_7
REMARK    4  A    between atoms: C_13  and  C_14
REMARK    5  A    between atoms: C_14  and  C_15
REMARK    6  A    between atoms: C_28  and  O_29
REMARK    7  A    between atoms: O_29  and  C_30
REMARK                            x       y       z     vdW  Elec       q    Type
REMARK                         _______ _______ _______ _____ _____    ______ ____
ROOT
ATOM      1  C   UNL     1       2.928   6.522  19.158  0.00  0.00    +0.000 C 
ATOM      2  C   UNL     1       2.233   7.672  19.126  0.00  0.00    +0.000 C 
ATOM      3  C   UNL     1       1.672   8.124  20.449  0.00  0.00    +0.000 C 
ATOM      4  N   UNL     1       1.618   7.424  21.549  0.00  0.00    +0.000 NA
ATOM      5  N   UNL     1       1.099   9.378  20.427  0.00  0.00    +0.000 N 
ATOM      6  N   UNL     1       0.539   9.877  21.571  0.00  0.00    +0.000 NA
ATOM      7  C   UNL     1      -0.438  10.658  21.253  0.00  0.00    +0.000 C 
ATOM      8  S   UNL     1      -0.668  11.016  19.553  0.00  0.00    +0.000 S 
ATOM      9  C   UNL     1       0.643   9.887  19.236  0.00  0.00    +0.000 C 
ATOM     10  N   UNL     1       1.020   9.544  18.050  0.00  0.00    +0.000 NA
ATOM     11  C   UNL     1       2.052   8.626  17.956  0.00  0.00    +0.000 C 
ATOM     12  O   UNL     1       2.803   8.576  16.990  0.00  0.00    +0.000 OA
ATOM     13  H   UNL     1       1.957   6.470  21.488  0.00  0.00    +0.000 HD
ENDROOT
BRANCH   1  17
ATOM     14  C   UNL     1       5.394   4.275  16.485  0.00  0.00    +0.000 A 
ATOM     15  C   UNL     1       4.050   3.899  16.664  0.00  0.00    +0.000 A 
ATOM     16  C   UNL     1       3.197   4.609  17.513  0.00  0.00    +0.000 A 
ATOM     17  C   UNL     1       3.676   5.717  18.194  0.00  0.00    +0.000 A 
ATOM     18  C   UNL     1       5.035   6.048  18.060  0.00  0.00    +0.000 A 
ATOM     19  C   UNL     1       5.907   5.335  17.236  0.00  0.00    +0.000 A 
BRANCH  14  21
ATOM     20  C   UNL     1       6.055   3.991  14.245  0.00  0.00    +0.000 C 
ATOM     21  O   UNL     1       6.213   3.612  15.611  0.00  0.00    +0.000 OA
ENDBRANCH  14  21
BRANCH  19  22
ATOM     22  O   UNL     1       7.176   5.839  17.303  0.00  0.00    +0.000 OA
ATOM     23  C   UNL     1       7.362   7.234  17.446  0.00  0.00    +0.000 C 
ENDBRANCH  19  22
ENDBRANCH   1  17
BRANCH   7  24
ATOM     24  C   UNL     1      -1.313  11.195  22.331  0.00  0.00    +0.000 C 
BRANCH  24  25
ATOM     25  C   UNL     1      -1.030  12.632  22.695  0.00  0.00    +0.000 C 
ATOM     26  O   UNL     1       0.014  13.195  22.372  0.00  0.00    +0.000 OA
ATOM     27  N   UNL     1      -2.009  13.269  23.430  0.00  0.00    +0.000 N 
ATOM     28  C   UNL     1      -3.301  12.741  23.831  0.00  0.00    +0.000 C 
ATOM     29  C   UNL     1      -4.159  13.985  23.963  0.00  0.00    +0.000 C 
ATOM     30  C   UNL     1      -3.185  15.028  24.498  0.00  0.00    +0.000 C 
ATOM     31  C   UNL     1      -1.831  14.625  23.919  0.00  0.00    +0.000 C 
ENDBRANCH  24  25
ENDBRANCH   7  24
TORSDOF 5
ENDMDL
MODEL 2
REMARK VINA RESULT:      -8.3      2.580      3.965
REMARK  Name = 
REMARK  7 active torsions:
REMARK  status: ('A' for Active; 'I' for Inactive)
REMARK    1  A    between atoms: C_1  and  O_2
REMARK    2  A    between atoms: O_2  and  C_3
REMARK    3  A    between atoms: C_6  and  C_7
REMARK    4  A    between atoms: C_13  and  C_14
REMARK    5  A    between atoms: C_14  and  C_15
REMARK    6  A    between atoms: C_28  and  O_29
REMARK    7  A    between atoms: O_29  and  C_30
REMARK                            x       y       z     vdW  Elec       q    Type
REMARK                         _______ _______ _______ _____ _____    ______ ____
ROOT
ATOM      1  C   UNL     1       1.091   8.121  21.288  0.00  0.00    +0.000 C 
ATOM      2  C   UNL     1       0.411   9.262  21.083  0.00  0.00    +0.000 C 
ATOM      3  C   UNL     1      -0.058   9.967  22.328  0.00  0.00    +0.000 C 
ATOM      4  N   UNL     1      -0.051   9.487  23.541  0.00  0.00    +0.000 NA
ATOM      5  N   UNL     1      -0.614  11.209  22.105  0.00  0.00    +0.000 N 
ATOM      6  N   UNL     1      -1.094  11.928  23.166  0.00  0.00    +0.000 NA
ATOM      7  C   UNL     1      -2.078  12.659  22.766  0.00  0.00    +0.000 C 
ATOM      8  S   UNL     1      -2.412  12.698  21.046  0.00  0.00    +0.000 S 
ATOM      9  C   UNL     1      -1.139  11.497  20.869  0.00  0.00    +0.000 C 
ATOM     10  N   UNL     1      -0.844  10.929  19.748  0.00  0.00    +0.000 NA
ATOM     11  C   UNL     1       0.169   9.984  19.767  0.00  0.00    +0.000 C 
ATOM     12  O   UNL     1       0.855   9.735  18.784  0.00  0.00    +0.000 OA
ATOM     13  H   UNL     1       0.271   8.530  23.641  0.00  0.00    +0.000 HD
ENDROOT
BRANCH   1  17
ATOM     14  C   UNL     1       2.840   5.005  18.943  0.00  0.00    +0.000 A 
ATOM     15  C   UNL     1       3.078   6.347  18.593  0.00  0.00    +0.000 A 
ATOM     16  C   UNL     1       2.543   7.403  19.336  0.00  0.00    +0.000 A 
ATOM     17  C   UNL     1       1.765   7.131  20.450  0.00  0.00    +0.000 A 
ATOM     18  C   UNL     1       1.480   5.790  20.755  0.00  0.00    +0.000 A 
ATOM     19  C   UNL     1       1.985   4.723  20.011  0.00  0.00    +0.000 A 
BRANCH  14  21
ATOM     20  C   UNL     1       2.550   3.355  17.291  0.00  0.00    +0.000 C 
ATOM     21  O   UNL     1       3.409   3.972  18.248  0.00  0.00    +0.000 OA
ENDBRANCH  14  21
BRANCH  19  22
ATOM     22  O   UNL     1       1.538   3.525  20.494  0.00  0.00    +0.000 OA
ATOM     23  C   UNL     1       2.014   3.060  21.743  0.00  0.00    +0.000 C 
ENDBRANCH  19  22
ENDBRANCH   1  17
BRANCH   7  24
ATOM     24  C   UNL     1      -2.875  13.410  23.775  0.00  0.00    +0.000 C 
BRANCH  24  25
ATOM     25  C   UNL     1      -4.166  12.735  24.166  0.00  0.00    +0.000 C 
ATOM     26  O   UNL     1      -4.190  11.627  24.698  0.00  0.00    +0.000 OA
ATOM     27  N   UNL     1      -5.321  13.432  23.872  0.00  0.00    +0.000 N 
ATOM     28  C   UNL     1      -5.433  14.760  23.297  0.00  0.00    +0.000 C 
ATOM     29  C   UNL     1      -6.766  15.257  23.824  0.00  0.00    +0.000 C 
ATOM     30  C   UNL     1      -7.623  13.996  23.853  0.00  0.00    +0.000 C 
ATOM     31  C   UNL     1      -6.635  12.863  24.117  0.00  0.00    +0.000 C 
ENDBRANCH  24  25
ENDBRANCH   7  24
TORSDOF 5
ENDMDL
MODEL 3
REMARK VINA RESULT:      -8.3      1.843      2.464
REMARK  Name = 
REMARK  7 active torsions:
REMARK  status: ('A' for Active; 'I' for Inactive)
REMARK    1  A    between atoms: C_1  and  O_2
REMARK    2  A    between atoms: O_2  and  C_3
REMARK    3  A    between atoms: C_6  and  C_7
REMARK    4  A    between atoms: C_13  and  C_14
REMARK    5  A    between atoms: C_14  and  C_15
REMARK    6  A    between atoms: C_28  and  O_29
REMARK    7  A    between atoms: O_29  and  C_30
REMARK                            x       y       z     vdW  Elec       q    Type
REMARK                         _______ _______ _______ _____ _____    ______ ____
ROOT
ATOM      1  C   UNL     1       2.182   8.083  18.061  0.00  0.00    +0.000 C 
ATOM      2  C   UNL     1       1.517   8.507  19.149  0.00  0.00    +0.000 C 
ATOM      3  C   UNL     1       0.646   9.718  18.943  0.00  0.00    +0.000 C 
ATOM      4  N   UNL     1       0.636  10.496  17.895  0.00  0.00    +0.000 NA
ATOM      5  N   UNL     1      -0.145  10.043  20.024  0.00  0.00    +0.000 N 
ATOM      6  N   UNL     1      -0.959  11.140  19.951  0.00  0.00    +0.000 NA
ATOM      7  C   UNL     1      -1.092  11.643  21.132  0.00  0.00    +0.000 C 
ATOM      8  S   UNL     1      -0.404  10.749  22.475  0.00  0.00    +0.000 S 
ATOM      9  C   UNL     1       0.228   9.626  21.278  0.00  0.00    +0.000 C 
ATOM     10  N   UNL     1       1.002   8.634  21.568  0.00  0.00    +0.000 NA
ATOM     11  C   UNL     1       1.440   7.847  20.517  0.00  0.00    +0.000 C 
ATOM     12  O   UNL     1       1.747   6.669  20.658  0.00  0.00    +0.000 OA
ATOM     13  H   UNL     1       1.309  10.278  17.169  0.00  0.00    +0.000 HD
ENDROOT
BRANCH   1  17
ATOM     14  C   UNL     1       5.064   5.061  17.147  0.00  0.00    +0.000 A 
ATOM     15  C   UNL     1       3.804   4.684  17.646  0.00  0.00    +0.000 A 
ATOM     16  C   UNL     1       2.821   5.631  17.946  0.00  0.00    +0.000 A 
ATOM     17  C   UNL     1       3.082   6.976  17.741  0.00  0.00    +0.000 A 
ATOM     18  C   UNL     1       4.364   7.349  17.303  0.00  0.00    +0.000 A 
ATOM     19  C   UNL     1       5.365   6.420  17.023  0.00  0.00    +0.000 A 
BRANCH  14  21
ATOM     20  C   UNL     1       6.114   3.884  15.401  0.00  0.00    +0.000 C 
ATOM     21  O   UNL     1       6.007   4.130  16.802  0.00  0.00    +0.000 OA
ENDBRANCH  14  21
BRANCH  19  22
ATOM     22  O   UNL     1       6.524   7.038  16.643  0.00  0.00    +0.000 OA
ATOM     23  C   UNL     1       7.533   7.274  17.606  0.00  0.00    +0.000 C 
ENDBRANCH  19  22
ENDBRANCH   1  17
BRANCH   7  24
ATOM     24  C   UNL     1      -1.800  12.943  21.288  0.00  0.00    +0.000 C 
BRANCH  24  25
ATOM     25  C   UNL     1      -3.304  12.834  21.237  0.00  0.00    +0.000 C 
ATOM     26  O   UNL     1      -3.914  12.683  20.181  0.00  0.00    +0.000 OA
ATOM     27  N   UNL     1      -3.954  12.933  22.451  0.00  0.00    +0.000 N 
ATOM     28  C   UNL     1      -3.358  13.060  23.768  0.00  0.00    +0.000 C 
ATOM     29  C   UNL     1      -4.403  12.451  24.684  0.00  0.00    +0.000 C 
ATOM     30  C   UNL     1      -5.719  12.857  24.031  0.00  0.00    +0.000 C 
ATOM     31  C   UNL     1      -5.404  12.930  22.539  0.00  0.00    +0.000 C 
ENDBRANCH  24  25
ENDBRANCH   7  24
TORSDOF 5
ENDMDL
MODEL 4
REMARK VINA RESULT:      -8.1      3.657      4.291
REMARK  Name = 
REMARK  7 active torsions:
REMARK  status: ('A' for Active; 'I' for Inactive)
REMARK    1  A    between atoms: C_1  and  O_2
REMARK    2  A    between atoms: O_2  and  C_3
REMARK    3  A    between atoms: C_6  and  C_7
REMARK    4  A    between atoms: C_13  and  C_14
REMARK    5  A    between atoms: C_14  and  C_15
REMARK    6  A    between atoms: C_28  and  O_29
REMARK    7  A    between atoms: O_29  and  C_30
REMARK                            x       y       z     vdW  Elec       q    Type
REMARK                         _______ _______ _______ _____ _____    ______ ____
ROOT
ATOM      1  C   UNL     1       2.492   7.602  18.479  0.00  0.00    +0.000 C 
ATOM      2  C   UNL     1       1.816   8.484  19.235  0.00  0.00    +0.000 C 
ATOM      3  C   UNL     1       1.412   9.756  18.536  0.00  0.00    +0.000 C 
ATOM      4  N   UNL     1       1.822  10.162  17.366  0.00  0.00    +0.000 NA
ATOM      5  N   UNL     1       0.588  10.577  19.277  0.00  0.00    +0.000 N 
ATOM      6  N   UNL     1       0.179  11.769  18.745  0.00  0.00    +0.000 NA
ATOM      7  C   UNL     1       0.009  12.618  19.701  0.00  0.00    +0.000 C 
ATOM      8  S   UNL     1       0.146  12.025  21.345  0.00  0.00    +0.000 S 
ATOM      9  C   UNL     1       0.594  10.474  20.646  0.00  0.00    +0.000 C 
ATOM     10  N   UNL     1       0.959   9.453  21.347  0.00  0.00    +0.000 NA
ATOM     11  C   UNL     1       1.306   8.304  20.655  0.00  0.00    +0.000 C 
ATOM     12  O   UNL     1       1.203   7.186  21.144  0.00  0.00    +0.000 OA
ATOM     13  H   UNL     1       2.509   9.575  16.904  0.00  0.00    +0.000 HD
ENDROOT
BRANCH   1  17
ATOM     14  C   UNL     1       4.359   3.823  19.193  0.00  0.00    +0.000 A 
ATOM     15  C   UNL     1       2.986   3.867  18.887  0.00  0.00    +0.000 A 
ATOM     16  C   UNL     1       2.331   5.075  18.629  0.00  0.00    +0.000 A 
ATOM     17  C   UNL     1       3.045   6.261  18.666  0.00  0.00    +0.000 A 
ATOM     18  C   UNL     1       4.400   6.215  19.035  0.00  0.00    +0.000 A 
ATOM     19  C   UNL     1       5.064   5.022  19.320  0.00  0.00    +0.000 A 
BRANCH  14  21
ATOM     20  C   UNL     1       4.505   1.853  20.472  0.00  0.00    +0.000 C 
ATOM     21  O   UNL     1       5.011   2.636  19.391  0.00  0.00    +0.000 OA
ENDBRANCH  14  21
BRANCH  19  22
ATOM     22  O   UNL     1       6.363   5.250  19.679  0.00  0.00    +0.000 OA
ATOM     23  C   UNL     1       7.246   5.844  18.746  0.00  0.00    +0.000 C 
ENDBRANCH  19  22
ENDBRANCH   1  17
BRANCH   7  24
ATOM     24  C   UNL     1      -0.277  14.039  19.363  0.00  0.00    +0.000 C 
BRANCH  24  25
ATOM     25  C   UNL     1       0.939  14.830  18.947  0.00  0.00    +0.000 C 
ATOM     26  O   UNL     1       2.073  14.356  18.988  0.00  0.00    +0.000 OA
ATOM     27  N   UNL     1       0.701  16.126  18.536  0.00  0.00    +0.000 N 
ATOM     28  C   UNL     1      -0.582  16.788  18.393  0.00  0.00    +0.000 C 
ATOM     29  C   UNL     1      -0.317  17.834  17.326  0.00  0.00    +0.000 C 
ATOM     30  C   UNL     1       1.117  18.267  17.608  0.00  0.00    +0.000 C 
ATOM     31  C   UNL     1       1.788  17.025  18.189  0.00  0.00    +0.000 C 
ENDBRANCH  24  25
ENDBRANCH   7  24
TORSDOF 5
ENDMDL
MODEL 5
REMARK VINA RESULT:      -8.1      1.665      2.336
REMARK  Name = 
REMARK  7 active torsions:
REMARK  status: ('A' for Active; 'I' for Inactive)
REMARK    1  A    between atoms: C_1  and  O_2
REMARK    2  A    between atoms: O_2  and  C_3
REMARK    3  A    between atoms: C_6  and  C_7
REMARK    4  A    between atoms: C_13  and  C_14
REMARK    5  A    between atoms: C_14  and  C_15
REMARK    6  A    between atoms: C_28  and  O_29
REMARK    7  A    between atoms: O_29  and  C_30
REMARK                            x       y       z     vdW  Elec       q    Type
REMARK                         _______ _______ _______ _____ _____    ______ ____
ROOT
ATOM      1  C   UNL     1       2.148   8.119  18.106  0.00  0.00    +0.000 C 
ATOM      2  C   UNL     1       1.483   8.539  19.195  0.00  0.00    +0.000 C 
ATOM      3  C   UNL     1       0.590   9.733  18.986  0.00  0.00    +0.000 C 
ATOM      4  N   UNL     1       0.559  10.504  17.933  0.00  0.00    +0.000 NA
ATOM      5  N   UNL     1      -0.200  10.053  20.070  0.00  0.00    +0.000 N 
ATOM      6  N   UNL     1      -1.033  11.135  19.995  0.00  0.00    +0.000 NA
ATOM      7  C   UNL     1      -1.167  11.644  21.173  0.00  0.00    +0.000 C 
ATOM      8  S   UNL     1      -0.455  10.772  22.517  0.00  0.00    +0.000 S 
ATOM      9  C   UNL     1       0.189   9.651  21.325  0.00  0.00    +0.000 C 
ATOM     10  N   UNL     1       0.981   8.674  21.617  0.00  0.00    +0.000 NA
ATOM     11  C   UNL     1       1.426   7.887  20.568  0.00  0.00    +0.000 C 
ATOM     12  O   UNL     1       1.754   6.716  20.716  0.00  0.00    +0.000 OA
ATOM     13  H   UNL     1       1.232  10.292  17.204  0.00  0.00    +0.000 HD
ENDROOT
BRANCH   1  17
ATOM     14  C   UNL     1       5.076   5.140  17.194  0.00  0.00    +0.000 A 
ATOM     15  C   UNL     1       3.825   4.745  17.704  0.00  0.00    +0.000 A 
ATOM     16  C   UNL     1       2.828   5.677  18.003  0.00  0.00    +0.000 A 
ATOM     17  C   UNL     1       3.064   7.025  17.788  0.00  0.00    +0.000 A 
ATOM     18  C   UNL     1       4.337   7.417  17.339  0.00  0.00    +0.000 A 
ATOM     19  C   UNL     1       5.352   6.503  17.059  0.00  0.00    +0.000 A 
BRANCH  14  21
ATOM     20  C   UNL     1       6.025   3.846  15.474  0.00  0.00    +0.000 C 
ATOM     21  O   UNL     1       6.032   4.223  16.850  0.00  0.00    +0.000 OA
ENDBRANCH  14  21
BRANCH  19  22
ATOM     22  O   UNL     1       6.497   7.138  16.667  0.00  0.00    +0.000 OA
ATOM     23  C   UNL     1       7.533   7.346  17.609  0.00  0.00    +0.000 C 
ENDBRANCH  19  22
ENDBRANCH   1  17
BRANCH   7  24
ATOM     24  C   UNL     1      -1.896  12.933  21.324  0.00  0.00    +0.000 C 
BRANCH  24  25
ATOM     25  C   UNL     1      -2.831  12.976  22.508  0.00  0.00    +0.000 C 
ATOM     26  O   UNL     1      -3.783  12.206  22.618  0.00  0.00    +0.000 OA
ATOM     27  N   UNL     1      -2.560  13.946  23.452  0.00  0.00    +0.000 N 
ATOM     28  C   UNL     1      -1.448  14.878  23.470  0.00  0.00    +0.000 C 
ATOM     29  C   UNL     1      -1.268  15.176  24.947  0.00  0.00    +0.000 C 
ATOM     30  C   UNL     1      -2.694  15.157  25.485  0.00  0.00    +0.000 C 
ATOM     31  C   UNL     1      -3.428  14.155  24.598  0.00  0.00    +0.000 C 
ENDBRANCH  24  25
ENDBRANCH   7  24
TORSDOF 5
ENDMDL
MODEL 6
REMARK VINA RESULT:      -8.1      2.020      3.033
REMARK  Name = 
REMARK  7 active torsions:
REMARK  status: ('A' for Active; 'I' for Inactive)
REMARK    1  A    between atoms: C_1  and  O_2
REMARK    2  A    between atoms: O_2  and  C_3
REMARK    3  A    between atoms: C_6  and  C_7
REMARK    4  A    between atoms: C_13  and  C_14
REMARK    5  A    between atoms: C_14  and  C_15
REMARK    6  A    between atoms: C_28  and  O_29
REMARK    7  A    between atoms: O_29  and  C_30
REMARK                            x       y       z     vdW  Elec       q    Type
REMARK                         _______ _______ _______ _____ _____    ______ ____
ROOT
ATOM      1  C   UNL     1       2.266   8.155  18.189  0.00  0.00    +0.000 C 
ATOM      2  C   UNL     1       1.563   8.526  19.272  0.00  0.00    +0.000 C 
ATOM      3  C   UNL     1       0.711   9.756  19.099  0.00  0.00    +0.000 C 
ATOM      4  N   UNL     1       0.748  10.590  18.096  0.00  0.00    +0.000 NA
ATOM      5  N   UNL     1      -0.119  10.030  20.165  0.00  0.00    +0.000 N 
ATOM      6  N   UNL     1      -0.920  11.138  20.122  0.00  0.00    +0.000 NA
ATOM      7  C   UNL     1      -1.094  11.578  21.322  0.00  0.00    +0.000 C 
ATOM      8  S   UNL     1      -0.467  10.605  22.639  0.00  0.00    +0.000 S 
ATOM      9  C   UNL     1       0.202   9.542  21.408  0.00  0.00    +0.000 C 
ATOM     10  N   UNL     1       0.955   8.527  21.673  0.00  0.00    +0.000 NA
ATOM     11  C   UNL     1       1.427   7.794  20.598  0.00  0.00    +0.000 C 
ATOM     12  O   UNL     1       1.718   6.607  20.686  0.00  0.00    +0.000 OA
ATOM     13  H   UNL     1       1.447  10.404  17.385  0.00  0.00    +0.000 HD
ENDROOT
BRANCH   1  17
ATOM     14  C   UNL     1       4.635   4.760  17.122  0.00  0.00    +0.000 A 
ATOM     15  C   UNL     1       5.204   6.045  17.060  0.00  0.00    +0.000 A 
ATOM     16  C   UNL     1       4.478   7.186  17.413  0.00  0.00    +0.000 A 
ATOM     17  C   UNL     1       3.168   7.057  17.844  0.00  0.00    +0.000 A 
ATOM     18  C   UNL     1       2.586   5.778  17.841  0.00  0.00    +0.000 A 
ATOM     19  C   UNL     1       3.288   4.631  17.469  0.00  0.00    +0.000 A 
BRANCH  14  21
ATOM     20  C   UNL     1       6.112   3.717  15.617  0.00  0.00    +0.000 C 
ATOM     21  O   UNL     1       5.363   3.638  16.828  0.00  0.00    +0.000 OA
ENDBRANCH  14  21
BRANCH  19  22
ATOM     22  O   UNL     1       2.491   3.522  17.526  0.00  0.00    +0.000 OA
ATOM     23  C   UNL     1       2.336   2.842  18.757  0.00  0.00    +0.000 C 
ENDBRANCH  19  22
ENDBRANCH   1  17
BRANCH   7  24
ATOM     24  C   UNL     1      -1.797  12.875  21.521  0.00  0.00    +0.000 C 
BRANCH  24  25
ATOM     25  C   UNL     1      -3.297  12.788  21.390  0.00  0.00    +0.000 C 
ATOM     26  O   UNL     1      -3.852  12.660  20.300  0.00  0.00    +0.000 OA
ATOM     27  N   UNL     1      -4.010  12.881  22.569  0.00  0.00    +0.000 N 
ATOM     28  C   UNL     1      -3.482  12.983  23.917  0.00  0.00    +0.000 C 
ATOM     29  C   UNL     1      -4.583  12.378  24.768  0.00  0.00    +0.000 C 
ATOM     30  C   UNL     1      -5.857  12.811  24.051  0.00  0.00    +0.000 C 
ATOM     31  C   UNL     1      -5.462  12.899  22.580  0.00  0.00    +0.000 C 
ENDBRANCH  24  25
ENDBRANCH   7  24
TORSDOF 5
ENDMDL
MODEL 7
REMARK VINA RESULT:      -8.0      1.232      2.045
REMARK  Name = 
REMARK  7 active torsions:
REMARK  status: ('A' for Active; 'I' for Inactive)
REMARK    1  A    between atoms: C_1  and  O_2
REMARK    2  A    between atoms: O_2  and  C_3
REMARK    3  A    between atoms: C_6  and  C_7
REMARK    4  A    between atoms: C_13  and  C_14
REMARK    5  A    between atoms: C_14  and  C_15
REMARK    6  A    between atoms: C_28  and  O_29
REMARK    7  A    between atoms: O_29  and  C_30
REMARK                            x       y       z     vdW  Elec       q    Type
REMARK                         _______ _______ _______ _____ _____    ______ ____
ROOT
ATOM      1  C   UNL     1       2.584   7.211  19.475  0.00  0.00    +0.000 C 
ATOM      2  C   UNL     1       1.839   8.329  19.439  0.00  0.00    +0.000 C 
ATOM      3  C   UNL     1       1.375   8.839  20.778  0.00  0.00    +0.000 C 
ATOM      4  N   UNL     1       1.448   8.206  21.917  0.00  0.00    +0.000 NA
ATOM      5  N   UNL     1       0.747  10.066  20.736  0.00  0.00    +0.000 N 
ATOM      6  N   UNL     1       0.266  10.612  21.894  0.00  0.00    +0.000 NA
ATOM      7  C   UNL     1      -0.769  11.332  21.620  0.00  0.00    +0.000 C 
ATOM      8  S   UNL     1      -1.161  11.576  19.929  0.00  0.00    +0.000 S 
ATOM      9  C   UNL     1       0.167  10.482  19.562  0.00  0.00    +0.000 C 
ATOM     10  N   UNL     1       0.454  10.082  18.369  0.00  0.00    +0.000 NA
ATOM     11  C   UNL     1       1.515   9.201  18.237  0.00  0.00    +0.000 C 
ATOM     12  O   UNL     1       2.181   9.121  17.212  0.00  0.00    +0.000 OA
ATOM     13  H   UNL     1       1.822   7.264  21.882  0.00  0.00    +0.000 HD
ENDROOT
BRANCH   1  17
ATOM     14  C   UNL     1       4.339   4.610  16.572  0.00  0.00    +0.000 A 
ATOM     15  C   UNL     1       4.935   5.858  16.829  0.00  0.00    +0.000 A 
ATOM     16  C   UNL     1       4.411   6.739  17.780  0.00  0.00    +0.000 A 
ATOM     17  C   UNL     1       3.281   6.378  18.496  0.00  0.00    +0.000 A 
ATOM     18  C   UNL     1       2.655   5.159  18.189  0.00  0.00    +0.000 A 
ATOM     19  C   UNL     1       3.150   4.278  17.226  0.00  0.00    +0.000 A 
BRANCH  14  21
ATOM     20  C   UNL     1       5.686   4.324  14.665  0.00  0.00    +0.000 C 
ATOM     21  O   UNL     1       4.884   3.725  15.681  0.00  0.00    +0.000 OA
ENDBRANCH  14  21
BRANCH  19  22
ATOM     22  O   UNL     1       2.346   3.181  17.097  0.00  0.00    +0.000 OA
ATOM     23  C   UNL     1       2.506   2.094  17.989  0.00  0.00    +0.000 C 
ENDBRANCH  19  22
ENDBRANCH   1  17
BRANCH   7  24
ATOM     24  C   UNL     1      -1.570  11.900  22.739  0.00  0.00    +0.000 C 
BRANCH  24  25
ATOM     25  C   UNL     1      -1.170  13.300  23.133  0.00  0.00    +0.000 C 
ATOM     26  O   UNL     1      -0.065  13.766  22.863  0.00  0.00    +0.000 OA
ATOM     27  N   UNL     1      -2.118  14.020  23.834  0.00  0.00    +0.000 N 
ATOM     28  C   UNL     1      -3.469  13.612  24.172  0.00  0.00    +0.000 C 
ATOM     29  C   UNL     1      -4.213  14.929  24.284  0.00  0.00    +0.000 C 
ATOM     30  C   UNL     1      -3.170  15.871  24.874  0.00  0.00    +0.000 C 
ATOM     31  C   UNL     1      -1.835  15.348  24.349  0.00  0.00    +0.000 C 
ENDBRANCH  24  25
ENDBRANCH   7  24
TORSDOF 5
ENDMDL
MODEL 8
REMARK VINA RESULT:      -8.0      1.432      1.989
REMARK  Name = 
REMARK  7 active torsions:
REMARK  status: ('A' for Active; 'I' for Inactive)
REMARK    1  A    between atoms: C_1  and  O_2
REMARK    2  A    between atoms: O_2  and  C_3
REMARK    3  A    between atoms: C_6  and  C_7
REMARK    4  A    between atoms: C_13  and  C_14
REMARK    5  A    between atoms: C_14  and  C_15
REMARK    6  A    between atoms: C_28  and  O_29
REMARK    7  A    between atoms: O_29  and  C_30
REMARK                            x       y       z     vdW  Elec       q    Type
REMARK                         _______ _______ _______ _____ _____    ______ ____
ROOT
ATOM      1  C   UNL     1       2.365   8.045  18.067  0.00  0.00    +0.000 C 
ATOM      2  C   UNL     1       1.681   8.403  19.168  0.00  0.00    +0.000 C 
ATOM      3  C   UNL     1       0.833   9.640  19.027  0.00  0.00    +0.000 C 
ATOM      4  N   UNL     1       0.857  10.489  18.036  0.00  0.00    +0.000 NA
ATOM      5  N   UNL     1       0.022   9.902  20.110  0.00  0.00    +0.000 N 
ATOM      6  N   UNL     1      -0.774  11.014  20.096  0.00  0.00    +0.000 NA
ATOM      7  C   UNL     1      -0.927  11.436  21.306  0.00  0.00    +0.000 C 
ATOM      8  S   UNL     1      -0.282  10.442  22.598  0.00  0.00    +0.000 S 
ATOM      9  C   UNL     1       0.361   9.393  21.340  0.00  0.00    +0.000 C 
ATOM     10  N   UNL     1       1.113   8.372  21.578  0.00  0.00    +0.000 NA
ATOM     11  C   UNL     1       1.564   7.652  20.484  0.00  0.00    +0.000 C 
ATOM     12  O   UNL     1       1.850   6.463  20.550  0.00  0.00    +0.000 OA
ATOM     13  H   UNL     1       1.544  10.310  17.311  0.00  0.00    +0.000 HD
ENDROOT
BRANCH   1  17
ATOM     14  C   UNL     1       5.222   5.052  16.994  0.00  0.00    +0.000 A 
ATOM     15  C   UNL     1       3.967   4.659  17.493  0.00  0.00    +0.000 A 
ATOM     16  C   UNL     1       2.991   5.597  17.843  0.00  0.00    +0.000 A 
ATOM     17  C   UNL     1       3.256   6.949  17.691  0.00  0.00    +0.000 A 
ATOM     18  C   UNL     1       4.534   7.335  17.253  0.00  0.00    +0.000 A 
ATOM     19  C   UNL     1       5.528   6.413  16.923  0.00  0.00    +0.000 A 
BRANCH  14  21
ATOM     20  C   UNL     1       6.180   3.873  15.197  0.00  0.00    +0.000 C 
ATOM     21  O   UNL     1       6.157   4.132  16.600  0.00  0.00    +0.000 OA
ENDBRANCH  14  21
BRANCH  19  22
ATOM     22  O   UNL     1       6.684   7.042  16.554  0.00  0.00    +0.000 OA
ATOM     23  C   UNL     1       7.573   7.503  17.554  0.00  0.00    +0.000 C 
ENDBRANCH  19  22
ENDBRANCH   1  17
BRANCH   7  24
ATOM     24  C   UNL     1      -1.619  12.734  21.536  0.00  0.00    +0.000 C 
BRANCH  24  25
ATOM     25  C   UNL     1      -0.939  13.625  22.545  0.00  0.00    +0.000 C 
ATOM     26  O   UNL     1       0.260  13.891  22.480  0.00  0.00    +0.000 OA
ATOM     27  N   UNL     1      -1.743  14.108  23.558  0.00  0.00    +0.000 N 
ATOM     28  C   UNL     1      -3.171  13.914  23.724  0.00  0.00    +0.000 C 
ATOM     29  C   UNL     1      -3.600  15.140  24.509  0.00  0.00    +0.000 C 
ATOM     30  C   UNL     1      -2.413  15.400  25.429  0.00  0.00    +0.000 C 
ATOM     31  C   UNL     1      -1.200  14.907  24.644  0.00  0.00    +0.000 C 
ENDBRANCH  24  25
ENDBRANCH   7  24
TORSDOF 5
ENDMDL
MODEL 9
REMARK VINA RESULT:      -8.0      1.095      1.133
REMARK  Name = 
REMARK  7 active torsions:
REMARK  status: ('A' for Active; 'I' for Inactive)
REMARK    1  A    between atoms: C_1  and  O_2
REMARK    2  A    between atoms: O_2  and  C_3
REMARK    3  A    between atoms: C_6  and  C_7
REMARK    4  A    between atoms: C_13  and  C_14
REMARK    5  A    between atoms: C_14  and  C_15
REMARK    6  A    between atoms: C_28  and  O_29
REMARK    7  A    between atoms: O_29  and  C_30
REMARK                            x       y       z     vdW  Elec       q    Type
REMARK                         _______ _______ _______ _____ _____    ______ ____
ROOT
ATOM      1  C   UNL     1       2.550   7.140  19.343  0.00  0.00    +0.000 C 
ATOM      2  C   UNL     1       1.822   8.268  19.401  0.00  0.00    +0.000 C 
ATOM      3  C   UNL     1       1.422   8.707  20.785  0.00  0.00    +0.000 C 
ATOM      4  N   UNL     1       1.531   8.010  21.883  0.00  0.00    +0.000 NA
ATOM      5  N   UNL     1       0.812   9.943  20.837  0.00  0.00    +0.000 N 
ATOM      6  N   UNL     1       0.388  10.429  22.044  0.00  0.00    +0.000 NA
ATOM      7  C   UNL     1      -0.645  11.178  21.854  0.00  0.00    +0.000 C 
ATOM      8  S   UNL     1      -1.103  11.522  20.197  0.00  0.00    +0.000 S 
ATOM      9  C   UNL     1       0.191  10.433  19.715  0.00  0.00    +0.000 C 
ATOM     10  N   UNL     1       0.423  10.097  18.490  0.00  0.00    +0.000 NA
ATOM     11  C   UNL     1       1.463   9.211  18.264  0.00  0.00    +0.000 C 
ATOM     12  O   UNL     1       2.085   9.180  17.209  0.00  0.00    +0.000 OA
ATOM     13  H   UNL     1       1.889   7.067  21.779  0.00  0.00    +0.000 HD
ENDROOT
BRANCH   1  17
ATOM     14  C   UNL     1       4.703   5.026  16.315  0.00  0.00    +0.000 A 
ATOM     15  C   UNL     1       3.580   4.423  16.911  0.00  0.00    +0.000 A 
ATOM     16  C   UNL     1       2.832   5.077  17.894  0.00  0.00    +0.000 A 
ATOM     17  C   UNL     1       3.193   6.354  18.291  0.00  0.00    +0.000 A 
ATOM     18  C   UNL     1       4.353   6.924  17.738  0.00  0.00    +0.000 A 
ATOM     19  C   UNL     1       5.125   6.276  16.774  0.00  0.00    +0.000 A 
BRANCH  14  21
ATOM     20  C   UNL     1       6.659   3.864  15.714  0.00  0.00    +0.000 C 
ATOM     21  O   UNL     1       5.402   4.407  15.313  0.00  0.00    +0.000 OA
ENDBRANCH  14  21
BRANCH  19  22
ATOM     22  O   UNL     1       6.211   7.027  16.421  0.00  0.00    +0.000 OA
ATOM     23  C   UNL     1       7.268   7.196  17.346  0.00  0.00    +0.000 C 
ENDBRANCH  19  22
ENDBRANCH   1  17
BRANCH   7  24
ATOM     24  C   UNL     1      -1.390  11.692  23.036  0.00  0.00    +0.000 C 
BRANCH  24  25
ATOM     25  C   UNL     1      -1.522  13.195  23.074  0.00  0.00    +0.000 C 
ATOM     26  O   UNL     1      -0.548  13.933  23.206  0.00  0.00    +0.000 OA
ATOM     27  N   UNL     1      -2.807  13.688  22.971  0.00  0.00    +0.000 N 
ATOM     28  C   UNL     1      -4.031  12.935  22.762  0.00  0.00    +0.000 C 
ATOM     29  C   UNL     1      -4.939  13.933  22.069  0.00  0.00    +0.000 C 
ATOM     30  C   UNL     1      -4.563  15.260  22.719  0.00  0.00    +0.000 C 
ATOM     31  C   UNL     1      -3.087  15.109  23.079  0.00  0.00    +0.000 C 
ENDBRANCH  24  25
ENDBRANCH   7  24
TORSDOF 5
ENDMDL
