MODEL 1
REMARK VINA RESULT:      -7.3      0.000      0.000
REMARK  Name = 
REMARK  7 active torsions:
REMARK  status: ('A' for Active; 'I' for Inactive)
REMARK    1  A    between atoms: C_1  and  C_2
REMARK    2  A    between atoms: C_2  and  C_3
REMARK    3  A    between atoms: C_2  and  N_4
REMARK    4  A    between atoms: N_15  and  C_16
REMARK    5  A    between atoms: C_16  and  C_17
REMARK    6  A    between atoms: C_17  and  C_18
REMARK    7  A    between atoms: C_18  and  O_19
REMARK                            x       y       z     vdW  Elec       q    Type
REMARK                         _______ _______ _______ _____ _____    ______ ____
ROOT
ATOM      1  N   UNL     1       2.783   3.946  19.150  0.00  0.00    +0.000 N 
ATOM      2  C   UNL     1       2.121   3.419  18.065  0.00  0.00    +0.000 A 
ATOM      3  N   UNL     1       2.911   3.290  17.017  0.00  0.00    +0.000 NA
ATOM      4  C   UNL     1       4.126   3.780  17.437  0.00  0.00    +0.000 A 
ATOM      5  C   UNL     1       5.335   3.991  16.767  0.00  0.00    +0.000 A 
ATOM      6  N   UNL     1       5.492   3.639  15.421  0.00  0.00    +0.000 N 
ATOM      7  C   UNL     1       6.411   4.168  14.583  0.00  0.00    +0.000 C 
ATOM      8  N   UNL     1       7.332   5.029  14.839  0.00  0.00    +0.000 NA
ATOM      9  N   UNL     1       6.311   3.708  13.310  0.00  0.00    +0.000 N 
ATOM     10  N   UNL     1       6.345   4.581  17.462  0.00  0.00    +0.000 NA
ATOM     11  C   UNL     1       6.198   4.869  18.770  0.00  0.00    +0.000 A 
ATOM     12  N   UNL     1       7.265   5.424  19.422  0.00  0.00    +0.000 N 
ATOM     13  N   UNL     1       5.093   4.651  19.501  0.00  0.00    +0.000 NA
ATOM     14  C   UNL     1       4.084   4.154  18.771  0.00  0.00    +0.000 A 
ATOM     15  H   UNL     1       4.651   3.257  15.010  0.00  0.00    +0.000 HD
ATOM     16  H   UNL     1       7.238   5.245  15.844  0.00  0.00    +0.000 HD
ATOM     17  H   UNL     1       6.266   2.699  13.255  0.00  0.00    +0.000 HD
ATOM     18  H   UNL     1       7.093   4.063  12.776  0.00  0.00    +0.000 HD
ATOM     19  H   UNL     1       7.290   5.296  20.422  0.00  0.00    +0.000 HD
ENDROOT
BRANCH   1  21
ATOM     20  C   UNL     1       1.737   5.761  20.460  0.00  0.00    +0.000 C 
ATOM     21  C   UNL     1       2.198   4.298  20.438  0.00  0.00    +0.000 C 
ATOM     22  C   UNL     1       1.052   3.357  20.811  0.00  0.00    +0.000 C 
ENDBRANCH   1  21
BRANCH  12  23
ATOM     23  C   UNL     1       8.314   6.126  18.718  0.00  0.00    +0.000 C 
BRANCH  23  24
ATOM     24  C   UNL     1       8.142   7.633  18.802  0.00  0.00    +0.000 C 
BRANCH  24  25
ATOM     25  C   UNL     1       7.748   8.272  17.477  0.00  0.00    +0.000 C 
BRANCH  25  26
ATOM     26  O   UNL     1       6.976   7.341  16.723  0.00  0.00    +0.000 OA
ATOM     27  H   UNL     1       6.402   6.870  17.352  0.00  0.00    +0.000 HD
ENDBRANCH  25  26
ENDBRANCH  24  25
ENDBRANCH  23  24
ENDBRANCH  12  23
TORSDOF 5
ENDMDL
MODEL 2
REMARK VINA RESULT:      -7.0      0.880      1.150
REMARK  Name = 
REMARK  7 active torsions:
REMARK  status: ('A' for Active; 'I' for Inactive)
REMARK    1  A    between atoms: C_1  and  C_2
REMARK    2  A    between atoms: C_2  and  C_3
REMARK    3  A    between atoms: C_2  and  N_4
REMARK    4  A    between atoms: N_15  and  C_16
REMARK    5  A    between atoms: C_16  and  C_17
REMARK    6  A    between atoms: C_17  and  C_18
REMARK    7  A    between atoms: C_18  and  O_19
REMARK                            x       y       z     vdW  Elec       q    Type
REMARK                         _______ _______ _______ _____ _____    ______ ____
ROOT
ATOM      1  N   UNL     1       2.405   4.005  18.995  0.00  0.00    +0.000 N 
ATOM      2  C   UNL     1       1.820   3.435  17.888  0.00  0.00    +0.000 A 
ATOM      3  N   UNL     1       2.679   3.272  16.901  0.00  0.00    +0.000 NA
ATOM      4  C   UNL     1       3.862   3.784  17.384  0.00  0.00    +0.000 A 
ATOM      5  C   UNL     1       5.113   3.977  16.790  0.00  0.00    +0.000 A 
ATOM      6  N   UNL     1       5.361   3.577  15.471  0.00  0.00    +0.000 N 
ATOM      7  C   UNL     1       6.333   4.080  14.678  0.00  0.00    +0.000 C 
ATOM      8  N   UNL     1       7.233   4.955  14.964  0.00  0.00    +0.000 NA
ATOM      9  N   UNL     1       6.321   3.573  13.419  0.00  0.00    +0.000 N 
ATOM     10  N   UNL     1       6.072   4.597  17.529  0.00  0.00    +0.000 NA
ATOM     11  C   UNL     1       5.836   4.931  18.813  0.00  0.00    +0.000 A 
ATOM     12  N   UNL     1       6.855   5.515  19.515  0.00  0.00    +0.000 N 
ATOM     13  N   UNL     1       4.685   4.734  19.475  0.00  0.00    +0.000 NA
ATOM     14  C   UNL     1       3.728   4.206  18.697  0.00  0.00    +0.000 A 
ATOM     15  H   UNL     1       4.551   3.176  15.019  0.00  0.00    +0.000 HD
ATOM     16  H   UNL     1       7.070   5.206  15.952  0.00  0.00    +0.000 HD
ATOM     17  H   UNL     1       6.283   2.562  13.398  0.00  0.00    +0.000 HD
ATOM     18  H   UNL     1       7.136   3.912  12.926  0.00  0.00    +0.000 HD
ATOM     19  H   UNL     1       6.812   5.423  20.519  0.00  0.00    +0.000 HD
ENDROOT
BRANCH   1  21
ATOM     20  C   UNL     1       2.215   3.563  21.419  0.00  0.00    +0.000 C 
ATOM     21  C   UNL     1       1.734   4.400  20.227  0.00  0.00    +0.000 C 
ATOM     22  C   UNL     1       1.901   5.895  20.504  0.00  0.00    +0.000 C 
ENDBRANCH   1  21
BRANCH  12  23
ATOM     23  C   UNL     1       7.947   6.196  18.858  0.00  0.00    +0.000 C 
BRANCH  23  24
ATOM     24  C   UNL     1       7.454   7.158  17.790  0.00  0.00    +0.000 C 
BRANCH  24  25
ATOM     25  C   UNL     1       8.047   8.555  17.914  0.00  0.00    +0.000 C 
BRANCH  25  26
ATOM     26  O   UNL     1       8.898   8.600  19.056  0.00  0.00    +0.000 OA
ATOM     27  H   UNL     1       9.674   8.047  18.856  0.00  0.00    +0.000 HD
ENDBRANCH  25  26
ENDBRANCH  24  25
ENDBRANCH  23  24
ENDBRANCH  12  23
TORSDOF 5
ENDMDL
MODEL 3
REMARK VINA RESULT:      -6.7      1.263      1.348
REMARK  Name = 
REMARK  7 active torsions:
REMARK  status: ('A' for Active; 'I' for Inactive)
REMARK    1  A    between atoms: C_1  and  C_2
REMARK    2  A    between atoms: C_2  and  C_3
REMARK    3  A    between atoms: C_2  and  N_4
REMARK    4  A    between atoms: N_15  and  C_16
REMARK    5  A    between atoms: C_16  and  C_17
REMARK    6  A    between atoms: C_17  and  C_18
REMARK    7  A    between atoms: C_18  and  O_19
REMARK                            x       y       z     vdW  Elec       q    Type
REMARK                         _______ _______ _______ _____ _____    ______ ____
ROOT
ATOM      1  N   UNL     1       3.395   3.943  19.324  0.00  0.00    +0.000 N 
ATOM      2  C   UNL     1       2.831   3.008  18.488  0.00  0.00    +0.000 A 
ATOM      3  N   UNL     1       3.522   2.855  17.376  0.00  0.00    +0.000 NA
ATOM      4  C   UNL     1       4.562   3.750  17.489  0.00  0.00    +0.000 A 
ATOM      5  C   UNL     1       5.581   4.121  16.607  0.00  0.00    +0.000 A 
ATOM      6  N   UNL     1       5.714   3.514  15.353  0.00  0.00    +0.000 N 
ATOM      7  C   UNL     1       6.346   4.060  14.289  0.00  0.00    +0.000 C 
ATOM      8  N   UNL     1       6.978   5.178  14.217  0.00  0.00    +0.000 NA
ATOM      9  N   UNL     1       6.275   3.298  13.168  0.00  0.00    +0.000 N 
ATOM     10  N   UNL     1       6.421   5.117  16.999  0.00  0.00    +0.000 NA
ATOM     11  C   UNL     1       6.313   5.659  18.228  0.00  0.00    +0.000 A 
ATOM     12  N   UNL     1       7.213   6.628  18.577  0.00  0.00    +0.000 N 
ATOM     13  N   UNL     1       5.400   5.325  19.154  0.00  0.00    +0.000 NA
ATOM     14  C   UNL     1       4.529   4.406  18.709  0.00  0.00    +0.000 A 
ATOM     15  H   UNL     1       4.997   2.826  15.166  0.00  0.00    +0.000 HD
ATOM     16  H   UNL     1       6.915   5.594  15.159  0.00  0.00    +0.000 HD
ATOM     17  H   UNL     1       6.538   2.334  13.326  0.00  0.00    +0.000 HD
ATOM     18  H   UNL     1       6.859   3.717  12.456  0.00  0.00    +0.000 HD
ATOM     19  H   UNL     1       7.368   6.755  19.565  0.00  0.00    +0.000 HD
ENDROOT
BRANCH   1  21
ATOM     20  C   UNL     1       1.932   5.628  20.384  0.00  0.00    +0.000 C 
ATOM     21  C   UNL     1       2.851   4.417  20.591  0.00  0.00    +0.000 C 
ATOM     22  C   UNL     1       2.126   3.301  21.345  0.00  0.00    +0.000 C 
ENDBRANCH   1  21
BRANCH  12  23
ATOM     23  C   UNL     1       7.928   7.402  17.587  0.00  0.00    +0.000 C 
BRANCH  23  24
ATOM     24  C   UNL     1       7.698   8.894  17.763  0.00  0.00    +0.000 C 
BRANCH  24  25
ATOM     25  C   UNL     1       8.781   9.579  18.586  0.00  0.00    +0.000 C 
BRANCH  25  26
ATOM     26  O   UNL     1       8.953  10.913  18.111  0.00  0.00    +0.000 OA
ATOM     27  H   UNL     1       9.313  11.434  18.850  0.00  0.00    +0.000 HD
ENDBRANCH  25  26
ENDBRANCH  24  25
ENDBRANCH  23  24
ENDBRANCH  12  23
TORSDOF 5
ENDMDL
MODEL 4
REMARK VINA RESULT:      -6.5      2.568      6.347
REMARK  Name = 
REMARK  7 active torsions:
REMARK  status: ('A' for Active; 'I' for Inactive)
REMARK    1  A    between atoms: C_1  and  C_2
REMARK    2  A    between atoms: C_2  and  C_3
REMARK    3  A    between atoms: C_2  and  N_4
REMARK    4  A    between atoms: N_15  and  C_16
REMARK    5  A    between atoms: C_16  and  C_17
REMARK    6  A    between atoms: C_17  and  C_18
REMARK    7  A    between atoms: C_18  and  O_19
REMARK                            x       y       z     vdW  Elec       q    Type
REMARK                         _______ _______ _______ _____ _____    ______ ____
ROOT
ATOM      1  N   UNL     1       6.559   3.701  12.988  0.00  0.00    +0.000 N 
ATOM      2  C   UNL     1       7.455   4.668  12.596  0.00  0.00    +0.000 A 
ATOM      3  N   UNL     1       7.781   5.474  13.586  0.00  0.00    +0.000 NA
ATOM      4  C   UNL     1       7.042   5.024  14.656  0.00  0.00    +0.000 A 
ATOM      5  C   UNL     1       6.883   5.509  15.958  0.00  0.00    +0.000 A 
ATOM      6  N   UNL     1       7.585   6.634  16.406  0.00  0.00    +0.000 N 
ATOM      7  C   UNL     1       7.210   7.424  17.436  0.00  0.00    +0.000 C 
ATOM      8  N   UNL     1       6.203   7.291  18.226  0.00  0.00    +0.000 NA
ATOM      9  N   UNL     1       8.027   8.491  17.626  0.00  0.00    +0.000 N 
ATOM     10  N   UNL     1       5.996   4.867  16.765  0.00  0.00    +0.000 NA
ATOM     11  C   UNL     1       5.363   3.756  16.338  0.00  0.00    +0.000 A 
ATOM     12  N   UNL     1       4.515   3.133  17.212  0.00  0.00    +0.000 N 
ATOM     13  N   UNL     1       5.498   3.194  15.127  0.00  0.00    +0.000 NA
ATOM     14  C   UNL     1       6.307   3.897  14.321  0.00  0.00    +0.000 A 
ATOM     15  H   UNL     1       8.172   7.045  15.693  0.00  0.00    +0.000 HD
ATOM     16  H   UNL     1       5.720   6.432  17.917  0.00  0.00    +0.000 HD
ATOM     17  H   UNL     1       9.006   8.240  17.662  0.00  0.00    +0.000 HD
ATOM     18  H   UNL     1       7.746   8.966  18.473  0.00  0.00    +0.000 HD
ATOM     19  H   UNL     1       4.345   2.153  17.044  0.00  0.00    +0.000 HD
ENDROOT
BRANCH   1  21
ATOM     20  C   UNL     1       4.673   3.267  11.451  0.00  0.00    +0.000 C 
ATOM     21  C   UNL     1       5.927   2.704  12.133  0.00  0.00    +0.000 C 
ATOM     22  C   UNL     1       6.908   2.144  11.101  0.00  0.00    +0.000 C 
ENDBRANCH   1  21
BRANCH  12  23
ATOM     23  C   UNL     1       3.920   3.829  18.331  0.00  0.00    +0.000 C 
BRANCH  23  24
ATOM     24  C   UNL     1       2.503   4.284  18.026  0.00  0.00    +0.000 C 
BRANCH  24  25
ATOM     25  C   UNL     1       1.446   3.245  18.373  0.00  0.00    +0.000 C 
BRANCH  25  26
ATOM     26  O   UNL     1       1.808   1.998  17.785  0.00  0.00    +0.000 OA
ATOM     27  H   UNL     1       2.234   2.197  16.933  0.00  0.00    +0.000 HD
ENDBRANCH  25  26
ENDBRANCH  24  25
ENDBRANCH  23  24
ENDBRANCH  12  23
TORSDOF 5
ENDMDL
MODEL 5
REMARK VINA RESULT:      -6.5      2.185      6.000
REMARK  Name = 
REMARK  7 active torsions:
REMARK  status: ('A' for Active; 'I' for Inactive)
REMARK    1  A    between atoms: C_1  and  C_2
REMARK    2  A    between atoms: C_2  and  C_3
REMARK    3  A    between atoms: C_2  and  N_4
REMARK    4  A    between atoms: N_15  and  C_16
REMARK    5  A    between atoms: C_16  and  C_17
REMARK    6  A    between atoms: C_17  and  C_18
REMARK    7  A    between atoms: C_18  and  O_19
REMARK                            x       y       z     vdW  Elec       q    Type
REMARK                         _______ _______ _______ _____ _____    ______ ____
ROOT
ATOM      1  N   UNL     1       6.397   3.635  12.949  0.00  0.00    +0.000 N 
ATOM      2  C   UNL     1       7.282   4.597  12.523  0.00  0.00    +0.000 A 
ATOM      3  N   UNL     1       7.654   5.399  13.501  0.00  0.00    +0.000 NA
ATOM      4  C   UNL     1       6.956   4.950  14.599  0.00  0.00    +0.000 A 
ATOM      5  C   UNL     1       6.854   5.432  15.908  0.00  0.00    +0.000 A 
ATOM      6  N   UNL     1       7.582   6.552  16.329  0.00  0.00    +0.000 N 
ATOM      7  C   UNL     1       7.254   7.341  17.376  0.00  0.00    +0.000 C 
ATOM      8  N   UNL     1       6.279   7.212  18.206  0.00  0.00    +0.000 NA
ATOM      9  N   UNL     1       8.085   8.403  17.535  0.00  0.00    +0.000 N 
ATOM     10  N   UNL     1       5.996   4.794  16.749  0.00  0.00    +0.000 NA
ATOM     11  C   UNL     1       5.340   3.688  16.346  0.00  0.00    +0.000 A 
ATOM     12  N   UNL     1       4.524   3.068  17.252  0.00  0.00    +0.000 N 
ATOM     13  N   UNL     1       5.421   3.129  15.129  0.00  0.00    +0.000 NA
ATOM     14  C   UNL     1       6.201   3.829  14.292  0.00  0.00    +0.000 A 
ATOM     15  H   UNL     1       8.141   6.961  15.594  0.00  0.00    +0.000 HD
ATOM     16  H   UNL     1       5.779   6.358  17.915  0.00  0.00    +0.000 HD
ATOM     17  H   UNL     1       9.063   8.146  17.530  0.00  0.00    +0.000 HD
ATOM     18  H   UNL     1       7.842   8.877  18.394  0.00  0.00    +0.000 HD
ATOM     19  H   UNL     1       4.341   2.090  17.089  0.00  0.00    +0.000 HD
ENDROOT
BRANCH   1  21
ATOM     20  C   UNL     1       4.515   3.252  11.394  0.00  0.00    +0.000 C 
ATOM     21  C   UNL     1       5.723   2.644  12.118  0.00  0.00    +0.000 C 
ATOM     22  C   UNL     1       6.688   1.994  11.126  0.00  0.00    +0.000 C 
ENDBRANCH   1  21
BRANCH  12  23
ATOM     23  C   UNL     1       3.980   3.765  18.396  0.00  0.00    +0.000 C 
BRANCH  23  24
ATOM     24  C   UNL     1       2.650   4.426  18.076  0.00  0.00    +0.000 C 
BRANCH  24  25
ATOM     25  C   UNL     1       2.635   5.922  18.359  0.00  0.00    +0.000 C 
BRANCH  25  26
ATOM     26  O   UNL     1       3.606   6.562  17.534  0.00  0.00    +0.000 OA
ATOM     27  H   UNL     1       3.251   7.438  17.303  0.00  0.00    +0.000 HD
ENDBRANCH  25  26
ENDBRANCH  24  25
ENDBRANCH  23  24
ENDBRANCH  12  23
TORSDOF 5
ENDMDL
MODEL 6
REMARK VINA RESULT:      -6.4      2.413      6.211
REMARK  Name = 
REMARK  7 active torsions:
REMARK  status: ('A' for Active; 'I' for Inactive)
REMARK    1  A    between atoms: C_1  and  C_2
REMARK    2  A    between atoms: C_2  and  C_3
REMARK    3  A    between atoms: C_2  and  N_4
REMARK    4  A    between atoms: N_15  and  C_16
REMARK    5  A    between atoms: C_16  and  C_17
REMARK    6  A    between atoms: C_17  and  C_18
REMARK    7  A    between atoms: C_18  and  O_19
REMARK                            x       y       z     vdW  Elec       q    Type
REMARK                         _______ _______ _______ _____ _____    ______ ____
ROOT
ATOM      1  N   UNL     1       6.438   3.664  13.001  0.00  0.00    +0.000 N 
ATOM      2  C   UNL     1       7.425   4.542  12.618  0.00  0.00    +0.000 A 
ATOM      3  N   UNL     1       7.775   5.354  13.595  0.00  0.00    +0.000 NA
ATOM      4  C   UNL     1       6.957   5.002  14.646  0.00  0.00    +0.000 A 
ATOM      5  C   UNL     1       6.785   5.544  15.923  0.00  0.00    +0.000 A 
ATOM      6  N   UNL     1       7.558   6.624  16.365  0.00  0.00    +0.000 N 
ATOM      7  C   UNL     1       7.206   7.478  17.352  0.00  0.00    +0.000 C 
ATOM      8  N   UNL     1       6.159   7.453  18.101  0.00  0.00    +0.000 NA
ATOM      9  N   UNL     1       8.098   8.482  17.544  0.00  0.00    +0.000 N 
ATOM     10  N   UNL     1       5.816   5.004  16.710  0.00  0.00    +0.000 NA
ATOM     11  C   UNL     1       5.113   3.932  16.292  0.00  0.00    +0.000 A 
ATOM     12  N   UNL     1       4.182   3.411  17.147  0.00  0.00    +0.000 N 
ATOM     13  N   UNL     1       5.252   3.319  15.106  0.00  0.00    +0.000 NA
ATOM     14  C   UNL     1       6.148   3.927  14.314  0.00  0.00    +0.000 A 
ATOM     15  H   UNL     1       8.205   6.962  15.666  0.00  0.00    +0.000 HD
ATOM     16  H   UNL     1       5.621   6.626  17.799  0.00  0.00    +0.000 HD
ATOM     17  H   UNL     1       9.051   8.155  17.631  0.00  0.00    +0.000 HD
ATOM     18  H   UNL     1       7.822   9.008  18.362  0.00  0.00    +0.000 HD
ATOM     19  H   UNL     1       3.940   2.442  17.003  0.00  0.00    +0.000 HD
ENDROOT
BRANCH   1  21
ATOM     20  C   UNL     1       4.575   3.324  11.413  0.00  0.00    +0.000 C 
ATOM     21  C   UNL     1       5.762   2.691  12.151  0.00  0.00    +0.000 C 
ATOM     22  C   UNL     1       6.732   2.034  11.167  0.00  0.00    +0.000 C 
ENDBRANCH   1  21
BRANCH  12  23
ATOM     23  C   UNL     1       3.600   4.191  18.216  0.00  0.00    +0.000 C 
BRANCH  23  24
ATOM     24  C   UNL     1       2.995   3.309  19.296  0.00  0.00    +0.000 C 
BRANCH  24  25
ATOM     25  C   UNL     1       3.922   2.190  19.751  0.00  0.00    +0.000 C 
BRANCH  25  26
ATOM     26  O   UNL     1       5.264   2.672  19.764  0.00  0.00    +0.000 OA
ATOM     27  H   UNL     1       5.828   1.937  20.060  0.00  0.00    +0.000 HD
ENDBRANCH  25  26
ENDBRANCH  24  25
ENDBRANCH  23  24
ENDBRANCH  12  23
TORSDOF 5
ENDMDL
MODEL 7
REMARK VINA RESULT:      -6.3      2.738      3.558
REMARK  Name = 
REMARK  7 active torsions:
REMARK  status: ('A' for Active; 'I' for Inactive)
REMARK    1  A    between atoms: C_1  and  C_2
REMARK    2  A    between atoms: C_2  and  C_3
REMARK    3  A    between atoms: C_2  and  N_4
REMARK    4  A    between atoms: N_15  and  C_16
REMARK    5  A    between atoms: C_16  and  C_17
REMARK    6  A    between atoms: C_17  and  C_18
REMARK    7  A    between atoms: C_18  and  O_19
REMARK                            x       y       z     vdW  Elec       q    Type
REMARK                         _______ _______ _______ _____ _____    ______ ____
ROOT
ATOM      1  N   UNL     1       2.735   2.662  19.304  0.00  0.00    +0.000 N 
ATOM      2  C   UNL     1       3.556   1.770  18.654  0.00  0.00    +0.000 A 
ATOM      3  N   UNL     1       4.399   2.373  17.840  0.00  0.00    +0.000 NA
ATOM      4  C   UNL     1       4.090   3.709  17.949  0.00  0.00    +0.000 A 
ATOM      5  C   UNL     1       4.567   4.841  17.281  0.00  0.00    +0.000 A 
ATOM      6  N   UNL     1       5.585   4.745  16.325  0.00  0.00    +0.000 N 
ATOM      7  C   UNL     1       5.814   5.645  15.343  0.00  0.00    +0.000 C 
ATOM      8  N   UNL     1       5.210   6.758  15.115  0.00  0.00    +0.000 NA
ATOM      9  N   UNL     1       6.819   5.287  14.504  0.00  0.00    +0.000 N 
ATOM     10  N   UNL     1       3.982   6.035  17.569  0.00  0.00    +0.000 NA
ATOM     11  C   UNL     1       3.038   6.121  18.527  0.00  0.00    +0.000 A 
ATOM     12  N   UNL     1       2.519   7.357  18.798  0.00  0.00    +0.000 N 
ATOM     13  N   UNL     1       2.562   5.096  19.251  0.00  0.00    +0.000 NA
ATOM     14  C   UNL     1       3.088   3.918  18.884  0.00  0.00    +0.000 A 
ATOM     15  H   UNL     1       5.896   3.796  16.170  0.00  0.00    +0.000 HD
ATOM     16  H   UNL     1       4.493   6.841  15.853  0.00  0.00    +0.000 HD
ATOM     17  H   UNL     1       7.664   5.015  14.989  0.00  0.00    +0.000 HD
ATOM     18  H   UNL     1       7.000   6.055  13.870  0.00  0.00    +0.000 HD
ATOM     19  H   UNL     1       2.117   7.479  19.715  0.00  0.00    +0.000 HD
ENDROOT
BRANCH   1  21
ATOM     20  C   UNL     1       1.929   2.811  21.635  0.00  0.00    +0.000 C 
ATOM     21  C   UNL     1       1.637   2.336  20.206  0.00  0.00    +0.000 C 
ATOM     22  C   UNL     1       0.308   2.900  19.701  0.00  0.00    +0.000 C 
ENDBRANCH   1  21
BRANCH  12  23
ATOM     23  C   UNL     1       2.570   8.438  17.839  0.00  0.00    +0.000 C 
BRANCH  23  24
ATOM     24  C   UNL     1       1.415   9.409  18.018  0.00  0.00    +0.000 C 
BRANCH  24  25
ATOM     25  C   UNL     1       1.862  10.821  18.372  0.00  0.00    +0.000 C 
BRANCH  25  26
ATOM     26  O   UNL     1       2.528  11.394  17.249  0.00  0.00    +0.000 OA
ATOM     27  H   UNL     1       2.823  10.657  16.686  0.00  0.00    +0.000 HD
ENDBRANCH  25  26
ENDBRANCH  24  25
ENDBRANCH  23  24
ENDBRANCH  12  23
TORSDOF 5
ENDMDL
MODEL 8
REMARK VINA RESULT:      -6.3      3.213      5.660
REMARK  Name = 
REMARK  7 active torsions:
REMARK  status: ('A' for Active; 'I' for Inactive)
REMARK    1  A    between atoms: C_1  and  C_2
REMARK    2  A    between atoms: C_2  and  C_3
REMARK    3  A    between atoms: C_2  and  N_4
REMARK    4  A    between atoms: N_15  and  C_16
REMARK    5  A    between atoms: C_16  and  C_17
REMARK    6  A    between atoms: C_17  and  C_18
REMARK    7  A    between atoms: C_18  and  O_19
REMARK                            x       y       z     vdW  Elec       q    Type
REMARK                         _______ _______ _______ _____ _____    ______ ____
ROOT
ATOM      1  N   UNL     1       1.459   8.923  19.228  0.00  0.00    +0.000 N 
ATOM      2  C   UNL     1       0.821   8.760  20.436  0.00  0.00    +0.000 A 
ATOM      3  N   UNL     1       1.132   7.615  21.011  0.00  0.00    +0.000 NA
ATOM      4  C   UNL     1       1.985   7.002  20.122  0.00  0.00    +0.000 A 
ATOM      5  C   UNL     1       2.588   5.740  20.116  0.00  0.00    +0.000 A 
ATOM      6  N   UNL     1       2.409   4.845  21.177  0.00  0.00    +0.000 N 
ATOM      7  C   UNL     1       2.562   3.504  21.096  0.00  0.00    +0.000 C 
ATOM      8  N   UNL     1       2.939   2.798  20.088  0.00  0.00    +0.000 NA
ATOM      9  N   UNL     1       2.264   2.854  22.249  0.00  0.00    +0.000 N 
ATOM     10  N   UNL     1       3.328   5.401  19.026  0.00  0.00    +0.000 NA
ATOM     11  C   UNL     1       3.532   6.290  18.034  0.00  0.00    +0.000 A 
ATOM     12  N   UNL     1       4.319   5.902  16.985  0.00  0.00    +0.000 N 
ATOM     13  N   UNL     1       3.037   7.536  17.986  0.00  0.00    +0.000 NA
ATOM     14  C   UNL     1       2.238   7.814  19.027  0.00  0.00    +0.000 A 
ATOM     15  H   UNL     1       1.797   5.201  21.899  0.00  0.00    +0.000 HD
ATOM     16  H   UNL     1       3.113   3.472  19.327  0.00  0.00    +0.000 HD
ATOM     17  H   UNL     1       2.722   3.251  23.059  0.00  0.00    +0.000 HD
ATOM     18  H   UNL     1       2.507   1.878  22.141  0.00  0.00    +0.000 HD
ATOM     19  H   UNL     1       4.761   6.643  16.463  0.00  0.00    +0.000 HD
ENDROOT
BRANCH   1  21
ATOM     20  C   UNL     1      -0.184  10.156  17.854  0.00  0.00    +0.000 C 
ATOM     21  C   UNL     1       1.280  10.028  18.294  0.00  0.00    +0.000 C 
ATOM     22  C   UNL     1       1.795  11.345  18.875  0.00  0.00    +0.000 C 
ENDBRANCH   1  21
BRANCH  12  23
ATOM     23  C   UNL     1       4.534   4.509  16.662  0.00  0.00    +0.000 C 
BRANCH  23  24
ATOM     24  C   UNL     1       5.847   4.294  15.927  0.00  0.00    +0.000 C 
BRANCH  24  25
ATOM     25  C   UNL     1       7.071   4.454  16.817  0.00  0.00    +0.000 C 
BRANCH  25  26
ATOM     26  O   UNL     1       6.707   4.172  18.166  0.00  0.00    +0.000 OA
ATOM     27  H   UNL     1       7.133   3.331  18.406  0.00  0.00    +0.000 HD
ENDBRANCH  25  26
ENDBRANCH  24  25
ENDBRANCH  23  24
ENDBRANCH  12  23
TORSDOF 5
ENDMDL
MODEL 9
REMARK VINA RESULT:      -6.2      2.866      3.828
REMARK  Name = 
REMARK  7 active torsions:
REMARK  status: ('A' for Active; 'I' for Inactive)
REMARK    1  A    between atoms: C_1  and  C_2
REMARK    2  A    between atoms: C_2  and  C_3
REMARK    3  A    between atoms: C_2  and  N_4
REMARK    4  A    between atoms: N_15  and  C_16
REMARK    5  A    between atoms: C_16  and  C_17
REMARK    6  A    between atoms: C_17  and  C_18
REMARK    7  A    between atoms: C_18  and  O_19
REMARK                            x       y       z     vdW  Elec       q    Type
REMARK                         _______ _______ _______ _____ _____    ______ ____
ROOT
ATOM      1  N   UNL     1       2.918   2.867  19.740  0.00  0.00    +0.000 N 
ATOM      2  C   UNL     1       3.863   1.994  19.252  0.00  0.00    +0.000 A 
ATOM      3  N   UNL     1       4.736   2.595  18.469  0.00  0.00    +0.000 NA
ATOM      4  C   UNL     1       4.319   3.906  18.428  0.00  0.00    +0.000 A 
ATOM      5  C   UNL     1       4.775   5.014  17.707  0.00  0.00    +0.000 A 
ATOM      6  N   UNL     1       5.887   4.924  16.861  0.00  0.00    +0.000 N 
ATOM      7  C   UNL     1       6.145   5.756  15.827  0.00  0.00    +0.000 C 
ATOM      8  N   UNL     1       5.485   6.793  15.445  0.00  0.00    +0.000 NA
ATOM      9  N   UNL     1       7.252   5.413  15.120  0.00  0.00    +0.000 N 
ATOM     10  N   UNL     1       4.078   6.176  17.831  0.00  0.00    +0.000 NA
ATOM     11  C   UNL     1       3.040   6.263  18.686  0.00  0.00    +0.000 A 
ATOM     12  N   UNL     1       2.407   7.470  18.796  0.00  0.00    +0.000 N 
ATOM     13  N   UNL     1       2.572   5.266  19.453  0.00  0.00    +0.000 NA
ATOM     14  C   UNL     1       3.218   4.109  19.244  0.00  0.00    +0.000 A 
ATOM     15  H   UNL     1       6.281   3.994  16.821  0.00  0.00    +0.000 HD
ATOM     16  H   UNL     1       4.696   6.877  16.104  0.00  0.00    +0.000 HD
ATOM     17  H   UNL     1       8.062   5.253  15.704  0.00  0.00    +0.000 HD
ATOM     18  H   UNL     1       7.437   6.138  14.440  0.00  0.00    +0.000 HD
ATOM     19  H   UNL     1       1.909   7.634  19.658  0.00  0.00    +0.000 HD
ENDROOT
BRANCH   1  21
ATOM     20  C   UNL     1       1.943   3.018  22.006  0.00  0.00    +0.000 C 
ATOM     21  C   UNL     1       1.764   2.527  20.563  0.00  0.00    +0.000 C 
ATOM     22  C   UNL     1       0.465   3.063  19.959  0.00  0.00    +0.000 C 
ENDBRANCH   1  21
BRANCH  12  23
ATOM     23  C   UNL     1       2.472   8.468  17.752  0.00  0.00    +0.000 C 
BRANCH  23  24
ATOM     24  C   UNL     1       1.311   9.445  17.829  0.00  0.00    +0.000 C 
BRANCH  24  25
ATOM     25  C   UNL     1       1.202  10.151  19.174  0.00  0.00    +0.000 C 
BRANCH  25  26
ATOM     26  O   UNL     1       0.446   9.337  20.067  0.00  0.00    +0.000 OA
ATOM     27  H   UNL     1       1.068   8.983  20.726  0.00  0.00    +0.000 HD
ENDBRANCH  25  26
ENDBRANCH  24  25
ENDBRANCH  23  24
ENDBRANCH  12  23
TORSDOF 5
ENDMDL
