MODEL 1
REMARK VINA RESULT:      -7.2      0.000      0.000
REMARK  Name = 
REMARK  9 active torsions:
REMARK  status: ('A' for Active; 'I' for Inactive)
REMARK    1  A    between atoms: C_1  and  O_2
REMARK    2  A    between atoms: O_2  and  C_3
REMARK    3  A    between atoms: C_7  and  C_8
REMARK    4  A    between atoms: C_9  and  C_10
REMARK    5  A    between atoms: N_12  and  C_13
REMARK    6  A    between atoms: N_12  and  C_22
REMARK    7  A    between atoms: C_13  and  C_14
REMARK    8  A    between atoms: C_14  and  C_15
REMARK    9  A    between atoms: C_15  and  N_16
REMARK                            x       y       z     vdW  Elec       q    Type
REMARK                         _______ _______ _______ _____ _____    ______ ____
ROOT
ATOM      1  C   UNL     1       6.684   5.341  16.890  0.00  0.00    +0.000 C 
ATOM      2  O   UNL     1       7.314   4.725  16.026  0.00  0.00    +0.000 OA
ATOM      3  N   UNL     1       5.388   4.868  17.290  0.00  0.00    +0.000 N 
ENDROOT
BRANCH   1  10
ATOM      4  C   UNL     1       8.942  10.816  18.084  0.00  0.00    +0.000 A 
ATOM      5  C   UNL     1       9.304  10.301  19.328  0.00  0.00    +0.000 A 
ATOM      6  C   UNL     1       8.973   8.992  19.684  0.00  0.00    +0.000 A 
ATOM      7  C   UNL     1       8.284   8.183  18.758  0.00  0.00    +0.000 A 
ATOM      8  C   UNL     1       7.961   6.792  18.680  0.00  0.00    +0.000 A 
ATOM      9  C   UNL     1       8.461   5.775  19.642  0.00  0.00    +0.000 C 
ATOM     10  C   UNL     1       7.244   6.592  17.493  0.00  0.00    +0.000 A 
ATOM     11  O   UNL     1       7.158   7.815  16.838  0.00  0.00    +0.000 OA
ATOM     12  C   UNL     1       7.852   8.748  17.569  0.00  0.00    +0.000 A 
ATOM     13  C   UNL     1       8.147  10.070  17.194  0.00  0.00    +0.000 A 
BRANCH   4  15
ATOM     14  C   UNL     1      10.831  12.217  17.820  0.00  0.00    +0.000 C 
ATOM     15  O   UNL     1       9.415  12.083  17.856  0.00  0.00    +0.000 OA
ENDBRANCH   4  15
ENDBRANCH   1  10
BRANCH   3  16
ATOM     16  C   UNL     1       4.462   5.796  17.831  0.00  0.00    +0.000 A 
ATOM     17  C   UNL     1       3.996   5.674  19.154  0.00  0.00    +0.000 A 
ATOM     18  C   UNL     1       3.066   6.579  19.632  0.00  0.00    +0.000 A 
ATOM     19  C   UNL     1       2.607   7.606  18.816  0.00  0.00    +0.000 A 
ATOM     20  C   UNL     1       3.107   7.754  17.522  0.00  0.00    +0.000 A 
ATOM     21  C   UNL     1       4.046   6.855  17.036  0.00  0.00    +0.000 A 
ENDBRANCH   3  16
BRANCH   3  22
ATOM     22  C   UNL     1       4.701   3.756  16.551  0.00  0.00    +0.000 C 
BRANCH  22  23
ATOM     23  C   UNL     1       3.193   3.476  16.758  0.00  0.00    +0.000 C 
BRANCH  23  24
ATOM     24  C   UNL     1       2.648   2.218  17.487  0.00  0.00    +0.000 C 
BRANCH  24  25
ATOM     25  N   UNL     1       2.297   2.157  18.940  0.00  0.00    +0.000 NA
ATOM     26  C   UNL     1       3.464   2.337  19.836  0.00  0.00    +0.000 C 
ATOM     27  C   UNL     1       3.097   2.476  21.335  0.00  0.00    +0.000 C 
ATOM     28  C   UNL     1       2.010   3.507  21.618  0.00  0.00    +0.000 C 
ATOM     29  C   UNL     1       0.855   3.355  20.646  0.00  0.00    +0.000 C 
ATOM     30  C   UNL     1       1.338   3.268  19.197  0.00  0.00    +0.000 C 
ENDBRANCH  24  25
ENDBRANCH  23  24
ENDBRANCH  22  23
ENDBRANCH   3  22
TORSDOF 7
ENDMDL
MODEL 2
REMARK VINA RESULT:      -6.7      0.534      1.041
REMARK  Name = 
REMARK  9 active torsions:
REMARK  status: ('A' for Active; 'I' for Inactive)
REMARK    1  A    between atoms: C_1  and  O_2
REMARK    2  A    between atoms: O_2  and  C_3
REMARK    3  A    between atoms: C_7  and  C_8
REMARK    4  A    between atoms: C_9  and  C_10
REMARK    5  A    between atoms: N_12  and  C_13
REMARK    6  A    between atoms: N_12  and  C_22
REMARK    7  A    between atoms: C_13  and  C_14
REMARK    8  A    between atoms: C_14  and  C_15
REMARK    9  A    between atoms: C_15  and  N_16
REMARK                            x       y       z     vdW  Elec       q    Type
REMARK                         _______ _______ _______ _____ _____    ______ ____
ROOT
ATOM      1  C   UNL     1       6.758   5.550  16.601  0.00  0.00    +0.000 C 
ATOM      2  O   UNL     1       7.417   4.997  15.715  0.00  0.00    +0.000 OA
ATOM      3  N   UNL     1       5.444   5.062  16.912  0.00  0.00    +0.000 N 
ENDROOT
BRANCH   1  10
ATOM      4  C   UNL     1       9.019  10.887  18.305  0.00  0.00    +0.000 A 
ATOM      5  C   UNL     1       9.321  10.274  19.521  0.00  0.00    +0.000 A 
ATOM      6  C   UNL     1       8.961   8.946  19.761  0.00  0.00    +0.000 A 
ATOM      7  C   UNL     1       8.305   8.220  18.747  0.00  0.00    +0.000 A 
ATOM      8  C   UNL     1       7.971   6.843  18.549  0.00  0.00    +0.000 A 
ATOM      9  C   UNL     1       8.418   5.750  19.451  0.00  0.00    +0.000 C 
ATOM     10  C   UNL     1       7.305   6.744  17.320  0.00  0.00    +0.000 A 
ATOM     11  O   UNL     1       7.260   8.014  16.758  0.00  0.00    +0.000 OA
ATOM     12  C   UNL     1       7.931   8.879  17.587  0.00  0.00    +0.000 A 
ATOM     13  C   UNL     1       8.256  10.221  17.328  0.00  0.00    +0.000 A 
BRANCH   4  15
ATOM     14  C   UNL     1      10.932  12.269  18.120  0.00  0.00    +0.000 C 
ATOM     15  O   UNL     1       9.515  12.162  18.195  0.00  0.00    +0.000 OA
ENDBRANCH   4  15
ENDBRANCH   1  10
BRANCH   3  16
ATOM     16  C   UNL     1       4.505   5.955  17.488  0.00  0.00    +0.000 A 
ATOM     17  C   UNL     1       3.993   7.045  16.760  0.00  0.00    +0.000 A 
ATOM     18  C   UNL     1       3.107   7.914  17.369  0.00  0.00    +0.000 A 
ATOM     19  C   UNL     1       2.716   7.703  18.687  0.00  0.00    +0.000 A 
ATOM     20  C   UNL     1       3.187   6.594  19.391  0.00  0.00    +0.000 A 
ATOM     21  C   UNL     1       4.072   5.713  18.784  0.00  0.00    +0.000 A 
ENDBRANCH   3  16
BRANCH   3  22
ATOM     22  C   UNL     1       4.777   4.019  16.062  0.00  0.00    +0.000 C 
BRANCH  22  23
ATOM     23  C   UNL     1       3.834   2.965  16.690  0.00  0.00    +0.000 C 
BRANCH  23  24
ATOM     24  C   UNL     1       4.094   2.295  18.066  0.00  0.00    +0.000 C 
BRANCH  24  25
ATOM     25  N   UNL     1       3.080   2.165  19.159  0.00  0.00    +0.000 NA
ATOM     26  C   UNL     1       3.567   2.649  20.473  0.00  0.00    +0.000 C 
ATOM     27  C   UNL     1       2.474   2.709  21.571  0.00  0.00    +0.000 C 
ATOM     28  C   UNL     1       1.200   3.432  21.144  0.00  0.00    +0.000 C 
ATOM     29  C   UNL     1       0.757   2.976  19.766  0.00  0.00    +0.000 C 
ATOM     30  C   UNL     1       1.911   2.997  18.761  0.00  0.00    +0.000 C 
ENDBRANCH  24  25
ENDBRANCH  23  24
ENDBRANCH  22  23
ENDBRANCH   3  22
TORSDOF 7
ENDMDL
MODEL 3
REMARK VINA RESULT:      -6.6      0.559      1.060
REMARK  Name = 
REMARK  9 active torsions:
REMARK  status: ('A' for Active; 'I' for Inactive)
REMARK    1  A    between atoms: C_1  and  O_2
REMARK    2  A    between atoms: O_2  and  C_3
REMARK    3  A    between atoms: C_7  and  C_8
REMARK    4  A    between atoms: C_9  and  C_10
REMARK    5  A    between atoms: N_12  and  C_13
REMARK    6  A    between atoms: N_12  and  C_22
REMARK    7  A    between atoms: C_13  and  C_14
REMARK    8  A    between atoms: C_14  and  C_15
REMARK    9  A    between atoms: C_15  and  N_16
REMARK                            x       y       z     vdW  Elec       q    Type
REMARK                         _______ _______ _______ _____ _____    ______ ____
ROOT
ATOM      1  C   UNL     1       6.786   5.550  16.665  0.00  0.00    +0.000 C 
ATOM      2  O   UNL     1       7.407   5.040  15.728  0.00  0.00    +0.000 OA
ATOM      3  N   UNL     1       5.520   4.996  17.057  0.00  0.00    +0.000 N 
ENDROOT
BRANCH   1  10
ATOM      4  C   UNL     1       9.024  10.926  18.275  0.00  0.00    +0.000 A 
ATOM      5  C   UNL     1       9.312  10.340  19.507  0.00  0.00    +0.000 A 
ATOM      6  C   UNL     1       8.951   9.018  19.773  0.00  0.00    +0.000 A 
ATOM      7  C   UNL     1       8.306   8.269  18.768  0.00  0.00    +0.000 A 
ATOM      8  C   UNL     1       7.975   6.887  18.597  0.00  0.00    +0.000 A 
ATOM      9  C   UNL     1       8.412   5.815  19.529  0.00  0.00    +0.000 C 
ATOM     10  C   UNL     1       7.323   6.760  17.364  0.00  0.00    +0.000 A 
ATOM     11  O   UNL     1       7.284   8.017  16.772  0.00  0.00    +0.000 OA
ATOM     12  C   UNL     1       7.946   8.901  17.590  0.00  0.00    +0.000 A 
ATOM     13  C   UNL     1       8.272  10.238  17.304  0.00  0.00    +0.000 A 
BRANCH   4  15
ATOM     14  C   UNL     1       9.855  12.860  19.356  0.00  0.00    +0.000 C 
ATOM     15  O   UNL     1       9.520  12.198  18.142  0.00  0.00    +0.000 OA
ENDBRANCH   4  15
ENDBRANCH   1  10
BRANCH   3  16
ATOM     16  C   UNL     1       4.582   5.835  17.709  0.00  0.00    +0.000 A 
ATOM     17  C   UNL     1       4.221   5.621  19.053  0.00  0.00    +0.000 A 
ATOM     18  C   UNL     1       3.276   6.440  19.642  0.00  0.00    +0.000 A 
ATOM     19  C   UNL     1       2.698   7.475  18.914  0.00  0.00    +0.000 A 
ATOM     20  C   UNL     1       3.092   7.716  17.598  0.00  0.00    +0.000 A 
ATOM     21  C   UNL     1       4.047   6.903  17.002  0.00  0.00    +0.000 A 
ENDBRANCH   3  16
BRANCH   3  22
ATOM     22  C   UNL     1       4.846   3.932  16.239  0.00  0.00    +0.000 C 
BRANCH  22  23
ATOM     23  C   UNL     1       4.446   2.577  16.870  0.00  0.00    +0.000 C 
BRANCH  23  24
ATOM     24  C   UNL     1       3.075   2.322  17.551  0.00  0.00    +0.000 C 
BRANCH  24  25
ATOM     25  N   UNL     1       2.609   2.984  18.809  0.00  0.00    +0.000 NA
ATOM     26  C   UNL     1       1.135   2.974  18.969  0.00  0.00    +0.000 C 
ATOM     27  C   UNL     1       0.644   3.474  20.351  0.00  0.00    +0.000 C 
ATOM     28  C   UNL     1       1.340   2.813  21.536  0.00  0.00    +0.000 C 
ATOM     29  C   UNL     1       2.841   2.767  21.324  0.00  0.00    +0.000 C 
ATOM     30  C   UNL     1       3.204   2.221  19.941  0.00  0.00    +0.000 C 
ENDBRANCH  24  25
ENDBRANCH  23  24
ENDBRANCH  22  23
ENDBRANCH   3  22
TORSDOF 7
ENDMDL
MODEL 4
REMARK VINA RESULT:      -6.6      7.396     10.024
REMARK  Name = 
REMARK  9 active torsions:
REMARK  status: ('A' for Active; 'I' for Inactive)
REMARK    1  A    between atoms: C_1  and  O_2
REMARK    2  A    between atoms: O_2  and  C_3
REMARK    3  A    between atoms: C_7  and  C_8
REMARK    4  A    between atoms: C_9  and  C_10
REMARK    5  A    between atoms: N_12  and  C_13
REMARK    6  A    between atoms: N_12  and  C_22
REMARK    7  A    between atoms: C_13  and  C_14
REMARK    8  A    between atoms: C_14  and  C_15
REMARK    9  A    between atoms: C_15  and  N_16
REMARK                            x       y       z     vdW  Elec       q    Type
REMARK                         _______ _______ _______ _____ _____    ______ ____
ROOT
ATOM      1  C   UNL     1       0.160  10.402  22.392  0.00  0.00    +0.000 C 
ATOM      2  O   UNL     1       0.893   9.906  23.252  0.00  0.00    +0.000 OA
ATOM      3  N   UNL     1       0.318  10.011  21.018  0.00  0.00    +0.000 N 
ENDROOT
BRANCH   1  10
ATOM      4  C   UNL     1      -4.806  13.575  23.724  0.00  0.00    +0.000 A 
ATOM      5  C   UNL     1      -4.017  14.713  23.565  0.00  0.00    +0.000 A 
ATOM      6  C   UNL     1      -2.654  14.605  23.280  0.00  0.00    +0.000 A 
ATOM      7  C   UNL     1      -2.085  13.324  23.133  0.00  0.00    +0.000 A 
ATOM      8  C   UNL     1      -0.828  12.829  22.664  0.00  0.00    +0.000 A 
ATOM      9  C   UNL     1       0.219  13.688  22.051  0.00  0.00    +0.000 C 
ATOM     10  C   UNL     1      -0.862  11.432  22.765  0.00  0.00    +0.000 A 
ATOM     11  O   UNL     1      -2.114  11.071  23.246  0.00  0.00    +0.000 OA
ATOM     12  C   UNL     1      -2.867  12.211  23.391  0.00  0.00    +0.000 A 
ATOM     13  C   UNL     1      -4.235  12.289  23.705  0.00  0.00    +0.000 A 
BRANCH   4  15
ATOM     14  C   UNL     1      -7.048  13.004  23.223  0.00  0.00    +0.000 C 
ATOM     15  O   UNL     1      -6.137  13.851  23.914  0.00  0.00    +0.000 OA
ENDBRANCH   4  15
ENDBRANCH   1  10
BRANCH   3  16
ATOM     16  C   UNL     1      -0.095  10.910  20.003  0.00  0.00    +0.000 A 
ATOM     17  C   UNL     1       0.810  11.817  19.420  0.00  0.00    +0.000 A 
ATOM     18  C   UNL     1       0.360  12.703  18.458  0.00  0.00    +0.000 A 
ATOM     19  C   UNL     1      -0.973  12.686  18.062  0.00  0.00    +0.000 A 
ATOM     20  C   UNL     1      -1.857  11.754  18.606  0.00  0.00    +0.000 A 
ATOM     21  C   UNL     1      -1.411  10.856  19.567  0.00  0.00    +0.000 A 
ENDBRANCH   3  16
BRANCH   3  22
ATOM     22  C   UNL     1       1.474   9.159  20.578  0.00  0.00    +0.000 C 
BRANCH  22  23
ATOM     23  C   UNL     1       1.314   7.629  20.409  0.00  0.00    +0.000 C 
BRANCH  23  24
ATOM     24  C   UNL     1       2.392   6.724  19.754  0.00  0.00    +0.000 C 
BRANCH  24  25
ATOM     25  N   UNL     1       2.326   5.231  19.684  0.00  0.00    +0.000 NA
ATOM     26  C   UNL     1       1.347   4.640  20.628  0.00  0.00    +0.000 C 
ATOM     27  C   UNL     1       1.119   3.119  20.434  0.00  0.00    +0.000 C 
ATOM     28  C   UNL     1       0.827   2.710  18.994  0.00  0.00    +0.000 C 
ATOM     29  C   UNL     1       1.794   3.380  18.036  0.00  0.00    +0.000 C 
ATOM     30  C   UNL     1       1.905   4.883  18.299  0.00  0.00    +0.000 C 
ENDBRANCH  24  25
ENDBRANCH  23  24
ENDBRANCH  22  23
ENDBRANCH   3  22
TORSDOF 7
ENDMDL
MODEL 5
REMARK VINA RESULT:      -6.5      8.117     11.956
REMARK  Name = 
REMARK  9 active torsions:
REMARK  status: ('A' for Active; 'I' for Inactive)
REMARK    1  A    between atoms: C_1  and  O_2
REMARK    2  A    between atoms: O_2  and  C_3
REMARK    3  A    between atoms: C_7  and  C_8
REMARK    4  A    between atoms: C_9  and  C_10
REMARK    5  A    between atoms: N_12  and  C_13
REMARK    6  A    between atoms: N_12  and  C_22
REMARK    7  A    between atoms: C_13  and  C_14
REMARK    8  A    between atoms: C_14  and  C_15
REMARK    9  A    between atoms: C_15  and  N_16
REMARK                            x       y       z     vdW  Elec       q    Type
REMARK                         _______ _______ _______ _____ _____    ______ ____
ROOT
ATOM      1  C   UNL     1       0.611  12.703  19.016  0.00  0.00    +0.000 C 
ATOM      2  O   UNL     1       1.384  13.146  18.161  0.00  0.00    +0.000 OA
ATOM      3  N   UNL     1       0.962  12.804  20.406  0.00  0.00    +0.000 N 
ENDROOT
BRANCH   1  10
ATOM      4  C   UNL     1      -5.078  10.833  18.221  0.00  0.00    +0.000 A 
ATOM      5  C   UNL     1      -4.531   9.699  17.622  0.00  0.00    +0.000 A 
ATOM      6  C   UNL     1      -3.150   9.574  17.455  0.00  0.00    +0.000 A 
ATOM      7  C   UNL     1      -2.308  10.604  17.921  0.00  0.00    +0.000 A 
ATOM      8  C   UNL     1      -0.896  10.744  18.106  0.00  0.00    +0.000 A 
ATOM      9  C   UNL     1       0.073   9.632  17.921  0.00  0.00    +0.000 C 
ATOM     10  C   UNL     1      -0.664  12.030  18.612  0.00  0.00    +0.000 A 
ATOM     11  O   UNL     1      -1.895  12.653  18.770  0.00  0.00    +0.000 OA
ATOM     12  C   UNL     1      -2.881  11.760  18.425  0.00  0.00    +0.000 A 
ATOM     13  C   UNL     1      -4.267  11.926  18.580  0.00  0.00    +0.000 A 
BRANCH   4  15
ATOM     14  C   UNL     1      -7.138  11.997  18.276  0.00  0.00    +0.000 C 
ATOM     15  O   UNL     1      -6.438  10.763  18.387  0.00  0.00    +0.000 OA
ENDBRANCH   4  15
ENDBRANCH   1  10
BRANCH   3  16
ATOM     16  C   UNL     1       0.406  11.873  21.317  0.00  0.00    +0.000 A 
ATOM     17  C   UNL     1      -0.673  12.222  22.152  0.00  0.00    +0.000 A 
ATOM     18  C   UNL     1      -1.163  11.296  23.053  0.00  0.00    +0.000 A 
ATOM     19  C   UNL     1      -0.602  10.025  23.123  0.00  0.00    +0.000 A 
ATOM     20  C   UNL     1       0.433   9.664  22.262  0.00  0.00    +0.000 A 
ATOM     21  C   UNL     1       0.927  10.587  21.349  0.00  0.00    +0.000 A 
ENDBRANCH   3  16
BRANCH   3  22
ATOM     22  C   UNL     1       2.326  13.264  20.835  0.00  0.00    +0.000 C 
BRANCH  22  23
ATOM     23  C   UNL     1       2.617  14.762  21.088  0.00  0.00    +0.000 C 
BRANCH  23  24
ATOM     24  C   UNL     1       1.652  15.904  20.671  0.00  0.00    +0.000 C 
BRANCH  24  25
ATOM     25  N   UNL     1       1.286  16.241  19.259  0.00  0.00    +0.000 NA
ATOM     26  C   UNL     1       0.156  17.195  19.156  0.00  0.00    +0.000 C 
ATOM     27  C   UNL     1      -0.109  17.710  17.718  0.00  0.00    +0.000 C 
ATOM     28  C   UNL     1       1.133  18.234  17.005  0.00  0.00    +0.000 C 
ATOM     29  C   UNL     1       2.299  17.280  17.181  0.00  0.00    +0.000 C 
ATOM     30  C   UNL     1       2.486  16.874  18.645  0.00  0.00    +0.000 C 
ENDBRANCH  24  25
ENDBRANCH  23  24
ENDBRANCH  22  23
ENDBRANCH   3  22
TORSDOF 7
ENDMDL
MODEL 6
REMARK VINA RESULT:      -6.4      3.411      6.851
REMARK  Name = 
REMARK  9 active torsions:
REMARK  status: ('A' for Active; 'I' for Inactive)
REMARK    1  A    between atoms: C_1  and  O_2
REMARK    2  A    between atoms: O_2  and  C_3
REMARK    3  A    between atoms: C_7  and  C_8
REMARK    4  A    between atoms: C_9  and  C_10
REMARK    5  A    between atoms: N_12  and  C_13
REMARK    6  A    between atoms: N_12  and  C_22
REMARK    7  A    between atoms: C_13  and  C_14
REMARK    8  A    between atoms: C_14  and  C_15
REMARK    9  A    between atoms: C_15  and  N_16
REMARK                            x       y       z     vdW  Elec       q    Type
REMARK                         _______ _______ _______ _____ _____    ______ ____
ROOT
ATOM      1  C   UNL     1       4.470   4.289  16.436  0.00  0.00    +0.000 C 
ATOM      2  O   UNL     1       4.033   3.270  15.893  0.00  0.00    +0.000 OA
ATOM      3  N   UNL     1       5.754   4.801  16.046  0.00  0.00    +0.000 N 
ENDROOT
BRANCH   1  10
ATOM      4  C   UNL     1       1.700   8.118  20.200  0.00  0.00    +0.000 A 
ATOM      5  C   UNL     1       1.584   7.038  21.075  0.00  0.00    +0.000 A 
ATOM      6  C   UNL     1       2.032   5.768  20.707  0.00  0.00    +0.000 A 
ATOM      7  C   UNL     1       2.627   5.591  19.442  0.00  0.00    +0.000 A 
ATOM      8  C   UNL     1       3.358   4.535  18.811  0.00  0.00    +0.000 A 
ATOM      9  C   UNL     1       3.785   3.296  19.512  0.00  0.00    +0.000 C 
ATOM     10  C   UNL     1       3.690   4.966  17.520  0.00  0.00    +0.000 A 
ATOM     11  O   UNL     1       3.212   6.262  17.369  0.00  0.00    +0.000 OA
ATOM     12  C   UNL     1       2.643   6.656  18.556  0.00  0.00    +0.000 A 
ATOM     13  C   UNL     1       2.176   7.938  18.887  0.00  0.00    +0.000 A 
BRANCH   4  15
ATOM     14  C   UNL     1       1.145   9.326  22.157  0.00  0.00    +0.000 C 
ATOM     15  O   UNL     1       1.293   9.310  20.742  0.00  0.00    +0.000 OA
ENDBRANCH   4  15
ENDBRANCH   1  10
BRANCH   3  16
ATOM     16  C   UNL     1       6.484   5.585  16.974  0.00  0.00    +0.000 A 
ATOM     17  C   UNL     1       6.606   6.979  16.817  0.00  0.00    +0.000 A 
ATOM     18  C   UNL     1       7.356   7.703  17.724  0.00  0.00    +0.000 A 
ATOM     19  C   UNL     1       7.975   7.059  18.790  0.00  0.00    +0.000 A 
ATOM     20  C   UNL     1       7.814   5.686  18.972  0.00  0.00    +0.000 A 
ATOM     21  C   UNL     1       7.055   4.952  18.070  0.00  0.00    +0.000 A 
ENDBRANCH   3  16
BRANCH   3  22
ATOM     22  C   UNL     1       6.659   4.025  15.133  0.00  0.00    +0.000 C 
BRANCH  22  23
ATOM     23  C   UNL     1       7.673   4.749  14.215  0.00  0.00    +0.000 C 
BRANCH  23  24
ATOM     24  C   UNL     1       7.436   4.989  12.700  0.00  0.00    +0.000 C 
BRANCH  24  25
ATOM     25  N   UNL     1       6.896   3.969  11.747  0.00  0.00    +0.000 NA
ATOM     26  C   UNL     1       7.739   2.753  11.647  0.00  0.00    +0.000 C 
ATOM     27  C   UNL     1       7.100   1.606  10.823  0.00  0.00    +0.000 C 
ATOM     28  C   UNL     1       5.671   1.266  11.231  0.00  0.00    +0.000 C 
ATOM     29  C   UNL     1       4.842   2.526  11.397  0.00  0.00    +0.000 C 
ATOM     30  C   UNL     1       5.558   3.567  12.261  0.00  0.00    +0.000 C 
ENDBRANCH  24  25
ENDBRANCH  23  24
ENDBRANCH  22  23
ENDBRANCH   3  22
TORSDOF 7
ENDMDL
MODEL 7
REMARK VINA RESULT:      -6.4      7.775     10.428
REMARK  Name = 
REMARK  9 active torsions:
REMARK  status: ('A' for Active; 'I' for Inactive)
REMARK    1  A    between atoms: C_1  and  O_2
REMARK    2  A    between atoms: O_2  and  C_3
REMARK    3  A    between atoms: C_7  and  C_8
REMARK    4  A    between atoms: C_9  and  C_10
REMARK    5  A    between atoms: N_12  and  C_13
REMARK    6  A    between atoms: N_12  and  C_22
REMARK    7  A    between atoms: C_13  and  C_14
REMARK    8  A    between atoms: C_14  and  C_15
REMARK    9  A    between atoms: C_15  and  N_16
REMARK                            x       y       z     vdW  Elec       q    Type
REMARK                         _______ _______ _______ _____ _____    ______ ____
ROOT
ATOM      1  C   UNL     1      -0.369  10.528  22.868  0.00  0.00    +0.000 C 
ATOM      2  O   UNL     1       0.210  10.007  23.826  0.00  0.00    +0.000 OA
ATOM      3  N   UNL     1      -0.031  10.123  21.532  0.00  0.00    +0.000 N 
ENDROOT
BRANCH   1  10
ATOM      4  C   UNL     1      -5.337  13.903  23.524  0.00  0.00    +0.000 A 
ATOM      5  C   UNL     1      -4.495  15.010  23.421  0.00  0.00    +0.000 A 
ATOM      6  C   UNL     1      -3.113  14.848  23.298  0.00  0.00    +0.000 A 
ATOM      7  C   UNL     1      -2.577  13.545  23.257  0.00  0.00    +0.000 A 
ATOM      8  C   UNL     1      -1.293  12.994  22.950  0.00  0.00    +0.000 A 
ATOM      9  C   UNL     1      -0.153  13.797  22.436  0.00  0.00    +0.000 C 
ATOM     10  C   UNL     1      -1.388  11.603  23.090  0.00  0.00    +0.000 A 
ATOM     11  O   UNL     1      -2.699  11.299  23.435  0.00  0.00    +0.000 OA
ATOM     12  C   UNL     1      -3.423  12.467  23.457  0.00  0.00    +0.000 A 
ATOM     13  C   UNL     1      -4.814  12.600  23.610  0.00  0.00    +0.000 A 
BRANCH   4  15
ATOM     14  C   UNL     1      -7.556  13.171  23.900  0.00  0.00    +0.000 C 
ATOM     15  O   UNL     1      -6.670  14.228  23.551  0.00  0.00    +0.000 OA
ENDBRANCH   4  15
ENDBRANCH   1  10
BRANCH   3  16
ATOM     16  C   UNL     1      -0.254  11.032  20.468  0.00  0.00    +0.000 A 
ATOM     17  C   UNL     1      -1.519  11.152  19.863  0.00  0.00    +0.000 A 
ATOM     18  C   UNL     1      -1.686  12.025  18.804  0.00  0.00    +0.000 A 
ATOM     19  C   UNL     1      -0.615  12.786  18.350  0.00  0.00    +0.000 A 
ATOM     20  C   UNL     1       0.626  12.702  18.982  0.00  0.00    +0.000 A 
ATOM     21  C   UNL     1       0.801  11.833  20.051  0.00  0.00    +0.000 A 
ENDBRANCH   3  16
BRANCH   3  22
ATOM     22  C   UNL     1       1.139   9.220  21.264  0.00  0.00    +0.000 C 
BRANCH  22  23
ATOM     23  C   UNL     1       0.940   7.837  20.599  0.00  0.00    +0.000 C 
BRANCH  23  24
ATOM     24  C   UNL     1       2.106   6.982  20.036  0.00  0.00    +0.000 C 
BRANCH  24  25
ATOM     25  N   UNL     1       2.310   5.526  20.313  0.00  0.00    +0.000 NA
ATOM     26  C   UNL     1       1.044   4.780  20.506  0.00  0.00    +0.000 C 
ATOM     27  C   UNL     1       1.221   3.243  20.596  0.00  0.00    +0.000 C 
ATOM     28  C   UNL     1       2.058   2.644  19.470  0.00  0.00    +0.000 C 
ATOM     29  C   UNL     1       3.315   3.461  19.239  0.00  0.00    +0.000 C 
ATOM     30  C   UNL     1       3.010   4.957  19.128  0.00  0.00    +0.000 C 
ENDBRANCH  24  25
ENDBRANCH  23  24
ENDBRANCH  22  23
ENDBRANCH   3  22
TORSDOF 7
ENDMDL
MODEL 8
REMARK VINA RESULT:      -6.4      7.238      9.760
REMARK  Name = 
REMARK  9 active torsions:
REMARK  status: ('A' for Active; 'I' for Inactive)
REMARK    1  A    between atoms: C_1  and  O_2
REMARK    2  A    between atoms: O_2  and  C_3
REMARK    3  A    between atoms: C_7  and  C_8
REMARK    4  A    between atoms: C_9  and  C_10
REMARK    5  A    between atoms: N_12  and  C_13
REMARK    6  A    between atoms: N_12  and  C_22
REMARK    7  A    between atoms: C_13  and  C_14
REMARK    8  A    between atoms: C_14  and  C_15
REMARK    9  A    between atoms: C_15  and  N_16
REMARK                            x       y       z     vdW  Elec       q    Type
REMARK                         _______ _______ _______ _____ _____    ______ ____
ROOT
ATOM      1  C   UNL     1       0.489  11.580  20.497  0.00  0.00    +0.000 C 
ATOM      2  O   UNL     1       1.613  11.939  20.862  0.00  0.00    +0.000 OA
ATOM      3  N   UNL     1       0.362  10.678  19.387  0.00  0.00    +0.000 N 
ENDROOT
BRANCH   1  10
ATOM      4  C   UNL     1      -4.073  14.849  22.733  0.00  0.00    +0.000 A 
ATOM      5  C   UNL     1      -4.314  13.772  23.585  0.00  0.00    +0.000 A 
ATOM      6  C   UNL     1      -3.552  12.605  23.496  0.00  0.00    +0.000 A 
ATOM      7  C   UNL     1      -2.516  12.535  22.543  0.00  0.00    +0.000 A 
ATOM      8  C   UNL     1      -1.437  11.629  22.294  0.00  0.00    +0.000 A 
ATOM      9  C   UNL     1      -1.090  10.494  23.189  0.00  0.00    +0.000 C 
ATOM     10  C   UNL     1      -0.736  12.107  21.179  0.00  0.00    +0.000 A 
ATOM     11  O   UNL     1      -1.339  13.291  20.772  0.00  0.00    +0.000 OA
ATOM     12  C   UNL     1      -2.360  13.578  21.646  0.00  0.00    +0.000 A 
ATOM     13  C   UNL     1      -3.129  14.754  21.694  0.00  0.00    +0.000 A 
BRANCH   4  15
ATOM     14  C   UNL     1      -5.202  16.130  24.371  0.00  0.00    +0.000 C 
ATOM     15  O   UNL     1      -4.848  15.948  23.006  0.00  0.00    +0.000 OA
ENDBRANCH   4  15
ENDBRANCH   1  10
BRANCH   3  16
ATOM     16  C   UNL     1      -0.841  10.686  18.638  0.00  0.00    +0.000 A 
ATOM     17  C   UNL     1      -1.771   9.633  18.738  0.00  0.00    +0.000 A 
ATOM     18  C   UNL     1      -2.916   9.661  17.964  0.00  0.00    +0.000 A 
ATOM     19  C   UNL     1      -3.151  10.728  17.104  0.00  0.00    +0.000 A 
ATOM     20  C   UNL     1      -2.254  11.794  17.042  0.00  0.00    +0.000 A 
ATOM     21  C   UNL     1      -1.105  11.777  17.821  0.00  0.00    +0.000 A 
ENDBRANCH   3  16
BRANCH   3  22
ATOM     22  C   UNL     1       1.547  10.310  18.540  0.00  0.00    +0.000 C 
BRANCH  22  23
ATOM     23  C   UNL     1       1.632   8.929  17.849  0.00  0.00    +0.000 C 
BRANCH  23  24
ATOM     24  C   UNL     1       2.851   7.977  17.985  0.00  0.00    +0.000 C 
BRANCH  24  25
ATOM     25  N   UNL     1       2.867   6.719  18.795  0.00  0.00    +0.000 NA
ATOM     26  C   UNL     1       2.033   6.796  20.019  0.00  0.00    +0.000 C 
ATOM     27  C   UNL     1       1.876   5.447  20.765  0.00  0.00    +0.000 C 
ATOM     28  C   UNL     1       1.454   4.285  19.871  0.00  0.00    +0.000 C 
ATOM     29  C   UNL     1       2.270   4.264  18.592  0.00  0.00    +0.000 C 
ATOM     30  C   UNL     1       2.320   5.641  17.926  0.00  0.00    +0.000 C 
ENDBRANCH  24  25
ENDBRANCH  23  24
ENDBRANCH  22  23
ENDBRANCH   3  22
TORSDOF 7
ENDMDL
MODEL 9
REMARK VINA RESULT:      -6.4      7.036      9.532
REMARK  Name = 
REMARK  9 active torsions:
REMARK  status: ('A' for Active; 'I' for Inactive)
REMARK    1  A    between atoms: C_1  and  O_2
REMARK    2  A    between atoms: O_2  and  C_3
REMARK    3  A    between atoms: C_7  and  C_8
REMARK    4  A    between atoms: C_9  and  C_10
REMARK    5  A    between atoms: N_12  and  C_13
REMARK    6  A    between atoms: N_12  and  C_22
REMARK    7  A    between atoms: C_13  and  C_14
REMARK    8  A    between atoms: C_14  and  C_15
REMARK    9  A    between atoms: C_15  and  N_16
REMARK                            x       y       z     vdW  Elec       q    Type
REMARK                         _______ _______ _______ _____ _____    ______ ____
ROOT
ATOM      1  C   UNL     1       0.647  10.412  21.562  0.00  0.00    +0.000 C 
ATOM      2  O   UNL     1       1.671  10.108  22.181  0.00  0.00    +0.000 OA
ATOM      3  N   UNL     1       0.410   9.840  20.265  0.00  0.00    +0.000 N 
ENDROOT
BRANCH   1  10
ATOM      4  C   UNL     1      -4.133  13.413  23.718  0.00  0.00    +0.000 A 
ATOM      5  C   UNL     1      -3.366  14.568  23.568  0.00  0.00    +0.000 A 
ATOM      6  C   UNL     1      -2.045  14.498  23.122  0.00  0.00    +0.000 A 
ATOM      7  C   UNL     1      -1.497  13.239  22.802  0.00  0.00    +0.000 A 
ATOM      8  C   UNL     1      -0.301  12.797  22.152  0.00  0.00    +0.000 A 
ATOM      9  C   UNL     1       0.669  13.715  21.500  0.00  0.00    +0.000 C 
ATOM     10  C   UNL     1      -0.325  11.396  22.136  0.00  0.00    +0.000 A 
ATOM     11  O   UNL     1      -1.514  10.984  22.724  0.00  0.00    +0.000 OA
ATOM     12  C   UNL     1      -2.245  12.101  23.050  0.00  0.00    +0.000 A 
ATOM     13  C   UNL     1      -3.568  12.139  23.523  0.00  0.00    +0.000 A 
BRANCH   4  15
ATOM     14  C   UNL     1      -6.153  14.547  23.232  0.00  0.00    +0.000 C 
ATOM     15  O   UNL     1      -5.433  13.660  24.080  0.00  0.00    +0.000 OA
ENDBRANCH   4  15
ENDBRANCH   1  10
BRANCH   3  16
ATOM     16  C   UNL     1      -0.413  10.545  19.351  0.00  0.00    +0.000 A 
ATOM     17  C   UNL     1      -0.004  11.774  18.799  0.00  0.00    +0.000 A 
ATOM     18  C   UNL     1      -0.850  12.448  17.938  0.00  0.00    +0.000 A 
ATOM     19  C   UNL     1      -2.089  11.908  17.612  0.00  0.00    +0.000 A 
ATOM     20  C   UNL     1      -2.472  10.667  18.122  0.00  0.00    +0.000 A 
ATOM     21  C   UNL     1      -1.625   9.980  18.981  0.00  0.00    +0.000 A 
ENDBRANCH   3  16
BRANCH   3  22
ATOM     22  C   UNL     1       1.464   9.032  19.564  0.00  0.00    +0.000 C 
BRANCH  22  23
ATOM     23  C   UNL     1       1.862   7.628  20.078  0.00  0.00    +0.000 C 
BRANCH  23  24
ATOM     24  C   UNL     1       2.488   6.532  19.175  0.00  0.00    +0.000 C 
BRANCH  24  25
ATOM     25  N   UNL     1       2.370   5.059  19.412  0.00  0.00    +0.000 NA
ATOM     26  C   UNL     1       3.673   4.397  19.663  0.00  0.00    +0.000 C 
ATOM     27  C   UNL     1       3.556   2.916  20.105  0.00  0.00    +0.000 C 
ATOM     28  C   UNL     1       2.579   2.683  21.253  0.00  0.00    +0.000 C 
ATOM     29  C   UNL     1       1.278   3.426  21.013  0.00  0.00    +0.000 C 
ATOM     30  C   UNL     1       1.520   4.886  20.622  0.00  0.00    +0.000 C 
ENDBRANCH  24  25
ENDBRANCH  23  24
ENDBRANCH  22  23
ENDBRANCH   3  22
TORSDOF 7
ENDMDL
