MODEL 1
REMARK VINA RESULT:      -6.5      0.000      0.000
REMARK  Name = 
REMARK  4 active torsions:
REMARK  status: ('A' for Active; 'I' for Inactive)
REMARK    1  A    between atoms: C_1  and  N_2
REMARK    2  A    between atoms: C_6  and  S_7
REMARK    3  A    between atoms: S_7  and  C_8
REMARK    4  A    between atoms: C_8  and  C_9
REMARK                            x       y       z     vdW  Elec       q    Type
REMARK                         _______ _______ _______ _____ _____    ______ ____
ROOT
ATOM      1  C   UNL     1       5.633   4.969  19.286  0.00  0.00    +0.000 A 
ATOM      2  C   UNL     1       4.421   5.630  19.384  0.00  0.00    +0.000 A 
ATOM      3  N   UNL     1       3.452   4.660  19.301  0.00  0.00    +0.000 N 
ATOM      4  C   UNL     1       2.064   4.783  19.328  0.00  0.00    +0.000 A 
ATOM      5  C   UNL     1       1.305   3.679  19.226  0.00  0.00    +0.000 A 
ATOM      6  C   UNL     1       1.959   2.385  19.098  0.00  0.00    +0.000 A 
ATOM      7  C   UNL     1       3.303   2.276  19.077  0.00  0.00    +0.000 A 
ATOM      8  C   UNL     1       4.113   3.443  19.176  0.00  0.00    +0.000 A 
ATOM      9  N   UNL     1       5.419   3.607  19.172  0.00  0.00    +0.000 NA
ENDROOT
BRANCH   1  10
ATOM     10  C   UNL     1       7.021   5.533  19.329  0.00  0.00    +0.000 C 
BRANCH  10  11
ATOM     11  S   UNL     1       7.325   6.649  17.917  0.00  0.00    +0.000 S 
BRANCH  11  17
ATOM     12  C   UNL     1       4.750   6.937  15.998  0.00  0.00    +0.000 C 
ATOM     13  N   UNL     1       5.712   5.874  15.844  0.00  0.00    +0.000 N 
ATOM     14  C   UNL     1       5.644   4.892  14.890  0.00  0.00    +0.000 A 
ATOM     15  C   UNL     1       6.747   4.103  15.110  0.00  0.00    +0.000 A 
ATOM     16  N   UNL     1       7.485   4.580  16.164  0.00  0.00    +0.000 NA
ATOM     17  C   UNL     1       6.840   5.641  16.591  0.00  0.00    +0.000 A 
ENDBRANCH  11  17
ENDBRANCH  10  11
ENDBRANCH   1  10
TORSDOF 3
ENDMDL
MODEL 2
REMARK VINA RESULT:      -6.4      2.294      5.657
REMARK  Name = 
REMARK  4 active torsions:
REMARK  status: ('A' for Active; 'I' for Inactive)
REMARK    1  A    between atoms: C_1  and  N_2
REMARK    2  A    between atoms: C_6  and  S_7
REMARK    3  A    between atoms: S_7  and  C_8
REMARK    4  A    between atoms: C_8  and  C_9
REMARK                            x       y       z     vdW  Elec       q    Type
REMARK                         _______ _______ _______ _____ _____    ______ ____
ROOT
ATOM      1  C   UNL     1       4.813   4.021  17.620  0.00  0.00    +0.000 A 
ATOM      2  C   UNL     1       4.969   5.126  16.802  0.00  0.00    +0.000 A 
ATOM      3  N   UNL     1       6.016   5.842  17.327  0.00  0.00    +0.000 N 
ATOM      4  C   UNL     1       6.576   7.045  16.901  0.00  0.00    +0.000 A 
ATOM      5  C   UNL     1       7.609   7.568  17.582  0.00  0.00    +0.000 A 
ATOM      6  C   UNL     1       8.117   6.853  18.745  0.00  0.00    +0.000 A 
ATOM      7  C   UNL     1       7.572   5.687  19.146  0.00  0.00    +0.000 A 
ATOM      8  C   UNL     1       6.471   5.134  18.433  0.00  0.00    +0.000 A 
ATOM      9  N   UNL     1       5.768   4.036  18.621  0.00  0.00    +0.000 NA
ENDROOT
BRANCH   1  10
ATOM     10  C   UNL     1       3.828   2.897  17.509  0.00  0.00    +0.000 C 
BRANCH  10  11
ATOM     11  S   UNL     1       2.122   3.482  17.791  0.00  0.00    +0.000 S 
BRANCH  11  17
ATOM     12  C   UNL     1       2.805   5.691  20.037  0.00  0.00    +0.000 C 
ATOM     13  N   UNL     1       2.331   4.371  20.371  0.00  0.00    +0.000 N 
ATOM     14  C   UNL     1       2.122   3.917  21.648  0.00  0.00    +0.000 A 
ATOM     15  C   UNL     1       1.680   2.625  21.500  0.00  0.00    +0.000 A 
ATOM     16  N   UNL     1       1.608   2.283  20.173  0.00  0.00    +0.000 NA
ATOM     17  C   UNL     1       2.010   3.347  19.515  0.00  0.00    +0.000 A 
ENDBRANCH  11  17
ENDBRANCH  10  11
ENDBRANCH   1  10
TORSDOF 3
ENDMDL
MODEL 3
REMARK VINA RESULT:      -6.4      1.878      5.651
REMARK  Name = 
REMARK  4 active torsions:
REMARK  status: ('A' for Active; 'I' for Inactive)
REMARK    1  A    between atoms: C_1  and  N_2
REMARK    2  A    between atoms: C_6  and  S_7
REMARK    3  A    between atoms: S_7  and  C_8
REMARK    4  A    between atoms: C_8  and  C_9
REMARK                            x       y       z     vdW  Elec       q    Type
REMARK                         _______ _______ _______ _____ _____    ______ ____
ROOT
ATOM      1  C   UNL     1       6.564   4.935  16.287  0.00  0.00    +0.000 A 
ATOM      2  C   UNL     1       5.754   4.037  15.614  0.00  0.00    +0.000 A 
ATOM      3  N   UNL     1       6.158   4.070  14.303  0.00  0.00    +0.000 N 
ATOM      4  C   UNL     1       5.666   3.373  13.201  0.00  0.00    +0.000 A 
ATOM      5  C   UNL     1       6.224   3.570  11.995  0.00  0.00    +0.000 A 
ATOM      6  C   UNL     1       7.335   4.505  11.879  0.00  0.00    +0.000 A 
ATOM      7  C   UNL     1       7.807   5.171  12.952  0.00  0.00    +0.000 A 
ATOM      8  C   UNL     1       7.213   4.973  14.231  0.00  0.00    +0.000 A 
ATOM      9  N   UNL     1       7.476   5.496  15.410  0.00  0.00    +0.000 NA
ENDROOT
BRANCH   1  10
ATOM     10  C   UNL     1       6.572   5.292  17.742  0.00  0.00    +0.000 C 
BRANCH  10  11
ATOM     11  S   UNL     1       4.890   5.674  18.338  0.00  0.00    +0.000 S 
BRANCH  11  17
ATOM     12  C   UNL     1       2.126   4.139  17.707  0.00  0.00    +0.000 C 
ATOM     13  N   UNL     1       3.158   3.563  18.533  0.00  0.00    +0.000 N 
ATOM     14  C   UNL     1       3.084   2.330  19.128  0.00  0.00    +0.000 A 
ATOM     15  C   UNL     1       4.267   2.191  19.812  0.00  0.00    +0.000 A 
ATOM     16  N   UNL     1       5.060   3.298  19.645  0.00  0.00    +0.000 NA
ATOM     17  C   UNL     1       4.369   4.111  18.877  0.00  0.00    +0.000 A 
ENDBRANCH  11  17
ENDBRANCH  10  11
ENDBRANCH   1  10
TORSDOF 3
ENDMDL
MODEL 4
REMARK VINA RESULT:      -6.3      2.331      5.730
REMARK  Name = 
REMARK  4 active torsions:
REMARK  status: ('A' for Active; 'I' for Inactive)
REMARK    1  A    between atoms: C_1  and  N_2
REMARK    2  A    between atoms: C_6  and  S_7
REMARK    3  A    between atoms: S_7  and  C_8
REMARK    4  A    between atoms: C_8  and  C_9
REMARK                            x       y       z     vdW  Elec       q    Type
REMARK                         _______ _______ _______ _____ _____    ______ ____
ROOT
ATOM      1  C   UNL     1       4.314   4.203  17.455  0.00  0.00    +0.000 A 
ATOM      2  C   UNL     1       5.229   4.067  18.484  0.00  0.00    +0.000 A 
ATOM      3  N   UNL     1       6.106   5.115  18.353  0.00  0.00    +0.000 N 
ATOM      4  C   UNL     1       7.226   5.441  19.115  0.00  0.00    +0.000 A 
ATOM      5  C   UNL     1       7.947   6.528  18.794  0.00  0.00    +0.000 A 
ATOM      6  C   UNL     1       7.529   7.338  17.658  0.00  0.00    +0.000 A 
ATOM      7  C   UNL     1       6.441   7.017  16.929  0.00  0.00    +0.000 A 
ATOM      8  C   UNL     1       5.679   5.861  17.260  0.00  0.00    +0.000 A 
ATOM      9  N   UNL     1       4.602   5.335  16.714  0.00  0.00    +0.000 NA
ENDROOT
BRANCH   1  10
ATOM     10  C   UNL     1       3.130   3.345  17.127  0.00  0.00    +0.000 C 
BRANCH  10  11
ATOM     11  S   UNL     1       1.586   4.072  17.774  0.00  0.00    +0.000 S 
BRANCH  11  17
ATOM     12  C   UNL     1       2.480   5.911  20.268  0.00  0.00    +0.000 C 
ATOM     13  N   UNL     1       2.096   4.530  20.425  0.00  0.00    +0.000 N 
ATOM     14  C   UNL     1       2.067   3.858  21.621  0.00  0.00    +0.000 A 
ATOM     15  C   UNL     1       1.652   2.587  21.307  0.00  0.00    +0.000 A 
ATOM     16  N   UNL     1       1.421   2.468  19.960  0.00  0.00    +0.000 NA
ATOM     17  C   UNL     1       1.700   3.646  19.451  0.00  0.00    +0.000 A 
ENDBRANCH  11  17
ENDBRANCH  10  11
ENDBRANCH   1  10
TORSDOF 3
ENDMDL
MODEL 5
REMARK VINA RESULT:      -6.2      1.757      2.640
REMARK  Name = 
REMARK  4 active torsions:
REMARK  status: ('A' for Active; 'I' for Inactive)
REMARK    1  A    between atoms: C_1  and  N_2
REMARK    2  A    between atoms: C_6  and  S_7
REMARK    3  A    between atoms: S_7  and  C_8
REMARK    4  A    between atoms: C_8  and  C_9
REMARK                            x       y       z     vdW  Elec       q    Type
REMARK                         _______ _______ _______ _____ _____    ______ ____
ROOT
ATOM      1  C   UNL     1       3.129   6.219  18.319  0.00  0.00    +0.000 A 
ATOM      2  C   UNL     1       2.948   6.037  19.679  0.00  0.00    +0.000 A 
ATOM      3  N   UNL     1       2.275   4.849  19.817  0.00  0.00    +0.000 N 
ATOM      4  C   UNL     1       1.828   4.206  20.971  0.00  0.00    +0.000 A 
ATOM      5  C   UNL     1       1.179   3.035  20.861  0.00  0.00    +0.000 A 
ATOM      6  C   UNL     1       0.968   2.469  19.536  0.00  0.00    +0.000 A 
ATOM      7  C   UNL     1       1.408   3.097  18.426  0.00  0.00    +0.000 A 
ATOM      8  C   UNL     1       2.089   4.342  18.536  0.00  0.00    +0.000 A 
ATOM      9  N   UNL     1       2.600   5.145  17.625  0.00  0.00    +0.000 NA
ENDROOT
BRANCH   1  10
ATOM     10  C   UNL     1       3.814   7.341  17.600  0.00  0.00    +0.000 C 
BRANCH  10  11
ATOM     11  S   UNL     1       4.835   6.718  16.222  0.00  0.00    +0.000 S 
BRANCH  11  17
ATOM     12  C   UNL     1       6.268   3.883  15.670  0.00  0.00    +0.000 C 
ATOM     13  N   UNL     1       6.666   4.752  16.750  0.00  0.00    +0.000 N 
ATOM     14  C   UNL     1       7.672   4.479  17.641  0.00  0.00    +0.000 A 
ATOM     15  C   UNL     1       7.703   5.561  18.487  0.00  0.00    +0.000 A 
ATOM     16  N   UNL     1       6.753   6.485  18.132  0.00  0.00    +0.000 NA
ATOM     17  C   UNL     1       6.139   5.973  17.089  0.00  0.00    +0.000 A 
ENDBRANCH  11  17
ENDBRANCH  10  11
ENDBRANCH   1  10
TORSDOF 3
ENDMDL
MODEL 6
REMARK VINA RESULT:      -6.2      2.106      3.116
REMARK  Name = 
REMARK  4 active torsions:
REMARK  status: ('A' for Active; 'I' for Inactive)
REMARK    1  A    between atoms: C_1  and  N_2
REMARK    2  A    between atoms: C_6  and  S_7
REMARK    3  A    between atoms: S_7  and  C_8
REMARK    4  A    between atoms: C_8  and  C_9
REMARK                            x       y       z     vdW  Elec       q    Type
REMARK                         _______ _______ _______ _____ _____    ______ ____
ROOT
ATOM      1  C   UNL     1       3.113   5.983  18.183  0.00  0.00    +0.000 A 
ATOM      2  C   UNL     1       2.623   4.780  17.706  0.00  0.00    +0.000 A 
ATOM      3  N   UNL     1       2.199   4.079  18.807  0.00  0.00    +0.000 N 
ATOM      4  C   UNL     1       1.640   2.805  18.892  0.00  0.00    +0.000 A 
ATOM      5  C   UNL     1       1.300   2.315  20.096  0.00  0.00    +0.000 A 
ATOM      6  C   UNL     1       1.522   3.137  21.277  0.00  0.00    +0.000 A 
ATOM      7  C   UNL     1       2.060   4.370  21.185  0.00  0.00    +0.000 A 
ATOM      8  C   UNL     1       2.430   4.890  19.912  0.00  0.00    +0.000 A 
ATOM      9  N   UNL     1       2.970   6.038  19.558  0.00  0.00    +0.000 NA
ENDROOT
BRANCH   1  10
ATOM     10  C   UNL     1       3.691   7.136  17.420  0.00  0.00    +0.000 C 
BRANCH  10  11
ATOM     11  S   UNL     1       5.011   6.583  16.286  0.00  0.00    +0.000 S 
BRANCH  11  17
ATOM     12  C   UNL     1       6.284   4.610  18.496  0.00  0.00    +0.000 C 
ATOM     13  N   UNL     1       6.859   5.896  18.185  0.00  0.00    +0.000 N 
ATOM     14  C   UNL     1       7.982   6.412  18.778  0.00  0.00    +0.000 A 
ATOM     15  C   UNL     1       8.164   7.640  18.191  0.00  0.00    +0.000 A 
ATOM     16  N   UNL     1       7.190   7.883  17.256  0.00  0.00    +0.000 NA
ATOM     17  C   UNL     1       6.415   6.822  17.275  0.00  0.00    +0.000 A 
ENDBRANCH  11  17
ENDBRANCH  10  11
ENDBRANCH   1  10
TORSDOF 3
ENDMDL
MODEL 7
REMARK VINA RESULT:      -6.2      1.633      2.311
REMARK  Name = 
REMARK  4 active torsions:
REMARK  status: ('A' for Active; 'I' for Inactive)
REMARK    1  A    between atoms: C_1  and  N_2
REMARK    2  A    between atoms: C_6  and  S_7
REMARK    3  A    between atoms: S_7  and  C_8
REMARK    4  A    between atoms: C_8  and  C_9
REMARK                            x       y       z     vdW  Elec       q    Type
REMARK                         _______ _______ _______ _____ _____    ______ ____
ROOT
ATOM      1  C   UNL     1       3.199   6.150  18.223  0.00  0.00    +0.000 A 
ATOM      2  C   UNL     1       2.993   6.069  19.589  0.00  0.00    +0.000 A 
ATOM      3  N   UNL     1       2.342   4.880  19.805  0.00  0.00    +0.000 N 
ATOM      4  C   UNL     1       1.884   4.318  20.996  0.00  0.00    +0.000 A 
ATOM      5  C   UNL     1       1.262   3.128  20.964  0.00  0.00    +0.000 A 
ATOM      6  C   UNL     1       1.091   2.458  19.682  0.00  0.00    +0.000 A 
ATOM      7  C   UNL     1       1.541   3.008  18.536  0.00  0.00    +0.000 A 
ATOM      8  C   UNL     1       2.193   4.273  18.563  0.00  0.00    +0.000 A 
ATOM      9  N   UNL     1       2.707   5.015  17.604  0.00  0.00    +0.000 NA
ENDROOT
BRANCH   1  10
ATOM     10  C   UNL     1       3.876   7.229  17.433  0.00  0.00    +0.000 C 
BRANCH  10  11
ATOM     11  S   UNL     1       5.692   7.081  17.532  0.00  0.00    +0.000 S 
BRANCH  11  17
ATOM     12  C   UNL     1       7.650   4.522  17.646  0.00  0.00    +0.000 C 
ATOM     13  N   UNL     1       6.856   4.835  16.484  0.00  0.00    +0.000 N 
ATOM     14  C   UNL     1       6.842   4.100  15.327  0.00  0.00    +0.000 A 
ATOM     15  C   UNL     1       5.961   4.753  14.499  0.00  0.00    +0.000 A 
ATOM     16  N   UNL     1       5.434   5.857  15.121  0.00  0.00    +0.000 NA
ATOM     17  C   UNL     1       5.991   5.888  16.310  0.00  0.00    +0.000 A 
ENDBRANCH  11  17
ENDBRANCH  10  11
ENDBRANCH   1  10
TORSDOF 3
ENDMDL
MODEL 8
REMARK VINA RESULT:      -6.2      2.183      5.503
REMARK  Name = 
REMARK  4 active torsions:
REMARK  status: ('A' for Active; 'I' for Inactive)
REMARK    1  A    between atoms: C_1  and  N_2
REMARK    2  A    between atoms: C_6  and  S_7
REMARK    3  A    between atoms: S_7  and  C_8
REMARK    4  A    between atoms: C_8  and  C_9
REMARK                            x       y       z     vdW  Elec       q    Type
REMARK                         _______ _______ _______ _____ _____    ______ ____
ROOT
ATOM      1  C   UNL     1       4.632   3.540  17.974  0.00  0.00    +0.000 A 
ATOM      2  C   UNL     1       4.931   4.360  16.900  0.00  0.00    +0.000 A 
ATOM      3  N   UNL     1       5.928   5.201  17.331  0.00  0.00    +0.000 N 
ATOM      4  C   UNL     1       6.580   6.230  16.654  0.00  0.00    +0.000 A 
ATOM      5  C   UNL     1       7.535   6.931  17.288  0.00  0.00    +0.000 A 
ATOM      6  C   UNL     1       7.864   6.587  18.664  0.00  0.00    +0.000 A 
ATOM      7  C   UNL     1       7.230   5.586  19.309  0.00  0.00    +0.000 A 
ATOM      8  C   UNL     1       6.211   4.846  18.645  0.00  0.00    +0.000 A 
ATOM      9  N   UNL     1       5.450   3.848  19.046  0.00  0.00    +0.000 NA
ENDROOT
BRANCH   1  10
ATOM     10  C   UNL     1       3.630   2.429  18.062  0.00  0.00    +0.000 C 
BRANCH  10  11
ATOM     11  S   UNL     1       1.925   3.063  17.910  0.00  0.00    +0.000 S 
BRANCH  11  17
ATOM     12  C   UNL     1       1.379   3.042  21.088  0.00  0.00    +0.000 C 
ATOM     13  N   UNL     1       1.715   4.247  20.370  0.00  0.00    +0.000 N 
ATOM     14  C   UNL     1       1.837   5.487  20.941  0.00  0.00    +0.000 A 
ATOM     15  C   UNL     1       2.160   6.328  19.904  0.00  0.00    +0.000 A 
ATOM     16  N   UNL     1       2.244   5.635  18.722  0.00  0.00    +0.000 NA
ATOM     17  C   UNL     1       1.967   4.388  19.027  0.00  0.00    +0.000 A 
ENDBRANCH  11  17
ENDBRANCH  10  11
ENDBRANCH   1  10
TORSDOF 3
ENDMDL
MODEL 9
REMARK VINA RESULT:      -6.2      1.757      2.782
REMARK  Name = 
REMARK  4 active torsions:
REMARK  status: ('A' for Active; 'I' for Inactive)
REMARK    1  A    between atoms: C_1  and  N_2
REMARK    2  A    between atoms: C_6  and  S_7
REMARK    3  A    between atoms: S_7  and  C_8
REMARK    4  A    between atoms: C_8  and  C_9
REMARK                            x       y       z     vdW  Elec       q    Type
REMARK                         _______ _______ _______ _____ _____    ______ ____
ROOT
ATOM      1  C   UNL     1       3.137   6.118  18.283  0.00  0.00    +0.000 A 
ATOM      2  C   UNL     1       2.489   5.030  17.726  0.00  0.00    +0.000 A 
ATOM      3  N   UNL     1       2.062   4.262  18.780  0.00  0.00    +0.000 N 
ATOM      4  C   UNL     1       1.373   3.050  18.779  0.00  0.00    +0.000 A 
ATOM      5  C   UNL     1       1.059   2.471  19.950  0.00  0.00    +0.000 A 
ATOM      6  C   UNL     1       1.444   3.135  21.188  0.00  0.00    +0.000 A 
ATOM      7  C   UNL     1       2.106   4.309  21.179  0.00  0.00    +0.000 A 
ATOM      8  C   UNL     1       2.450   4.923  19.941  0.00  0.00    +0.000 A 
ATOM      9  N   UNL     1       3.089   6.040  19.663  0.00  0.00    +0.000 NA
ENDROOT
BRANCH   1  10
ATOM     10  C   UNL     1       3.788   7.281  17.597  0.00  0.00    +0.000 C 
BRANCH  10  11
ATOM     11  S   UNL     1       4.855   6.726  16.224  0.00  0.00    +0.000 S 
BRANCH  11  17
ATOM     12  C   UNL     1       6.288   3.891  15.672  0.00  0.00    +0.000 C 
ATOM     13  N   UNL     1       6.680   4.756  16.758  0.00  0.00    +0.000 N 
ATOM     14  C   UNL     1       7.679   4.478  17.655  0.00  0.00    +0.000 A 
ATOM     15  C   UNL     1       7.706   5.557  18.505  0.00  0.00    +0.000 A 
ATOM     16  N   UNL     1       6.759   6.484  18.147  0.00  0.00    +0.000 NA
ATOM     17  C   UNL     1       6.152   5.977  17.098  0.00  0.00    +0.000 A 
ENDBRANCH  11  17
ENDBRANCH  10  11
ENDBRANCH   1  10
TORSDOF 3
ENDMDL
