MODEL 1
REMARK VINA RESULT:      -8.9      0.000      0.000
REMARK  Name = 
REMARK  8 active torsions:
REMARK  status: ('A' for Active; 'I' for Inactive)
REMARK    1  A    between atoms: C_1  and  O_2
REMARK    2  A    between atoms: O_2  and  C_3
REMARK    3  A    between atoms: C_5  and  C_6
REMARK    4  A    between atoms: C_10  and  N_11
REMARK    5  A    between atoms: C_13  and  C_14
REMARK    6  A    between atoms: C_16  and  C_17
REMARK    7  A    between atoms: C_25  and  C_26
REMARK    8  A    between atoms: N_28  and  C_29
REMARK                            x       y       z     vdW  Elec       q    Type
REMARK                         _______ _______ _______ _____ _____    ______ ____
ROOT
ATOM      1  C   UNL     1      -0.510  11.088  20.753  0.00  0.00    +0.000 A 
ATOM      2  C   UNL     1       0.310  10.134  20.122  0.00  0.00    +0.000 A 
ATOM      3  C   UNL     1       0.862   9.033  20.806  0.00  0.00    +0.000 A 
ATOM      4  C   UNL     1       0.602   8.928  22.175  0.00  0.00    +0.000 A 
ATOM      5  C   UNL     1      -0.199   9.865  22.819  0.00  0.00    +0.000 A 
ATOM      6  C   UNL     1      -0.786  10.938  22.121  0.00  0.00    +0.000 A 
ENDROOT
BRANCH   3   7
ATOM      7  C   UNL     1       1.662   8.012  20.100  0.00  0.00    +0.000 A 
ATOM      8  C   UNL     1       2.307   8.308  18.875  0.00  0.00    +0.000 A 
ATOM      9  N   UNL     1       3.095   7.501  18.114  0.00  0.00    +0.000 NA
ATOM     10  C   UNL     1       3.238   6.249  18.631  0.00  0.00    +0.000 A 
ATOM     11  C   UNL     1       4.008   5.257  18.035  0.00  0.00    +0.000 A 
ATOM     12  S   UNL     1       3.852   3.882  19.079  0.00  0.00    +0.000 S 
ATOM     13  N   UNL     1       2.881   4.563  20.219  0.00  0.00    +0.000 NA
ATOM     14  C   UNL     1       2.614   5.829  19.889  0.00  0.00    +0.000 A 
ATOM     15  C   UNL     1       1.821   6.723  20.641  0.00  0.00    +0.000 A 
BRANCH  11  16
ATOM     16  N   UNL     1       4.732   5.255  16.865  0.00  0.00    +0.000 N 
ATOM     17  C   UNL     1       5.588   4.136  16.462  0.00  0.00    +0.000 C 
ATOM     18  C   UNL     1       7.079   4.530  16.531  0.00  0.00    +0.000 C 
ATOM     19  C   UNL     1       7.661   4.444  17.938  0.00  0.00    +0.000 C 
ATOM     20  O   UNL     1       7.383   5.784  15.897  0.00  0.00    +0.000 OA
ATOM     21  C   UNL     1       6.482   6.876  16.163  0.00  0.00    +0.000 C 
ATOM     22  C   UNL     1       6.861   7.637  17.429  0.00  0.00    +0.000 C 
ATOM     23  C   UNL     1       4.998   6.468  16.085  0.00  0.00    +0.000 C 
ENDBRANCH  11  16
ENDBRANCH   3   7
BRANCH   6  24
ATOM     24  C   UNL     1      -1.664  11.819  22.950  0.00  0.00    +0.000 C 
ATOM     25  O   UNL     1      -2.568  11.271  23.582  0.00  0.00    +0.000 OA
ATOM     26  N   UNL     1      -1.447  13.180  22.916  0.00  0.00    +0.000 N 
ATOM     27  H   UNL     1      -0.750  13.518  22.257  0.00  0.00    +0.000 HD
BRANCH  26  28
ATOM     28  C   UNL     1      -2.196  14.147  23.627  0.00  0.00    +0.000 A 
ATOM     29  C   UNL     1      -3.513  14.488  23.291  0.00  0.00    +0.000 A 
ATOM     30  C   UNL     1      -4.202  15.477  23.993  0.00  0.00    +0.000 A 
ATOM     31  C   UNL     1      -3.582  16.135  25.048  0.00  0.00    +0.000 A 
ATOM     32  C   UNL     1      -2.280  15.791  25.410  0.00  0.00    +0.000 A 
ATOM     33  C   UNL     1      -1.595  14.790  24.709  0.00  0.00    +0.000 A 
ENDBRANCH  26  28
ENDBRANCH   6  24
BRANCH   1  35
ATOM     34  C   UNL     1      -0.183  13.027  19.406  0.00  0.00    +0.000 C 
ATOM     35  O   UNL     1      -1.080  12.137  20.075  0.00  0.00    +0.000 OA
ENDBRANCH   1  35
TORSDOF 5
ENDMDL
MODEL 2
REMARK VINA RESULT:      -8.7      1.164      1.598
REMARK  Name = 
REMARK  8 active torsions:
REMARK  status: ('A' for Active; 'I' for Inactive)
REMARK    1  A    between atoms: C_1  and  O_2
REMARK    2  A    between atoms: O_2  and  C_3
REMARK    3  A    between atoms: C_5  and  C_6
REMARK    4  A    between atoms: C_10  and  N_11
REMARK    5  A    between atoms: C_13  and  C_14
REMARK    6  A    between atoms: C_16  and  C_17
REMARK    7  A    between atoms: C_25  and  C_26
REMARK    8  A    between atoms: N_28  and  C_29
REMARK                            x       y       z     vdW  Elec       q    Type
REMARK                         _______ _______ _______ _____ _____    ______ ____
ROOT
ATOM      1  C   UNL     1       0.282  10.641  19.558  0.00  0.00    +0.000 A 
ATOM      2  C   UNL     1       1.134   9.581  19.192  0.00  0.00    +0.000 A 
ATOM      3  C   UNL     1       1.368   8.472  20.027  0.00  0.00    +0.000 A 
ATOM      4  C   UNL     1       0.750   8.465  21.280  0.00  0.00    +0.000 A 
ATOM      5  C   UNL     1      -0.089   9.506  21.663  0.00  0.00    +0.000 A 
ATOM      6  C   UNL     1      -0.356  10.591  20.806  0.00  0.00    +0.000 A 
ENDROOT
BRANCH   3   7
ATOM      7  C   UNL     1       2.213   7.344  19.586  0.00  0.00    +0.000 A 
ATOM      8  C   UNL     1       3.162   7.504  18.548  0.00  0.00    +0.000 A 
ATOM      9  N   UNL     1       4.030   6.586  18.041  0.00  0.00    +0.000 NA
ATOM     10  C   UNL     1       3.920   5.362  18.630  0.00  0.00    +0.000 A 
ATOM     11  C   UNL     1       4.712   4.273  18.287  0.00  0.00    +0.000 A 
ATOM     12  S   UNL     1       4.174   2.987  19.317  0.00  0.00    +0.000 S 
ATOM     13  N   UNL     1       3.026   3.820  20.150  0.00  0.00    +0.000 NA
ATOM     14  C   UNL     1       2.971   5.080  19.711  0.00  0.00    +0.000 A 
ATOM     15  C   UNL     1       2.110   6.083  20.203  0.00  0.00    +0.000 A 
BRANCH  11  16
ATOM     16  N   UNL     1       5.695   4.134  17.334  0.00  0.00    +0.000 N 
ATOM     17  C   UNL     1       7.114   4.366  17.617  0.00  0.00    +0.000 C 
ATOM     18  C   UNL     1       7.618   5.639  16.903  0.00  0.00    +0.000 C 
ATOM     19  C   UNL     1       7.279   6.924  17.651  0.00  0.00    +0.000 C 
ATOM     20  O   UNL     1       7.257   5.712  15.513  0.00  0.00    +0.000 OA
ATOM     21  C   UNL     1       5.901   5.358  15.179  0.00  0.00    +0.000 C 
ATOM     22  C   UNL     1       4.953   6.547  15.296  0.00  0.00    +0.000 C 
ATOM     23  C   UNL     1       5.416   4.083  15.896  0.00  0.00    +0.000 C 
ENDBRANCH  11  16
ENDBRANCH   3   7
BRANCH   6  24
ATOM     24  C   UNL     1      -1.323  11.594  21.348  0.00  0.00    +0.000 C 
ATOM     25  O   UNL     1      -2.126  12.082  20.552  0.00  0.00    +0.000 OA
ATOM     26  N   UNL     1      -1.225  11.948  22.677  0.00  0.00    +0.000 N 
ATOM     27  H   UNL     1      -0.438  11.567  23.197  0.00  0.00    +0.000 HD
BRANCH  26  28
ATOM     28  C   UNL     1      -2.050  12.889  23.336  0.00  0.00    +0.000 A 
ATOM     29  C   UNL     1      -3.380  12.624  23.685  0.00  0.00    +0.000 A 
ATOM     30  C   UNL     1      -4.172  13.597  24.298  0.00  0.00    +0.000 A 
ATOM     31  C   UNL     1      -3.637  14.848  24.576  0.00  0.00    +0.000 A 
ATOM     32  C   UNL     1      -2.307  15.120  24.257  0.00  0.00    +0.000 A 
ATOM     33  C   UNL     1      -1.513  14.139  23.651  0.00  0.00    +0.000 A 
ENDBRANCH  26  28
ENDBRANCH   6  24
BRANCH   1  35
ATOM     34  C   UNL     1       1.018  12.727  18.669  0.00  0.00    +0.000 C 
ATOM     35  O   UNL     1       0.023  11.702  18.725  0.00  0.00    +0.000 OA
ENDBRANCH   1  35
TORSDOF 5
ENDMDL
MODEL 3
REMARK VINA RESULT:      -8.6      2.268      3.335
REMARK  Name = 
REMARK  8 active torsions:
REMARK  status: ('A' for Active; 'I' for Inactive)
REMARK    1  A    between atoms: C_1  and  O_2
REMARK    2  A    between atoms: O_2  and  C_3
REMARK    3  A    between atoms: C_5  and  C_6
REMARK    4  A    between atoms: C_10  and  N_11
REMARK    5  A    between atoms: C_13  and  C_14
REMARK    6  A    between atoms: C_16  and  C_17
REMARK    7  A    between atoms: C_25  and  C_26
REMARK    8  A    between atoms: N_28  and  C_29
REMARK                            x       y       z     vdW  Elec       q    Type
REMARK                         _______ _______ _______ _____ _____    ______ ____
ROOT
ATOM      1  C   UNL     1      -1.474  11.857  21.012  0.00  0.00    +0.000 A 
ATOM      2  C   UNL     1      -0.584  10.901  20.485  0.00  0.00    +0.000 A 
ATOM      3  C   UNL     1      -0.042   9.858  21.260  0.00  0.00    +0.000 A 
ATOM      4  C   UNL     1      -0.385   9.814  22.614  0.00  0.00    +0.000 A 
ATOM      5  C   UNL     1      -1.257  10.753  23.155  0.00  0.00    +0.000 A 
ATOM      6  C   UNL     1      -1.832  11.767  22.366  0.00  0.00    +0.000 A 
ENDROOT
BRANCH   3   7
ATOM      7  C   UNL     1       0.835   8.832  20.661  0.00  0.00    +0.000 A 
ATOM      8  C   UNL     1       1.055   7.592  21.308  0.00  0.00    +0.000 A 
ATOM      9  N   UNL     1       1.806   6.537  20.888  0.00  0.00    +0.000 NA
ATOM     10  C   UNL     1       2.420   6.758  19.692  0.00  0.00    +0.000 A 
ATOM     11  C   UNL     1       3.226   5.818  19.060  0.00  0.00    +0.000 A 
ATOM     12  S   UNL     1       3.750   6.591  17.599  0.00  0.00    +0.000 S 
ATOM     13  N   UNL     1       2.951   8.017  17.788  0.00  0.00    +0.000 NA
ATOM     14  C   UNL     1       2.268   8.004  18.936  0.00  0.00    +0.000 A 
ATOM     15  C   UNL     1       1.460   9.055  19.420  0.00  0.00    +0.000 A 
BRANCH  11  16
ATOM     16  N   UNL     1       3.613   4.555  19.442  0.00  0.00    +0.000 N 
ATOM     17  C   UNL     1       4.436   3.686  18.596  0.00  0.00    +0.000 C 
ATOM     18  C   UNL     1       3.614   2.486  18.076  0.00  0.00    +0.000 C 
ATOM     19  C   UNL     1       2.756   2.825  16.861  0.00  0.00    +0.000 C 
ATOM     20  O   UNL     1       2.863   1.805  19.095  0.00  0.00    +0.000 OA
ATOM     21  C   UNL     1       2.148   2.634  20.032  0.00  0.00    +0.000 C 
ATOM     22  C   UNL     1       0.761   3.010  19.523  0.00  0.00    +0.000 C 
ATOM     23  C   UNL     1       2.983   3.823  20.546  0.00  0.00    +0.000 C 
ENDBRANCH  11  16
ENDBRANCH   3   7
BRANCH   6  24
ATOM     24  C   UNL     1      -2.790  12.658  23.090  0.00  0.00    +0.000 C 
ATOM     25  O   UNL     1      -3.634  12.110  23.800  0.00  0.00    +0.000 OA
ATOM     26  N   UNL     1      -2.707  14.018  22.881  0.00  0.00    +0.000 N 
ATOM     27  H   UNL     1      -2.048  14.335  22.174  0.00  0.00    +0.000 HD
BRANCH  26  28
ATOM     28  C   UNL     1      -3.545  14.990  23.475  0.00  0.00    +0.000 A 
ATOM     29  C   UNL     1      -3.125  15.823  24.520  0.00  0.00    +0.000 A 
ATOM     30  C   UNL     1      -3.998  16.741  25.105  0.00  0.00    +0.000 A 
ATOM     31  C   UNL     1      -5.305  16.840  24.646  0.00  0.00    +0.000 A 
ATOM     32  C   UNL     1      -5.732  16.035  23.591  0.00  0.00    +0.000 A 
ATOM     33  C   UNL     1      -4.851  15.122  22.999  0.00  0.00    +0.000 A 
ENDBRANCH  26  28
ENDBRANCH   6  24
BRANCH   1  35
ATOM     34  C   UNL     1      -1.134  13.616  19.440  0.00  0.00    +0.000 C 
ATOM     35  O   UNL     1      -2.032  12.848  20.244  0.00  0.00    +0.000 OA
ENDBRANCH   1  35
TORSDOF 5
ENDMDL
MODEL 4
REMARK VINA RESULT:      -8.6      1.388      1.822
REMARK  Name = 
REMARK  8 active torsions:
REMARK  status: ('A' for Active; 'I' for Inactive)
REMARK    1  A    between atoms: C_1  and  O_2
REMARK    2  A    between atoms: O_2  and  C_3
REMARK    3  A    between atoms: C_5  and  C_6
REMARK    4  A    between atoms: C_10  and  N_11
REMARK    5  A    between atoms: C_13  and  C_14
REMARK    6  A    between atoms: C_16  and  C_17
REMARK    7  A    between atoms: C_25  and  C_26
REMARK    8  A    between atoms: N_28  and  C_29
REMARK                            x       y       z     vdW  Elec       q    Type
REMARK                         _______ _______ _______ _____ _____    ______ ____
ROOT
ATOM      1  C   UNL     1       0.145  10.529  20.026  0.00  0.00    +0.000 A 
ATOM      2  C   UNL     1       0.953   9.478  19.551  0.00  0.00    +0.000 A 
ATOM      3  C   UNL     1       1.377   8.415  20.373  0.00  0.00    +0.000 A 
ATOM      4  C   UNL     1       1.002   8.449  21.718  0.00  0.00    +0.000 A 
ATOM      5  C   UNL     1       0.211   9.483  22.208  0.00  0.00    +0.000 A 
ATOM      6  C   UNL     1      -0.249  10.519  21.372  0.00  0.00    +0.000 A 
ENDROOT
BRANCH   3   7
ATOM      7  C   UNL     1       2.167   7.292  19.829  0.00  0.00    +0.000 A 
ATOM      8  C   UNL     1       3.106   7.495  18.790  0.00  0.00    +0.000 A 
ATOM      9  N   UNL     1       3.927   6.586  18.196  0.00  0.00    +0.000 NA
ATOM     10  C   UNL     1       3.773   5.324  18.689  0.00  0.00    +0.000 A 
ATOM     11  C   UNL     1       4.513   4.235  18.245  0.00  0.00    +0.000 A 
ATOM     12  S   UNL     1       3.935   2.893  19.180  0.00  0.00    +0.000 S 
ATOM     13  N   UNL     1       2.835   3.703  20.097  0.00  0.00    +0.000 NA
ATOM     14  C   UNL     1       2.829   4.996  19.759  0.00  0.00    +0.000 A 
ATOM     15  C   UNL     1       2.018   5.991  20.345  0.00  0.00    +0.000 A 
BRANCH  11  16
ATOM     16  N   UNL     1       5.475   4.132  17.268  0.00  0.00    +0.000 N 
ATOM     17  C   UNL     1       6.908   4.261  17.546  0.00  0.00    +0.000 C 
ATOM     18  C   UNL     1       7.471   5.566  16.942  0.00  0.00    +0.000 C 
ATOM     19  C   UNL     1       7.211   6.793  17.809  0.00  0.00    +0.000 C 
ATOM     20  O   UNL     1       7.098   5.785  15.571  0.00  0.00    +0.000 OA
ATOM     21  C   UNL     1       5.721   5.535  15.229  0.00  0.00    +0.000 C 
ATOM     22  C   UNL     1       4.841   6.757  15.470  0.00  0.00    +0.000 C 
ATOM     23  C   UNL     1       5.176   4.227  15.835  0.00  0.00    +0.000 C 
ENDBRANCH  11  16
ENDBRANCH   3   7
BRANCH   6  24
ATOM     24  C   UNL     1      -1.135  11.519  22.044  0.00  0.00    +0.000 C 
ATOM     25  O   UNL     1      -0.999  11.658  23.260  0.00  0.00    +0.000 OA
ATOM     26  N   UNL     1      -2.074  12.180  21.281  0.00  0.00    +0.000 N 
ATOM     27  H   UNL     1      -2.170  11.884  20.312  0.00  0.00    +0.000 HD
BRANCH  26  28
ATOM     28  C   UNL     1      -2.994  13.139  21.765  0.00  0.00    +0.000 A 
ATOM     29  C   UNL     1      -2.673  14.495  21.913  0.00  0.00    +0.000 A 
ATOM     30  C   UNL     1      -3.598  15.401  22.434  0.00  0.00    +0.000 A 
ATOM     31  C   UNL     1      -4.861  14.961  22.808  0.00  0.00    +0.000 A 
ATOM     32  C   UNL     1      -5.204  13.619  22.644  0.00  0.00    +0.000 A 
ATOM     33  C   UNL     1      -4.277  12.714  22.112  0.00  0.00    +0.000 A 
ENDBRANCH  26  28
ENDBRANCH   6  24
BRANCH   1  35
ATOM     34  C   UNL     1       0.651  12.552  18.871  0.00  0.00    +0.000 C 
ATOM     35  O   UNL     1      -0.301  11.542  19.213  0.00  0.00    +0.000 OA
ENDBRANCH   1  35
TORSDOF 5
ENDMDL
MODEL 5
REMARK VINA RESULT:      -8.5      1.531      2.539
REMARK  Name = 
REMARK  8 active torsions:
REMARK  status: ('A' for Active; 'I' for Inactive)
REMARK    1  A    between atoms: C_1  and  O_2
REMARK    2  A    between atoms: O_2  and  C_3
REMARK    3  A    between atoms: C_5  and  C_6
REMARK    4  A    between atoms: C_10  and  N_11
REMARK    5  A    between atoms: C_13  and  C_14
REMARK    6  A    between atoms: C_16  and  C_17
REMARK    7  A    between atoms: C_25  and  C_26
REMARK    8  A    between atoms: N_28  and  C_29
REMARK                            x       y       z     vdW  Elec       q    Type
REMARK                         _______ _______ _______ _____ _____    ______ ____
ROOT
ATOM      1  C   UNL     1       0.240  10.372  21.023  0.00  0.00    +0.000 A 
ATOM      2  C   UNL     1       1.023   9.235  20.747  0.00  0.00    +0.000 A 
ATOM      3  C   UNL     1       1.305   8.807  19.435  0.00  0.00    +0.000 A 
ATOM      4  C   UNL     1       0.741   9.533  18.383  0.00  0.00    +0.000 A 
ATOM      5  C   UNL     1      -0.042  10.654  18.635  0.00  0.00    +0.000 A 
ATOM      6  C   UNL     1      -0.284  11.105  19.947  0.00  0.00    +0.000 A 
ENDROOT
BRANCH   3   7
ATOM      7  C   UNL     1       2.186   7.650  19.178  0.00  0.00    +0.000 A 
ATOM      8  C   UNL     1       3.188   7.702  18.179  0.00  0.00    +0.000 A 
ATOM      9  N   UNL     1       4.092   6.746  17.832  0.00  0.00    +0.000 NA
ATOM     10  C   UNL     1       3.965   5.600  18.558  0.00  0.00    +0.000 A 
ATOM     11  C   UNL     1       4.788   4.492  18.389  0.00  0.00    +0.000 A 
ATOM     12  S   UNL     1       4.209   3.328  19.537  0.00  0.00    +0.000 S 
ATOM     13  N   UNL     1       3.008   4.234  20.203  0.00  0.00    +0.000 NA
ATOM     14  C   UNL     1       2.963   5.431  19.613  0.00  0.00    +0.000 A 
ATOM     15  C   UNL     1       2.064   6.470  19.936  0.00  0.00    +0.000 A 
BRANCH  11  16
ATOM     16  N   UNL     1       5.822   4.258  17.513  0.00  0.00    +0.000 N 
ATOM     17  C   UNL     1       7.214   4.603  17.816  0.00  0.00    +0.000 C 
ATOM     18  C   UNL     1       7.697   5.775  16.935  0.00  0.00    +0.000 C 
ATOM     19  C   UNL     1       7.265   7.141  17.458  0.00  0.00    +0.000 C 
ATOM     20  O   UNL     1       7.403   5.615  15.536  0.00  0.00    +0.000 OA
ATOM     21  C   UNL     1       6.082   5.145  15.204  0.00  0.00    +0.000 C 
ATOM     22  C   UNL     1       5.079   6.288  15.093  0.00  0.00    +0.000 C 
ATOM     23  C   UNL     1       5.618   3.972  16.089  0.00  0.00    +0.000 C 
ENDBRANCH  11  16
ENDBRANCH   3   7
BRANCH   6  24
ATOM     24  C   UNL     1      -1.097  12.357  20.040  0.00  0.00    +0.000 C 
ATOM     25  O   UNL     1      -0.792  13.278  19.281  0.00  0.00    +0.000 OA
ATOM     26  N   UNL     1      -2.091  12.424  20.992  0.00  0.00    +0.000 N 
ATOM     27  H   UNL     1      -2.159  11.644  21.641  0.00  0.00    +0.000 HD
BRANCH  26  28
ATOM     28  C   UNL     1      -2.935  13.537  21.218  0.00  0.00    +0.000 A 
ATOM     29  C   UNL     1      -4.193  13.673  20.618  0.00  0.00    +0.000 A 
ATOM     30  C   UNL     1      -4.976  14.808  20.836  0.00  0.00    +0.000 A 
ATOM     31  C   UNL     1      -4.510  15.820  21.664  0.00  0.00    +0.000 A 
ATOM     32  C   UNL     1      -3.270  15.689  22.289  0.00  0.00    +0.000 A 
ATOM     33  C   UNL     1      -2.490  14.544  22.075  0.00  0.00    +0.000 A 
ENDBRANCH  26  28
ENDBRANCH   6  24
BRANCH   1  35
ATOM     34  C   UNL     1      -0.425   9.825  23.245  0.00  0.00    +0.000 C 
ATOM     35  O   UNL     1      -0.000  10.811  22.301  0.00  0.00    +0.000 OA
ENDBRANCH   1  35
TORSDOF 5
ENDMDL
MODEL 6
REMARK VINA RESULT:      -8.5      2.125      3.371
REMARK  Name = 
REMARK  8 active torsions:
REMARK  status: ('A' for Active; 'I' for Inactive)
REMARK    1  A    between atoms: C_1  and  O_2
REMARK    2  A    between atoms: O_2  and  C_3
REMARK    3  A    between atoms: C_5  and  C_6
REMARK    4  A    between atoms: C_10  and  N_11
REMARK    5  A    between atoms: C_13  and  C_14
REMARK    6  A    between atoms: C_16  and  C_17
REMARK    7  A    between atoms: C_25  and  C_26
REMARK    8  A    between atoms: N_28  and  C_29
REMARK                            x       y       z     vdW  Elec       q    Type
REMARK                         _______ _______ _______ _____ _____    ______ ____
ROOT
ATOM      1  C   UNL     1      -2.161  12.187  20.819  0.00  0.00    +0.000 A 
ATOM      2  C   UNL     1      -1.215  11.277  20.309  0.00  0.00    +0.000 A 
ATOM      3  C   UNL     1      -0.444  10.439  21.137  0.00  0.00    +0.000 A 
ATOM      4  C   UNL     1      -0.614  10.562  22.518  0.00  0.00    +0.000 A 
ATOM      5  C   UNL     1      -1.537  11.461  23.042  0.00  0.00    +0.000 A 
ATOM      6  C   UNL     1      -2.338  12.264  22.208  0.00  0.00    +0.000 A 
ENDROOT
BRANCH   3   7
ATOM      7  C   UNL     1       0.490   9.446  20.568  0.00  0.00    +0.000 A 
ATOM      8  C   UNL     1       0.873   8.299  21.303  0.00  0.00    +0.000 A 
ATOM      9  N   UNL     1       1.697   7.283  20.925  0.00  0.00    +0.000 NA
ATOM     10  C   UNL     1       2.207   7.446  19.672  0.00  0.00    +0.000 A 
ATOM     11  C   UNL     1       3.060   6.529  19.068  0.00  0.00    +0.000 A 
ATOM     12  S   UNL     1       3.409   7.206  17.510  0.00  0.00    +0.000 S 
ATOM     13  N   UNL     1       2.488   8.563  17.631  0.00  0.00    +0.000 NA
ATOM     14  C   UNL     1       1.884   8.595  18.822  0.00  0.00    +0.000 A 
ATOM     15  C   UNL     1       1.008   9.607  19.270  0.00  0.00    +0.000 A 
BRANCH  11  16
ATOM     16  N   UNL     1       3.595   5.350  19.531  0.00  0.00    +0.000 N 
ATOM     17  C   UNL     1       4.898   4.842  19.093  0.00  0.00    +0.000 C 
ATOM     18  C   UNL     1       4.733   3.579  18.220  0.00  0.00    +0.000 C 
ATOM     19  C   UNL     1       4.388   3.891  16.768  0.00  0.00    +0.000 C 
ATOM     20  O   UNL     1       3.855   2.590  18.783  0.00  0.00    +0.000 OA
ATOM     21  C   UNL     1       2.620   3.070  19.348  0.00  0.00    +0.000 C 
ATOM     22  C   UNL     1       1.517   3.182  18.301  0.00  0.00    +0.000 C 
ATOM     23  C   UNL     1       2.802   4.327  20.221  0.00  0.00    +0.000 C 
ENDBRANCH  11  16
ENDBRANCH   3   7
BRANCH   6  24
ATOM     24  C   UNL     1      -3.319  13.133  22.929  0.00  0.00    +0.000 C 
ATOM     25  O   UNL     1      -4.193  12.564  23.585  0.00  0.00    +0.000 OA
ATOM     26  N   UNL     1      -3.220  14.500  22.778  0.00  0.00    +0.000 N 
ATOM     27  H   UNL     1      -2.532  14.839  22.109  0.00  0.00    +0.000 HD
BRANCH  26  28
ATOM     28  C   UNL     1      -4.074  15.454  23.377  0.00  0.00    +0.000 A 
ATOM     29  C   UNL     1      -3.746  16.139  24.554  0.00  0.00    +0.000 A 
ATOM     30  C   UNL     1      -4.637  17.042  25.134  0.00  0.00    +0.000 A 
ATOM     31  C   UNL     1      -5.869  17.277  24.538  0.00  0.00    +0.000 A 
ATOM     32  C   UNL     1      -6.202  16.622  23.353  0.00  0.00    +0.000 A 
ATOM     33  C   UNL     1      -5.301  15.723  22.768  0.00  0.00    +0.000 A 
ENDBRANCH  26  28
ENDBRANCH   6  24
BRANCH   1  35
ATOM     34  C   UNL     1      -4.080  12.347  19.414  0.00  0.00    +0.000 C 
ATOM     35  O   UNL     1      -2.941  12.974  20.007  0.00  0.00    +0.000 OA
ENDBRANCH   1  35
TORSDOF 5
ENDMDL
MODEL 7
REMARK VINA RESULT:      -8.5      1.238      1.851
REMARK  Name = 
REMARK  8 active torsions:
REMARK  status: ('A' for Active; 'I' for Inactive)
REMARK    1  A    between atoms: C_1  and  O_2
REMARK    2  A    between atoms: O_2  and  C_3
REMARK    3  A    between atoms: C_5  and  C_6
REMARK    4  A    between atoms: C_10  and  N_11
REMARK    5  A    between atoms: C_13  and  C_14
REMARK    6  A    between atoms: C_16  and  C_17
REMARK    7  A    between atoms: C_25  and  C_26
REMARK    8  A    between atoms: N_28  and  C_29
REMARK                            x       y       z     vdW  Elec       q    Type
REMARK                         _______ _______ _______ _____ _____    ______ ____
ROOT
ATOM      1  C   UNL     1      -0.148  10.401  19.358  0.00  0.00    +0.000 A 
ATOM      2  C   UNL     1       0.719   9.353  18.997  0.00  0.00    +0.000 A 
ATOM      3  C   UNL     1       1.371   8.544  19.948  0.00  0.00    +0.000 A 
ATOM      4  C   UNL     1       1.163   8.839  21.298  0.00  0.00    +0.000 A 
ATOM      5  C   UNL     1       0.316   9.876  21.675  0.00  0.00    +0.000 A 
ATOM      6  C   UNL     1      -0.369  10.652  20.720  0.00  0.00    +0.000 A 
ENDROOT
BRANCH   3   7
ATOM      7  C   UNL     1       2.221   7.409  19.537  0.00  0.00    +0.000 A 
ATOM      8  C   UNL     1       3.174   7.548  18.499  0.00  0.00    +0.000 A 
ATOM      9  N   UNL     1       4.046   6.620  18.017  0.00  0.00    +0.000 NA
ATOM     10  C   UNL     1       3.938   5.411  18.635  0.00  0.00    +0.000 A 
ATOM     11  C   UNL     1       4.735   4.317  18.320  0.00  0.00    +0.000 A 
ATOM     12  S   UNL     1       4.197   3.053  19.379  0.00  0.00    +0.000 S 
ATOM     13  N   UNL     1       3.043   3.902  20.188  0.00  0.00    +0.000 NA
ATOM     14  C   UNL     1       2.986   5.151  19.718  0.00  0.00    +0.000 A 
ATOM     15  C   UNL     1       2.119   6.163  20.184  0.00  0.00    +0.000 A 
BRANCH  11  16
ATOM     16  N   UNL     1       5.722   4.158  17.375  0.00  0.00    +0.000 N 
ATOM     17  C   UNL     1       7.139   4.406  17.656  0.00  0.00    +0.000 C 
ATOM     18  C   UNL     1       7.637   5.663  16.910  0.00  0.00    +0.000 C 
ATOM     19  C   UNL     1       7.287   6.966  17.623  0.00  0.00    +0.000 C 
ATOM     20  O   UNL     1       7.280   5.697  15.518  0.00  0.00    +0.000 OA
ATOM     21  C   UNL     1       5.928   5.325  15.189  0.00  0.00    +0.000 C 
ATOM     22  C   UNL     1       4.972   6.511  15.271  0.00  0.00    +0.000 C 
ATOM     23  C   UNL     1       5.448   4.067  15.938  0.00  0.00    +0.000 C 
ENDBRANCH  11  16
ENDBRANCH   3   7
BRANCH   6  24
ATOM     24  C   UNL     1      -1.284  11.688  21.294  0.00  0.00    +0.000 C 
ATOM     25  O   UNL     1      -2.003  12.298  20.501  0.00  0.00    +0.000 OA
ATOM     26  N   UNL     1      -1.231  11.931  22.650  0.00  0.00    +0.000 N 
ATOM     27  H   UNL     1      -0.504  11.450  23.175  0.00  0.00    +0.000 HD
BRANCH  26  28
ATOM     28  C   UNL     1      -2.014  12.884  23.341  0.00  0.00    +0.000 A 
ATOM     29  C   UNL     1      -1.540  14.157  23.684  0.00  0.00    +0.000 A 
ATOM     30  C   UNL     1      -2.333  15.051  24.404  0.00  0.00    +0.000 A 
ATOM     31  C   UNL     1      -3.617  14.684  24.785  0.00  0.00    +0.000 A 
ATOM     32  C   UNL     1      -4.113  13.430  24.431  0.00  0.00    +0.000 A 
ATOM     33  C   UNL     1      -3.318  12.538  23.700  0.00  0.00    +0.000 A 
ENDBRANCH  26  28
ENDBRANCH   6  24
BRANCH   1  35
ATOM     34  C   UNL     1      -1.701  10.466  17.551  0.00  0.00    +0.000 C 
ATOM     35  O   UNL     1      -0.814  11.162  18.429  0.00  0.00    +0.000 OA
ENDBRANCH   1  35
TORSDOF 5
ENDMDL
MODEL 8
REMARK VINA RESULT:      -8.4      0.922      1.345
REMARK  Name = 
REMARK  8 active torsions:
REMARK  status: ('A' for Active; 'I' for Inactive)
REMARK    1  A    between atoms: C_1  and  O_2
REMARK    2  A    between atoms: O_2  and  C_3
REMARK    3  A    between atoms: C_5  and  C_6
REMARK    4  A    between atoms: C_10  and  N_11
REMARK    5  A    between atoms: C_13  and  C_14
REMARK    6  A    between atoms: C_16  and  C_17
REMARK    7  A    between atoms: C_25  and  C_26
REMARK    8  A    between atoms: N_28  and  C_29
REMARK                            x       y       z     vdW  Elec       q    Type
REMARK                         _______ _______ _______ _____ _____    ______ ____
ROOT
ATOM      1  C   UNL     1      -0.222  11.222  20.556  0.00  0.00    +0.000 A 
ATOM      2  C   UNL     1       0.602  10.243  19.969  0.00  0.00    +0.000 A 
ATOM      3  C   UNL     1       0.897   9.020  20.602  0.00  0.00    +0.000 A 
ATOM      4  C   UNL     1       0.372   8.810  21.879  0.00  0.00    +0.000 A 
ATOM      5  C   UNL     1      -0.438   9.768  22.479  0.00  0.00    +0.000 A 
ATOM      6  C   UNL     1      -0.768  10.970  21.824  0.00  0.00    +0.000 A 
ENDROOT
BRANCH   3   7
ATOM      7  C   UNL     1       1.709   7.985  19.931  0.00  0.00    +0.000 A 
ATOM      8  C   UNL     1       2.349   8.245  18.696  0.00  0.00    +0.000 A 
ATOM      9  N   UNL     1       3.146   7.422  17.961  0.00  0.00    +0.000 NA
ATOM     10  C   UNL     1       3.304   6.190  18.522  0.00  0.00    +0.000 A 
ATOM     11  C   UNL     1       4.086   5.188  17.959  0.00  0.00    +0.000 A 
ATOM     12  S   UNL     1       3.947   3.848  19.051  0.00  0.00    +0.000 S 
ATOM     13  N   UNL     1       2.969   4.556  20.168  0.00  0.00    +0.000 NA
ATOM     14  C   UNL     1       2.687   5.807  19.794  0.00  0.00    +0.000 A 
ATOM     15  C   UNL     1       1.883   6.717  20.515  0.00  0.00    +0.000 A 
BRANCH  11  16
ATOM     16  N   UNL     1       4.809   5.153  16.789  0.00  0.00    +0.000 N 
ATOM     17  C   UNL     1       5.682   4.034  16.427  0.00  0.00    +0.000 C 
ATOM     18  C   UNL     1       7.167   4.454  16.480  0.00  0.00    +0.000 C 
ATOM     19  C   UNL     1       7.752   4.429  17.889  0.00  0.00    +0.000 C 
ATOM     20  O   UNL     1       7.451   5.688  15.799  0.00  0.00    +0.000 OA
ATOM     21  C   UNL     1       6.533   6.775  16.025  0.00  0.00    +0.000 C 
ATOM     22  C   UNL     1       6.901   7.588  17.262  0.00  0.00    +0.000 C 
ATOM     23  C   UNL     1       5.055   6.340  15.964  0.00  0.00    +0.000 C 
ENDBRANCH  11  16
ENDBRANCH   3   7
BRANCH   6  24
ATOM     24  C   UNL     1      -1.694  11.865  22.584  0.00  0.00    +0.000 C 
ATOM     25  O   UNL     1      -1.499  11.970  23.796  0.00  0.00    +0.000 OA
ATOM     26  N   UNL     1      -2.728  12.470  21.903  0.00  0.00    +0.000 N 
ATOM     27  H   UNL     1      -2.855  12.203  20.929  0.00  0.00    +0.000 HD
BRANCH  26  28
ATOM     28  C   UNL     1      -3.695  13.328  22.476  0.00  0.00    +0.000 A 
ATOM     29  C   UNL     1      -3.417  14.651  22.845  0.00  0.00    +0.000 A 
ATOM     30  C   UNL     1      -4.390  15.451  23.446  0.00  0.00    +0.000 A 
ATOM     31  C   UNL     1      -5.659  14.937  23.680  0.00  0.00    +0.000 A 
ATOM     32  C   UNL     1      -5.959  13.630  23.297  0.00  0.00    +0.000 A 
ATOM     33  C   UNL     1      -4.983  12.833  22.685  0.00  0.00    +0.000 A 
ENDBRANCH  26  28
ENDBRANCH   6  24
BRANCH   1  35
ATOM     34  C   UNL     1       0.448  12.936  19.041  0.00  0.00    +0.000 C 
ATOM     35  O   UNL     1      -0.541  12.397  19.920  0.00  0.00    +0.000 OA
ENDBRANCH   1  35
TORSDOF 5
ENDMDL
MODEL 9
REMARK VINA RESULT:      -8.4      1.868      2.893
REMARK  Name = 
REMARK  8 active torsions:
REMARK  status: ('A' for Active; 'I' for Inactive)
REMARK    1  A    between atoms: C_1  and  O_2
REMARK    2  A    between atoms: O_2  and  C_3
REMARK    3  A    between atoms: C_5  and  C_6
REMARK    4  A    between atoms: C_10  and  N_11
REMARK    5  A    between atoms: C_13  and  C_14
REMARK    6  A    between atoms: C_16  and  C_17
REMARK    7  A    between atoms: C_25  and  C_26
REMARK    8  A    between atoms: N_28  and  C_29
REMARK                            x       y       z     vdW  Elec       q    Type
REMARK                         _______ _______ _______ _____ _____    ______ ____
ROOT
ATOM      1  C   UNL     1       0.262  10.627  20.913  0.00  0.00    +0.000 A 
ATOM      2  C   UNL     1       1.029   9.472  20.667  0.00  0.00    +0.000 A 
ATOM      3  C   UNL     1       1.256   8.973  19.370  0.00  0.00    +0.000 A 
ATOM      4  C   UNL     1       0.652   9.645  18.303  0.00  0.00    +0.000 A 
ATOM      5  C   UNL     1      -0.116  10.783  18.527  0.00  0.00    +0.000 A 
ATOM      6  C   UNL     1      -0.302  11.305  19.822  0.00  0.00    +0.000 A 
ENDROOT
BRANCH   3   7
ATOM      7  C   UNL     1       2.121   7.798  19.139  0.00  0.00    +0.000 A 
ATOM      8  C   UNL     1       3.125   7.816  18.141  0.00  0.00    +0.000 A 
ATOM      9  N   UNL     1       4.017   6.840  17.816  0.00  0.00    +0.000 NA
ATOM     10  C   UNL     1       3.873   5.711  18.566  0.00  0.00    +0.000 A 
ATOM     11  C   UNL     1       4.680   4.589  18.423  0.00  0.00    +0.000 A 
ATOM     12  S   UNL     1       4.084   3.458  19.594  0.00  0.00    +0.000 S 
ATOM     13  N   UNL     1       2.894   4.394  20.238  0.00  0.00    +0.000 NA
ATOM     14  C   UNL     1       2.866   5.579  19.623  0.00  0.00    +0.000 A 
ATOM     15  C   UNL     1       1.982   6.637  19.921  0.00  0.00    +0.000 A 
BRANCH  11  16
ATOM     16  N   UNL     1       5.713   4.322  17.554  0.00  0.00    +0.000 N 
ATOM     17  C   UNL     1       7.114   4.604  17.875  0.00  0.00    +0.000 C 
ATOM     18  C   UNL     1       7.655   5.765  17.013  0.00  0.00    +0.000 C 
ATOM     19  C   UNL     1       7.276   7.141  17.548  0.00  0.00    +0.000 C 
ATOM     20  O   UNL     1       7.369   5.634  15.610  0.00  0.00    +0.000 OA
ATOM     21  C   UNL     1       6.033   5.224  15.259  0.00  0.00    +0.000 C 
ATOM     22  C   UNL     1       5.080   6.410  15.152  0.00  0.00    +0.000 C 
ATOM     23  C   UNL     1       5.511   4.062  16.125  0.00  0.00    +0.000 C 
ENDBRANCH  11  16
ENDBRANCH   3   7
BRANCH   6  24
ATOM     24  C   UNL     1      -1.106  12.564  19.880  0.00  0.00    +0.000 C 
ATOM     25  O   UNL     1      -2.315  12.466  19.660  0.00  0.00    +0.000 OA
ATOM     26  N   UNL     1      -0.449  13.752  20.122  0.00  0.00    +0.000 N 
ATOM     27  H   UNL     1       0.567  13.714  20.161  0.00  0.00    +0.000 HD
BRANCH  26  28
ATOM     28  C   UNL     1      -1.059  15.025  20.193  0.00  0.00    +0.000 A 
ATOM     29  C   UNL     1      -2.009  15.363  21.166  0.00  0.00    +0.000 A 
ATOM     30  C   UNL     1      -2.617  16.618  21.174  0.00  0.00    +0.000 A 
ATOM     31  C   UNL     1      -2.276  17.558  20.209  0.00  0.00    +0.000 A 
ATOM     32  C   UNL     1      -1.315  17.246  19.248  0.00  0.00    +0.000 A 
ATOM     33  C   UNL     1      -0.699  15.988  19.248  0.00  0.00    +0.000 A 
ENDBRANCH  26  28
ENDBRANCH   6  24
BRANCH   1  35
ATOM     34  C   UNL     1      -0.856  10.444  23.010  0.00  0.00    +0.000 C 
ATOM     35  O   UNL     1       0.076  11.135  22.175  0.00  0.00    +0.000 OA
ENDBRANCH   1  35
TORSDOF 5
ENDMDL
