MODEL 1
REMARK VINA RESULT:      -7.2      0.000      0.000
REMARK  Name = 
REMARK  3 active torsions:
REMARK  status: ('A' for Active; 'I' for Inactive)
REMARK    1  A    between atoms: C_1  and  S_2
REMARK    2  A    between atoms: S_2  and  N_5
REMARK    3  A    between atoms: N_5  and  C_6
REMARK                            x       y       z     vdW  Elec       q    Type
REMARK                         _______ _______ _______ _____ _____    ______ ____
ROOT
ATOM      1  C   UNL     1       4.577   5.455  17.284  0.00  0.00    +0.000 A 
ATOM      2  C   UNL     1       4.273   6.808  17.452  0.00  0.00    +0.000 A 
ATOM      3  C   UNL     1       3.025   7.190  17.934  0.00  0.00    +0.000 A 
ATOM      4  C   UNL     1       2.079   6.219  18.256  0.00  0.00    +0.000 A 
ATOM      5  C   UNL     1       2.367   4.854  18.112  0.00  0.00    +0.000 A 
ATOM      6  C   UNL     1       1.393   3.896  18.441  0.00  0.00    +0.000 A 
ATOM      7  C   UNL     1       1.653   2.535  18.307  0.00  0.00    +0.000 A 
ATOM      8  C   UNL     1       2.898   2.112  17.857  0.00  0.00    +0.000 A 
ATOM      9  C   UNL     1       3.880   3.052  17.530  0.00  0.00    +0.000 A 
ATOM     10  C   UNL     1       3.639   4.444  17.635  0.00  0.00    +0.000 A 
ENDROOT
BRANCH   1  11
ATOM     11  N   UNL     1       5.882   5.139  16.770  0.00  0.00    +0.000 N 
ATOM     12  H   UNL     1       5.896   4.314  16.167  0.00  0.00    +0.000 HD
BRANCH  11  14
ATOM     13  C   UNL     1       7.709   6.698  17.950  0.00  0.00    +0.000 C 
ATOM     14  S   UNL     1       7.139   5.013  17.900  0.00  0.00    +0.000 S 
ATOM     15  O   UNL     1       8.164   4.221  17.255  0.00  0.00    +0.000 OA
ATOM     16  O   UNL     1       6.617   4.674  19.204  0.00  0.00    +0.000 OA
ENDBRANCH  11  14
ENDBRANCH   1  11
TORSDOF 2
ENDMDL
MODEL 2
REMARK VINA RESULT:      -6.9      0.885      1.104
REMARK  Name = 
REMARK  3 active torsions:
REMARK  status: ('A' for Active; 'I' for Inactive)
REMARK    1  A    between atoms: C_1  and  S_2
REMARK    2  A    between atoms: S_2  and  N_5
REMARK    3  A    between atoms: N_5  and  C_6
REMARK                            x       y       z     vdW  Elec       q    Type
REMARK                         _______ _______ _______ _____ _____    ______ ____
ROOT
ATOM      1  C   UNL     1       4.533   5.454  17.037  0.00  0.00    +0.000 A 
ATOM      2  C   UNL     1       4.324   6.821  17.236  0.00  0.00    +0.000 A 
ATOM      3  C   UNL     1       3.175   7.265  17.883  0.00  0.00    +0.000 A 
ATOM      4  C   UNL     1       2.235   6.343  18.339  0.00  0.00    +0.000 A 
ATOM      5  C   UNL     1       2.431   4.965  18.166  0.00  0.00    +0.000 A 
ATOM      6  C   UNL     1       1.466   4.058  18.632  0.00  0.00    +0.000 A 
ATOM      7  C   UNL     1       1.636   2.685  18.473  0.00  0.00    +0.000 A 
ATOM      8  C   UNL     1       2.785   2.200  17.859  0.00  0.00    +0.000 A 
ATOM      9  C   UNL     1       3.758   3.089  17.393  0.00  0.00    +0.000 A 
ATOM     10  C   UNL     1       3.603   4.492  17.520  0.00  0.00    +0.000 A 
ENDROOT
BRANCH   1  11
ATOM     11  N   UNL     1       5.738   5.073  16.350  0.00  0.00    +0.000 N 
ATOM     12  H   UNL     1       5.728   4.109  16.011  0.00  0.00    +0.000 HD
BRANCH  11  14
ATOM     13  C   UNL     1       6.632   5.470  18.841  0.00  0.00    +0.000 C 
ATOM     14  S   UNL     1       7.200   5.357  17.158  0.00  0.00    +0.000 S 
ATOM     15  O   UNL     1       7.621   6.678  16.746  0.00  0.00    +0.000 OA
ATOM     16  O   UNL     1       8.071   4.208  17.052  0.00  0.00    +0.000 OA
ENDBRANCH  11  14
ENDBRANCH   1  11
TORSDOF 2
ENDMDL
MODEL 3
REMARK VINA RESULT:      -6.7      2.115      2.735
REMARK  Name = 
REMARK  3 active torsions:
REMARK  status: ('A' for Active; 'I' for Inactive)
REMARK    1  A    between atoms: C_1  and  S_2
REMARK    2  A    between atoms: S_2  and  N_5
REMARK    3  A    between atoms: N_5  and  C_6
REMARK                            x       y       z     vdW  Elec       q    Type
REMARK                         _______ _______ _______ _____ _____    ______ ____
ROOT
ATOM      1  C   UNL     1       4.265   3.548  18.579  0.00  0.00    +0.000 A 
ATOM      2  C   UNL     1       3.971   3.757  17.229  0.00  0.00    +0.000 A 
ATOM      3  C   UNL     1       2.653   3.718  16.787  0.00  0.00    +0.000 A 
ATOM      4  C   UNL     1       1.623   3.478  17.695  0.00  0.00    +0.000 A 
ATOM      5  C   UNL     1       1.892   3.282  19.058  0.00  0.00    +0.000 A 
ATOM      6  C   UNL     1       0.836   3.037  19.950  0.00  0.00    +0.000 A 
ATOM      7  C   UNL     1       1.075   2.840  21.308  0.00  0.00    +0.000 A 
ATOM      8  C   UNL     1       2.376   2.901  21.793  0.00  0.00    +0.000 A 
ATOM      9  C   UNL     1       3.439   3.148  20.919  0.00  0.00    +0.000 A 
ATOM     10  C   UNL     1       3.229   3.331  19.530  0.00  0.00    +0.000 A 
ENDROOT
BRANCH   1  11
ATOM     11  N   UNL     1       5.652   3.591  18.958  0.00  0.00    +0.000 N 
ATOM     12  H   UNL     1       5.831   3.229  19.897  0.00  0.00    +0.000 HD
BRANCH  11  14
ATOM     13  C   UNL     1       7.609   4.679  17.493  0.00  0.00    +0.000 C 
ATOM     14  S   UNL     1       6.447   5.077  18.781  0.00  0.00    +0.000 S 
ATOM     15  O   UNL     1       7.195   5.265  20.005  0.00  0.00    +0.000 OA
ATOM     16  O   UNL     1       5.540   6.081  18.276  0.00  0.00    +0.000 OA
ENDBRANCH  11  14
ENDBRANCH   1  11
TORSDOF 2
ENDMDL
MODEL 4
REMARK VINA RESULT:      -6.7      1.306      1.456
REMARK  Name = 
REMARK  3 active torsions:
REMARK  status: ('A' for Active; 'I' for Inactive)
REMARK    1  A    between atoms: C_1  and  S_2
REMARK    2  A    between atoms: S_2  and  N_5
REMARK    3  A    between atoms: N_5  and  C_6
REMARK                            x       y       z     vdW  Elec       q    Type
REMARK                         _______ _______ _______ _____ _____    ______ ____
ROOT
ATOM      1  C   UNL     1       4.861   5.141  18.309  0.00  0.00    +0.000 A 
ATOM      2  C   UNL     1       4.581   6.495  18.103  0.00  0.00    +0.000 A 
ATOM      3  C   UNL     1       3.267   6.918  17.932  0.00  0.00    +0.000 A 
ATOM      4  C   UNL     1       2.228   5.990  17.973  0.00  0.00    +0.000 A 
ATOM      5  C   UNL     1       2.483   4.629  18.196  0.00  0.00    +0.000 A 
ATOM      6  C   UNL     1       1.417   3.715  18.229  0.00  0.00    +0.000 A 
ATOM      7  C   UNL     1       1.643   2.358  18.448  0.00  0.00    +0.000 A 
ATOM      8  C   UNL     1       2.939   1.900  18.653  0.00  0.00    +0.000 A 
ATOM      9  C   UNL     1       4.011   2.797  18.628  0.00  0.00    +0.000 A 
ATOM     10  C   UNL     1       3.815   4.179  18.386  0.00  0.00    +0.000 A 
ENDROOT
BRANCH   1  11
ATOM     11  N   UNL     1       6.244   4.779  18.465  0.00  0.00    +0.000 N 
ATOM     12  H   UNL     1       6.706   5.252  19.244  0.00  0.00    +0.000 HD
BRANCH  11  14
ATOM     13  C   UNL     1       6.214   4.064  15.886  0.00  0.00    +0.000 C 
ATOM     14  S   UNL     1       7.226   4.900  17.089  0.00  0.00    +0.000 S 
ATOM     15  O   UNL     1       8.374   4.062  17.356  0.00  0.00    +0.000 OA
ATOM     16  O   UNL     1       7.363   6.280  16.682  0.00  0.00    +0.000 OA
ENDBRANCH  11  14
ENDBRANCH   1  11
TORSDOF 2
ENDMDL
MODEL 5
REMARK VINA RESULT:      -6.6      1.449      1.509
REMARK  Name = 
REMARK  3 active torsions:
REMARK  status: ('A' for Active; 'I' for Inactive)
REMARK    1  A    between atoms: C_1  and  S_2
REMARK    2  A    between atoms: S_2  and  N_5
REMARK    3  A    between atoms: N_5  and  C_6
REMARK                            x       y       z     vdW  Elec       q    Type
REMARK                         _______ _______ _______ _____ _____    ______ ____
ROOT
ATOM      1  C   UNL     1       4.556   5.366  18.058  0.00  0.00    +0.000 A 
ATOM      2  C   UNL     1       4.285   6.638  17.549  0.00  0.00    +0.000 A 
ATOM      3  C   UNL     1       3.159   7.336  17.973  0.00  0.00    +0.000 A 
ATOM      4  C   UNL     1       2.304   6.765  18.914  0.00  0.00    +0.000 A 
ATOM      5  C   UNL     1       2.564   5.496  19.452  0.00  0.00    +0.000 A 
ATOM      6  C   UNL     1       1.683   4.943  20.396  0.00  0.00    +0.000 A 
ATOM      7  C   UNL     1       1.918   3.686  20.946  0.00  0.00    +0.000 A 
ATOM      8  C   UNL     1       3.048   2.970  20.569  0.00  0.00    +0.000 A 
ATOM      9  C   UNL     1       3.938   3.508  19.634  0.00  0.00    +0.000 A 
ATOM     10  C   UNL     1       3.714   4.775  19.041  0.00  0.00    +0.000 A 
ENDROOT
BRANCH   1  11
ATOM     11  N   UNL     1       5.732   4.702  17.562  0.00  0.00    +0.000 N 
ATOM     12  H   UNL     1       5.646   3.685  17.532  0.00  0.00    +0.000 HD
BRANCH  11  14
ATOM     13  C   UNL     1       7.506   6.706  17.571  0.00  0.00    +0.000 C 
ATOM     14  S   UNL     1       7.205   5.108  18.295  0.00  0.00    +0.000 S 
ATOM     15  O   UNL     1       8.178   4.187  17.748  0.00  0.00    +0.000 OA
ATOM     16  O   UNL     1       7.033   5.283  19.719  0.00  0.00    +0.000 OA
ENDBRANCH  11  14
ENDBRANCH   1  11
TORSDOF 2
ENDMDL
MODEL 6
REMARK VINA RESULT:      -6.6      1.681      1.951
REMARK  Name = 
REMARK  3 active torsions:
REMARK  status: ('A' for Active; 'I' for Inactive)
REMARK    1  A    between atoms: C_1  and  S_2
REMARK    2  A    between atoms: S_2  and  N_5
REMARK    3  A    between atoms: N_5  and  C_6
REMARK                            x       y       z     vdW  Elec       q    Type
REMARK                         _______ _______ _______ _____ _____    ______ ____
ROOT
ATOM      1  C   UNL     1       4.575   5.403  17.538  0.00  0.00    +0.000 A 
ATOM      2  C   UNL     1       4.252   6.751  17.713  0.00  0.00    +0.000 A 
ATOM      3  C   UNL     1       2.972   7.115  18.119  0.00  0.00    +0.000 A 
ATOM      4  C   UNL     1       2.014   6.132  18.360  0.00  0.00    +0.000 A 
ATOM      5  C   UNL     1       2.321   4.771  18.207  0.00  0.00    +0.000 A 
ATOM      6  C   UNL     1       1.335   3.801  18.452  0.00  0.00    +0.000 A 
ATOM      7  C   UNL     1       1.613   2.445  18.309  0.00  0.00    +0.000 A 
ATOM      8  C   UNL     1       2.888   2.039  17.932  0.00  0.00    +0.000 A 
ATOM      9  C   UNL     1       3.882   2.991  17.689  0.00  0.00    +0.000 A 
ATOM     10  C   UNL     1       3.624   4.379  17.806  0.00  0.00    +0.000 A 
ENDROOT
BRANCH   1  11
ATOM     11  N   UNL     1       5.914   5.106  17.103  0.00  0.00    +0.000 N 
ATOM     12  H   UNL     1       6.637   5.520  17.694  0.00  0.00    +0.000 HD
BRANCH  11  14
ATOM     13  C   UNL     1       6.068   3.810  14.767  0.00  0.00    +0.000 C 
ATOM     14  S   UNL     1       6.279   5.427  15.480  0.00  0.00    +0.000 S 
ATOM     15  O   UNL     1       7.692   5.738  15.454  0.00  0.00    +0.000 OA
ATOM     16  O   UNL     1       5.292   6.308  14.901  0.00  0.00    +0.000 OA
ENDBRANCH  11  14
ENDBRANCH   1  11
TORSDOF 2
ENDMDL
MODEL 7
REMARK VINA RESULT:      -6.5      1.234      2.897
REMARK  Name = 
REMARK  3 active torsions:
REMARK  status: ('A' for Active; 'I' for Inactive)
REMARK    1  A    between atoms: C_1  and  S_2
REMARK    2  A    between atoms: S_2  and  N_5
REMARK    3  A    between atoms: N_5  and  C_6
REMARK                            x       y       z     vdW  Elec       q    Type
REMARK                         _______ _______ _______ _____ _____    ______ ____
ROOT
ATOM      1  C   UNL     1       4.104   4.060  17.613  0.00  0.00    +0.000 A 
ATOM      2  C   UNL     1       4.028   2.677  17.429  0.00  0.00    +0.000 A 
ATOM      3  C   UNL     1       3.157   1.915  18.201  0.00  0.00    +0.000 A 
ATOM      4  C   UNL     1       2.352   2.536  19.155  0.00  0.00    +0.000 A 
ATOM      5  C   UNL     1       2.398   3.925  19.346  0.00  0.00    +0.000 A 
ATOM      6  C   UNL     1       1.580   4.524  20.318  0.00  0.00    +0.000 A 
ATOM      7  C   UNL     1       1.606   5.900  20.528  0.00  0.00    +0.000 A 
ATOM      8  C   UNL     1       2.442   6.699  19.756  0.00  0.00    +0.000 A 
ATOM      9  C   UNL     1       3.260   6.119  18.781  0.00  0.00    +0.000 A 
ATOM     10  C   UNL     1       3.272   4.720  18.560  0.00  0.00    +0.000 A 
ENDROOT
BRANCH   1  11
ATOM     11  N   UNL     1       5.037   4.777  16.787  0.00  0.00    +0.000 N 
ATOM     12  H   UNL     1       5.081   4.433  15.826  0.00  0.00    +0.000 HD
BRANCH  11  14
ATOM     13  C   UNL     1       6.750   6.716  17.471  0.00  0.00    +0.000 C 
ATOM     14  S   UNL     1       6.615   4.943  17.383  0.00  0.00    +0.000 S 
ATOM     15  O   UNL     1       7.482   4.489  16.318  0.00  0.00    +0.000 OA
ATOM     16  O   UNL     1       6.710   4.416  18.724  0.00  0.00    +0.000 OA
ENDBRANCH  11  14
ENDBRANCH   1  11
TORSDOF 2
ENDMDL
MODEL 8
REMARK VINA RESULT:      -6.5      1.117      1.233
REMARK  Name = 
REMARK  3 active torsions:
REMARK  status: ('A' for Active; 'I' for Inactive)
REMARK    1  A    between atoms: C_1  and  S_2
REMARK    2  A    between atoms: S_2  and  N_5
REMARK    3  A    between atoms: N_5  and  C_6
REMARK                            x       y       z     vdW  Elec       q    Type
REMARK                         _______ _______ _______ _____ _____    ______ ____
ROOT
ATOM      1  C   UNL     1       4.696   5.057  18.572  0.00  0.00    +0.000 A 
ATOM      2  C   UNL     1       4.371   6.391  18.313  0.00  0.00    +0.000 A 
ATOM      3  C   UNL     1       3.053   6.751  18.048  0.00  0.00    +0.000 A 
ATOM      4  C   UNL     1       2.055   5.778  18.050  0.00  0.00    +0.000 A 
ATOM      5  C   UNL     1       2.355   4.435  18.324  0.00  0.00    +0.000 A 
ATOM      6  C   UNL     1       1.330   3.475  18.315  0.00  0.00    +0.000 A 
ATOM      7  C   UNL     1       1.600   2.136  18.585  0.00  0.00    +0.000 A 
ATOM      8  C   UNL     1       2.899   1.742  18.883  0.00  0.00    +0.000 A 
ATOM      9  C   UNL     1       3.931   2.686  18.900  0.00  0.00    +0.000 A 
ATOM     10  C   UNL     1       3.691   4.051  18.609  0.00  0.00    +0.000 A 
ENDROOT
BRANCH   1  11
ATOM     11  N   UNL     1       6.081   4.762  18.824  0.00  0.00    +0.000 N 
ATOM     12  H   UNL     1       6.481   5.300  19.595  0.00  0.00    +0.000 HD
BRANCH  11  14
ATOM     13  C   UNL     1       7.528   6.575  17.490  0.00  0.00    +0.000 C 
ATOM     14  S   UNL     1       7.133   4.840  17.497  0.00  0.00    +0.000 S 
ATOM     15  O   UNL     1       6.312   4.571  16.336  0.00  0.00    +0.000 OA
ATOM     16  O   UNL     1       8.345   4.102  17.765  0.00  0.00    +0.000 OA
ENDBRANCH  11  14
ENDBRANCH   1  11
TORSDOF 2
ENDMDL
MODEL 9
REMARK VINA RESULT:      -6.5      1.623      1.770
REMARK  Name = 
REMARK  3 active torsions:
REMARK  status: ('A' for Active; 'I' for Inactive)
REMARK    1  A    between atoms: C_1  and  S_2
REMARK    2  A    between atoms: S_2  and  N_5
REMARK    3  A    between atoms: N_5  and  C_6
REMARK                            x       y       z     vdW  Elec       q    Type
REMARK                         _______ _______ _______ _____ _____    ______ ____
ROOT
ATOM      1  C   UNL     1       4.729   5.006  17.997  0.00  0.00    +0.000 A 
ATOM      2  C   UNL     1       4.509   6.263  17.429  0.00  0.00    +0.000 A 
ATOM      3  C   UNL     1       3.419   7.030  17.830  0.00  0.00    +0.000 A 
ATOM      4  C   UNL     1       2.550   6.544  18.805  0.00  0.00    +0.000 A 
ATOM      5  C   UNL     1       2.760   5.292  19.401  0.00  0.00    +0.000 A 
ATOM      6  C   UNL     1       1.867   4.824  20.379  0.00  0.00    +0.000 A 
ATOM      7  C   UNL     1       2.052   3.586  20.987  0.00  0.00    +0.000 A 
ATOM      8  C   UNL     1       3.146   2.803  20.635  0.00  0.00    +0.000 A 
ATOM      9  C   UNL     1       4.048   3.255  19.667  0.00  0.00    +0.000 A 
ATOM     10  C   UNL     1       3.874   4.501  19.016  0.00  0.00    +0.000 A 
ENDROOT
BRANCH   1  11
ATOM     11  N   UNL     1       5.869   4.268  17.523  0.00  0.00    +0.000 N 
ATOM     12  H   UNL     1       5.911   3.309  17.874  0.00  0.00    +0.000 HD
BRANCH  11  14
ATOM     13  C   UNL     1       7.221   5.659  19.367  0.00  0.00    +0.000 C 
ATOM     14  S   UNL     1       7.387   4.994  17.724  0.00  0.00    +0.000 S 
ATOM     15  O   UNL     1       7.411   6.106  16.800  0.00  0.00    +0.000 OA
ATOM     16  O   UNL     1       8.430   3.994  17.745  0.00  0.00    +0.000 OA
ENDBRANCH  11  14
ENDBRANCH   1  11
TORSDOF 2
ENDMDL
